REMARK  Name = ZINC02248492
REMARK  9 active torsions:
REMARK  status: ('A' for Active; 'I' for Inactive)
REMARK    1  A    between atoms: C_1  and  O_2
REMARK    2  A    between atoms: O_2  and  C_3
REMARK    3  A    between atoms: C_3  and  C_5
REMARK    4  A    between atoms: C_11  and  C_12
REMARK    5  A    between atoms: C_18  and  N_31
REMARK    6  A    between atoms: C_19  and  C_27
REMARK    7  A    between atoms: C_20  and  C_22
REMARK    8  A    between atoms: C_27  and  O_29
REMARK    9  A    between atoms: O_29  and  C_30
REMARK                            x       y       z     vdW  Elec       q    Type
REMARK                         _______ _______ _______ _____ _____    ______ ____
ROOT
ATOM      1  C   UNL     1      -2.078  -0.845  -1.260  0.00  0.00    +0.082 C 
ATOM      2  C   UNL     1      -3.220  -0.100  -1.163  0.00  0.00    +0.101 A 
ATOM      3  N   UNL     1      -3.781   0.307   0.030  0.00  0.00    -0.257 N 
ATOM      4  C   UNL     1      -4.910   1.041  -0.028  0.00  0.00    +0.271 A 
ATOM      5  O   UNL     1      -5.453   1.429   0.990  0.00  0.00    -0.266 OA
ATOM      6  C   UNL     1      -5.469   1.361  -1.341  0.00  0.00    +0.082 A 
ATOM      7  C   UNL     1      -6.585   2.079  -1.656  0.00  0.00    +0.066 C 
ATOM      8  S   UNL     1      -4.295   0.559  -2.421  0.00  0.00    -0.065 S 
ATOM      9  C   UNL     1      -3.163  -0.055   1.230  0.00  0.00    +0.115 C 
ATOM     10  C   UNL     1      -2.030  -0.791   1.303  0.00  0.00    +0.090 C 
ATOM     11  C   UNL     1      -1.377  -1.260   0.019  0.00  0.00    +0.135 C 
ENDROOT
BRANCH   7  12
ATOM     12  C   UNL     1      -6.946   2.268  -3.010  0.00  0.00    +0.129 A 
ATOM     13  C   UNL     1      -8.043   2.969  -3.469  0.00  0.00    +0.049 A 
ATOM     14  C   UNL     1      -8.004   2.897  -4.870  0.00  0.00    +0.042 A 
ATOM     15  C   UNL     1      -6.913   2.173  -5.204  0.00  0.00    +0.195 A 
ATOM     16  O   UNL     1      -6.276   1.801  -4.084  0.00  0.00    -0.463 OA
ENDBRANCH   7  12
BRANCH  11  17
ATOM     17  C   UNL     1       0.031  -0.724  -0.019  0.00  0.00    +0.117 A 
ATOM     18  C   UNL     1       1.155  -1.463  -0.025  0.00  0.00    +0.045 A 
ATOM     19  C   UNL     1       2.240  -0.557  -0.063  0.00  0.00    +0.041 A 
ATOM     20  C   UNL     1       1.714   0.681  -0.079  0.00  0.00    +0.195 A 
ATOM     21  O   UNL     1       0.376   0.574  -0.052  0.00  0.00    -0.467 OA
ENDBRANCH  11  17
BRANCH   9  22
ATOM     22  N   UNL     1      -3.738   0.360   2.403  0.00  0.00    -0.344 N 
ATOM     23  H   UNL     1      -3.182   0.691   3.125  0.00  0.00    +0.144 HD
ATOM     24  H   UNL     1      -4.702   0.324   2.510  0.00  0.00    +0.144 HD
ENDBRANCH   9  22
BRANCH   1  25
ATOM     25  C   UNL     1      -1.570  -1.215  -2.512  0.00  0.00    +0.338 C 
ATOM     26  O   UNL     1      -2.147  -0.872  -3.529  0.00  0.00    -0.245 OA
BRANCH  25  28
ATOM     27  C   UNL     1       0.019  -2.295  -3.901  0.00  0.00    +0.280 C 
ATOM     28  O   UNL     1      -0.442  -1.954  -2.592  0.00  0.00    -0.465 OA
ENDBRANCH  25  28
ENDBRANCH   1  25
BRANCH  10  29
ATOM     29  C   UNL     1      -1.468  -1.115   2.548  0.00  0.00    +0.339 C 
ATOM     30  O   UNL     1      -2.056  -0.827   3.575  0.00  0.00    -0.245 OA
BRANCH  29  31
ATOM     31  O   UNL     1      -0.274  -1.744   2.607  0.00  0.00    -0.465 OA
ATOM     32  C   UNL     1       0.238  -2.042   3.907  0.00  0.00    +0.280 C 
ENDBRANCH  29  31
ENDBRANCH  10  29
TORSDOF 7
