REMARK  Name = ZINC12490932
REMARK  17 active torsions:
REMARK  status: ('A' for Active; 'I' for Inactive)
REMARK    1  A    between atoms: C_1  and  C_2
REMARK    2  A    between atoms: C_2  and  O_35
REMARK    3  A    between atoms: C_5  and  C_26
REMARK    4  A    between atoms: C_9  and  C_24
REMARK    5  A    between atoms: C_9  and  C_25
REMARK    6  A    between atoms: C_11  and  N_13
REMARK    7  A    between atoms: N_13  and  C_14
REMARK    8  A    between atoms: C_14  and  C_15
REMARK    9  A    between atoms: C_18  and  N_21
REMARK   10  A    between atoms: N_21  and  C_22
REMARK   11  A    between atoms: N_21  and  C_23
REMARK   12  A    between atoms: C_26  and  C_27
REMARK   13  A    between atoms: C_27  and  C_28
REMARK   14  A    between atoms: N_30  and  C_31
REMARK   15  A    between atoms: C_31  and  C_32
REMARK   16  A    between atoms: C_32  and  O_33
REMARK   17  A    between atoms: O_33  and  C_34
REMARK                            x       y       z     vdW  Elec       q    Type
REMARK                         _______ _______ _______ _____ _____    ______ ____
ROOT
ATOM      1  C   UNL     1       0.080   1.925  -0.047  0.00  0.00    +0.041 C 
ATOM      2  C   UNL     1       0.335   0.421  -0.171  0.00  0.00    +0.064 C 
ATOM      3  C   UNL     1      -0.993  -0.309  -0.399  0.00  0.00    +0.035 C 
ATOM      4  C   UNL     1      -0.698  -1.796  -0.595  0.00  0.00    +0.008 C 
ATOM      5  C   UNL     1       0.006  -2.379   0.608  0.00  0.00    -0.038 C 
ATOM      6  C   UNL     1       1.269  -1.595   1.008  0.00  0.00    +0.002 C 
ATOM      7  C   UNL     1       0.962  -0.100   1.120  0.00  0.00    +0.039 C 
ATOM      8  C   UNL     1       1.512  -2.108   2.459  0.00  0.00    -0.033 C 
ATOM      9  C   UNL     1       0.091  -2.212   3.057  0.00  0.00    -0.009 C 
ATOM     10  C   UNL     1      -0.874  -2.380   1.865  0.00  0.00    -0.064 C 
ATOM     11  C   UNL     1       2.356  -1.106   3.249  0.00  0.00    +0.011 C 
ATOM     12  C   UNL     1       2.186  -3.482   2.437  0.00  0.00    +0.011 C 
ENDROOT
BRANCH  10  13
ATOM     13  N   UNL     1      -1.598  -3.653   1.976  0.00  0.00    +0.384 N 
ATOM     14  H   UNL     1      -2.144  -3.803   1.141  0.00  0.00    -0.085 HD
ATOM     15  H   UNL     1      -0.937  -4.407   2.086  0.00  0.00    -0.085 HD
BRANCH  13  16
ATOM     16  C   UNL     1      -2.489  -3.609   3.143  0.00  0.00    -0.046 C 
BRANCH  16  17
ATOM     17  C   UNL     1      -3.233  -4.915   3.257  0.00  0.00    -0.064 A 
ATOM     18  C   UNL     1      -4.448  -5.075   2.617  0.00  0.00    +0.003 A 
ATOM     19  C   UNL     1      -5.132  -6.270   2.719  0.00  0.00    +0.023 A 
ATOM     20  C   UNL     1      -4.597  -7.313   3.465  0.00  0.00    +0.029 A 
ATOM     21  C   UNL     1      -3.376  -7.149   4.106  0.00  0.00    +0.023 A 
ATOM     22  C   UNL     1      -2.695  -5.953   3.996  0.00  0.00    +0.003 A 
BRANCH  20  23
ATOM     23  N   UNL     1      -5.287  -8.523   3.571  0.00  0.00    -0.336 N 
ATOM     24  C   UNL     1      -6.622  -8.660   2.983  0.00  0.00    +0.129 C 
ATOM     25  C   UNL     1      -4.674  -9.656   4.269  0.00  0.00    +0.129 C 
ENDBRANCH  20  23
ENDBRANCH  16  17
ENDBRANCH  13  16
ENDBRANCH  10  13
BRANCH   2  26
ATOM     26  O   UNL     1       1.217   0.173  -1.267  0.00  0.00    -0.389 OA
ATOM     27  H   UNL     1       0.878   0.474  -2.121  0.00  0.00    +0.210 HD
ENDBRANCH   2  26
BRANCH   5  28
ATOM     28  C   UNL     1       0.421  -3.818   0.293  0.00  0.00    +0.015 C 
BRANCH  28  29
ATOM     29  C   UNL     1       1.485  -3.813  -0.806  0.00  0.00    +0.096 C 
BRANCH  29  30
ATOM     30  C   UNL     1       1.862  -5.231  -1.147  0.00  0.00    +0.213 C 
ATOM     31  O   UNL     1       1.332  -6.156  -0.567  0.00  0.00    -0.276 OA
ATOM     32  N   UNL     1       2.789  -5.473  -2.095  0.00  0.00    -0.313 N 
ATOM     33  H   UNL     1       3.213  -4.734  -2.559  0.00  0.00    +0.149 HD
BRANCH  32  34
ATOM     34  C   UNL     1       3.155  -6.852  -2.427  0.00  0.00    +0.132 C 
BRANCH  34  35
ATOM     35  C   UNL     1       4.220  -6.847  -3.526  0.00  0.00    +0.178 C 
BRANCH  35  36
ATOM     36  O   UNL     1       5.417  -6.247  -3.027  0.00  0.00    -0.381 OA
ATOM     37  C   UNL     1       6.480  -6.192  -3.980  0.00  0.00    +0.194 C 
ENDBRANCH  35  36
ENDBRANCH  34  35
ENDBRANCH  32  34
ENDBRANCH  29  30
ENDBRANCH  28  29
ENDBRANCH   5  28
TORSDOF 11
