REMARK  Name = ZINC20239401
REMARK  11 active torsions:
REMARK  status: ('A' for Active; 'I' for Inactive)
REMARK    1  A    between atoms: C_1  and  C_2
REMARK    2  A    between atoms: C_3  and  S_17
REMARK    3  A    between atoms: C_4  and  C_7
REMARK    4  A    between atoms: C_8  and  C_9
REMARK    5  A    between atoms: C_12  and  O_15
REMARK    6  A    between atoms: O_15  and  C_16
REMARK    7  A    between atoms: S_17  and  N_20
REMARK    8  A    between atoms: C_23  and  C_26
REMARK    9  A    between atoms: N_28  and  C_29
REMARK   10  A    between atoms: C_34  and  C_39
REMARK   11  A    between atoms: C_36  and  C_38
REMARK                            x       y       z     vdW  Elec       q    Type
REMARK                         _______ _______ _______ _____ _____    ______ ____
ROOT
ATOM      1  S   UNL     1       3.998   3.476   0.455  0.00  0.00    +0.066 S 
ATOM      2  O   UNL     1       4.711   4.508   1.122  0.00  0.00    -0.153 OA
ATOM      3  O   UNL     1       4.023   2.125   0.895  0.00  0.00    -0.153 OA
ENDROOT
BRANCH   1   6
ATOM      4  C   UNL     1       2.558   6.550   0.651  0.00  0.00    +0.071 C 
ATOM      5  C   UNL     1       1.776   5.269   0.518  0.00  0.00    +0.107 A 
ATOM      6  C   UNL     1       2.306   3.967   0.432  0.00  0.00    +0.174 A 
ATOM      7  C   UNL     1       1.184   3.164   0.322  0.00  0.00    +0.187 A 
ATOM      8  O   UNL     1       0.128   3.999   0.357  0.00  0.00    -0.353 OA
ATOM      9  N   UNL     1       0.480   5.151   0.466  0.00  0.00    -0.081 NA
BRANCH   7  10
ATOM     10  C   UNL     1       1.151   1.704   0.198  0.00  0.00    +0.051 C 
ATOM     11  C   UNL     1      -0.016   1.074  -0.038  0.00  0.00    +0.011 C 
BRANCH  11  12
ATOM     12  C   UNL     1      -1.214   1.852  -0.392  0.00  0.00    -0.025 A 
ATOM     13  C   UNL     1      -2.443   1.562   0.210  0.00  0.00    +0.011 A 
ATOM     14  C   UNL     1      -3.560   2.296  -0.122  0.00  0.00    +0.046 A 
ATOM     15  C   UNL     1      -3.470   3.316  -1.061  0.00  0.00    +0.120 A 
ATOM     16  C   UNL     1      -2.253   3.605  -1.666  0.00  0.00    +0.046 A 
ATOM     17  C   UNL     1      -1.129   2.880  -1.337  0.00  0.00    +0.011 A 
BRANCH  15  18
ATOM     18  O   UNL     1      -4.575   4.034  -1.389  0.00  0.00    -0.495 OA
ATOM     19  C   UNL     1      -5.794   3.685  -0.730  0.00  0.00    +0.277 C 
ENDBRANCH  15  18
ENDBRANCH  11  12
ENDBRANCH   7  10
ENDBRANCH   1   6
BRANCH   1  20
ATOM     20  N   UNL     1       4.528   3.472  -1.114  0.00  0.00    -0.176 NA
ATOM     21  C   UNL     1       4.424   2.259  -1.936  0.00  0.00    +0.110 C 
ATOM     22  C   UNL     1       3.682   2.611  -3.235  0.00  0.00    +0.030 C 
ATOM     23  C   UNL     1       4.396   3.776  -3.923  0.00  0.00    +0.077 C 
ATOM     24  C   UNL     1       4.373   5.003  -3.008  0.00  0.00    +0.030 C 
ATOM     25  C   UNL     1       5.117   4.680  -1.708  0.00  0.00    +0.110 C 
BRANCH  23  26
ATOM     26  C   UNL     1       3.694   4.102  -5.216  0.00  0.00    +0.216 C 
ATOM     27  O   UNL     1       3.222   5.205  -5.389  0.00  0.00    -0.276 OA
ATOM     28  N   UNL     1       3.592   3.166  -6.181  0.00  0.00    -0.312 N 
ATOM     29  H   UNL     1       4.020   2.165  -6.024  0.00  0.00    +0.149 HD
BRANCH  28  30
ATOM     30  C   UNL     1       2.909   3.482  -7.438  0.00  0.00    +0.076 C 
ATOM     31  C   UNL     1       1.404   3.264  -7.271  0.00  0.00    +0.022 C 
ATOM     32  C   UNL     1       1.139   1.804  -6.900  0.00  0.00    +0.002 C 
ATOM     33  C   UNL     1       1.665   0.892  -8.009  0.00  0.00    +0.003 C 
ATOM     34  C   UNL     1       3.171   1.110  -8.177  0.00  0.00    -0.009 C 
ATOM     35  C   UNL     1       3.436   2.570  -8.548  0.00  0.00    +0.009 C 
ATOM     36  C   UNL     1       4.941   2.788  -8.716  0.00  0.00    +0.009 C 
ATOM     37  C   UNL     1       3.698   0.197  -9.286  0.00  0.00    +0.008 C 
ENDBRANCH  28  30
ENDBRANCH  23  26
ENDBRANCH   1  20
TORSDOF 7
