REMARK  Name = ZINC39664772
REMARK  11 active torsions:
REMARK  status: ('A' for Active; 'I' for Inactive)
REMARK    1  A    between atoms: C_1  and  C_2
REMARK    2  A    between atoms: C_2  and  S_3
REMARK    3  A    between atoms: S_3  and  C_4
REMARK    4  A    between atoms: C_5  and  C_10
REMARK    5  A    between atoms: C_14  and  C_23
REMARK    6  A    between atoms: N_25  and  C_26
REMARK    7  A    between atoms: C_26  and  C_28
REMARK    8  A    between atoms: C_26  and  C_32
REMARK    9  A    between atoms: C_28  and  N_29
REMARK   10  A    between atoms: N_29  and  C_30
REMARK   11  A    between atoms: N_29  and  C_31
REMARK                            x       y       z     vdW  Elec       q    Type
REMARK                         _______ _______ _______ _____ _____    ______ ____
ROOT
ATOM      1  C   UNL     1      -5.198  -3.066  -0.945  0.00  0.00    +0.249 C 
ATOM      2  O   UNL     1      -5.312  -1.855  -0.916  0.00  0.00    -0.270 OA
ATOM      3  N   UNL     1      -6.269  -3.850  -0.711  0.00  0.00    -0.296 N 
ATOM      4  C   UNL     1      -6.304  -5.327  -0.591  0.00  0.00    +0.121 C 
ATOM      5  C   UNL     1      -7.304  -5.601   0.554  0.00  0.00    +0.100 C 
ATOM      6  C   UNL     1      -8.203  -4.354   0.599  0.00  0.00    -0.004 C 
ATOM      7  C   UNL     1      -7.676  -3.429  -0.508  0.00  0.00    +0.115 C 
ATOM      8  C   UNL     1      -8.084  -3.665   1.955  0.00  0.00    -0.010 C 
ATOM      9  C   UNL     1      -9.029  -2.461   1.994  0.00  0.00    -0.082 C 
ATOM     10  N   UNL     1     -10.408  -2.912   1.771  0.00  0.00    +0.379 N 
ATOM     11  C   UNL     1     -10.535  -3.490   0.428  0.00  0.00    -0.082 C 
ATOM     12  C   UNL     1      -9.653  -4.737   0.322  0.00  0.00    -0.010 C 
ATOM     13  H   UNL     1     -10.648  -3.609   2.460  0.00  0.00    -0.086 HD
ATOM     14  H   UNL     1     -11.036  -2.126   1.859  0.00  0.00    -0.086 HD
ENDROOT
BRANCH   1  16
ATOM     15  C   UNL     1      -2.704  -3.102  -0.740  0.00  0.00    +0.109 A 
ATOM     16  C   UNL     1      -3.888  -3.675  -1.237  0.00  0.00    +0.069 A 
ATOM     17  C   UNL     1      -3.799  -4.836  -2.014  0.00  0.00    +0.017 A 
ATOM     18  C   UNL     1      -2.546  -5.369  -2.259  0.00  0.00    +0.020 A 
ATOM     19  C   UNL     1      -1.426  -4.748  -1.736  0.00  0.00    +0.112 A 
ATOM     20  N   UNL     1      -1.529  -3.652  -1.010  0.00  0.00    -0.248 NA
BRANCH  15  21
ATOM     21  S   UNL     1      -2.783  -1.640   0.241  0.00  0.00    -0.105 S 
BRANCH  21  23
ATOM     22  C   UNL     1      -0.972  -0.018   1.494  0.00  0.00    +0.015 C 
ATOM     23  C   UNL     1      -1.049  -1.281   0.634  0.00  0.00    +0.072 C 
ENDBRANCH  21  23
ENDBRANCH  15  21
ENDBRANCH   1  16
BRANCH   5  24
ATOM     24  C   UNL     1      -6.572  -5.770   1.861  0.00  0.00    +0.219 C 
ATOM     25  O   UNL     1      -5.541  -5.162   2.061  0.00  0.00    -0.275 OA
ATOM     26  N   UNL     1      -7.062  -6.595   2.807  0.00  0.00    -0.310 N 
ATOM     27  H   UNL     1      -7.925  -7.019   2.680  0.00  0.00    +0.149 HD
BRANCH  26  28
ATOM     28  C   UNL     1      -6.291  -6.852   4.026  0.00  0.00    +0.087 C 
BRANCH  28  29
ATOM     29  C   UNL     1      -6.385  -8.313   4.381  0.00  0.00    -0.029 A 
ATOM     30  C   UNL     1      -7.584  -8.985   4.231  0.00  0.00    +0.005 A 
ATOM     31  C   UNL     1      -7.671 -10.326   4.557  0.00  0.00    +0.000 A 
ATOM     32  C   UNL     1      -6.558 -10.995   5.032  0.00  0.00    +0.000 A 
ATOM     33  C   UNL     1      -5.359 -10.323   5.181  0.00  0.00    +0.000 A 
ATOM     34  C   UNL     1      -5.271  -8.984   4.851  0.00  0.00    +0.005 A 
ENDBRANCH  28  29
BRANCH  28  35
ATOM     35  C   UNL     1      -6.855  -6.011   5.173  0.00  0.00    -0.052 C 
BRANCH  35  36
ATOM     36  N   UNL     1      -6.749  -4.586   4.833  0.00  0.00    +0.377 N 
ATOM     37  C   UNL     1      -7.420  -3.785   5.865  0.00  0.00    -0.097 C 
ATOM     38  C   UNL     1      -5.332  -4.204   4.761  0.00  0.00    -0.097 C 
ATOM     39  H   UNL     1      -7.188  -4.419   3.940  0.00  0.00    -0.083 HD
ENDBRANCH  35  36
ENDBRANCH  28  35
ENDBRANCH  26  28
ENDBRANCH   5  24
TORSDOF 8
