REMARK  Name = ZINC16823361
REMARK  9 active torsions:
REMARK  status: ('A' for Active; 'I' for Inactive)
REMARK    1  A    between atoms: C_1  and  C_2
REMARK    2  A    between atoms: C_2  and  C_4
REMARK    3  A    between atoms: C_2  and  N_27
REMARK    4  A    between atoms: C_4  and  O_6
REMARK    5  A    between atoms: O_6  and  C_7
REMARK    6  A    between atoms: C_7  and  C_9
REMARK    7  A    between atoms: C_7  and  C_10
REMARK    8  A    between atoms: C_21  and  C_23
REMARK    9  A    between atoms: C_28  and  C_30
REMARK                            x       y       z     vdW  Elec       q    Type
REMARK                         _______ _______ _______ _____ _____    ______ ____
ROOT
ATOM      1  C   UNL     1      -0.014   1.209   0.009  0.00  0.00    +0.261 C 
ATOM      2  O   UNL     1       0.002  -0.004   0.002  0.00  0.00    -0.271 OA
ATOM      3  N   UNL     1      -1.191   1.867   0.018  0.00  0.00    -0.258 N 
ATOM      4  C   UNL     1      -1.238   3.337   0.026  0.00  0.00    +0.209 C 
ATOM      5  C   UNL     1      -2.309   3.788   0.986  0.00  0.00    +0.235 C 
ATOM      6  O   UNL     1      -2.197   4.857   1.548  0.00  0.00    -0.274 OA
ATOM      7  N   UNL     1      -3.389   3.021   1.225  0.00  0.00    -0.283 N 
ATOM      8  C   UNL     1      -3.518   1.762   0.628  0.00  0.00    +0.056 A 
ATOM      9  C   UNL     1      -2.410   1.171   0.014  0.00  0.00    +0.058 A 
ATOM     10  C   UNL     1      -2.522  -0.076  -0.569  0.00  0.00    +0.026 A 
ATOM     11  C   UNL     1      -3.738  -0.735  -0.554  0.00  0.00    +0.014 A 
ATOM     12  C   UNL     1      -4.839  -0.150   0.045  0.00  0.00    +0.057 A 
ATOM     13  C   UNL     1      -4.733   1.096   0.636  0.00  0.00    +0.037 A 
ATOM     14  H   UNL     1      -4.084   3.344   1.819  0.00  0.00    +0.155 HD
ENDROOT
BRANCH  12  15
ATOM     15  C   UNL     1      -6.160  -0.874   0.053  0.00  0.00    +0.417 C 
ATOM     16  F   UNL     1      -6.889  -0.527  -1.090  0.00  0.00    -0.166 F 
ATOM     17  F   UNL     1      -5.936  -2.254   0.062  0.00  0.00    -0.166 F 
ATOM     18  F   UNL     1      -6.883  -0.511   1.195  0.00  0.00    -0.166 F 
ENDBRANCH  12  15
BRANCH   1  19
ATOM     19  C   UNL     1       1.280   1.980   0.001  0.00  0.00    +0.259 C 
ATOM     20  C   UNL     1       1.394   2.772  -1.304  0.00  0.00    +0.062 C 
BRANCH  19  21
ATOM     21  O   UNL     1       2.395   1.055   0.104  0.00  0.00    -0.451 OA
BRANCH  21  22
ATOM     22  C   UNL     1       3.505   1.504   0.712  0.00  0.00    +0.328 C 
ATOM     23  O   UNL     1       3.543   2.632   1.143  0.00  0.00    -0.249 OA
BRANCH  22  25
ATOM     24  C   UNL     1       4.313  -0.637   1.666  0.00  0.00    +0.040 C 
ATOM     25  C   UNL     1       4.702   0.601   0.856  0.00  0.00    +0.179 C 
BRANCH  25  26
ATOM     26  N   UNL     1       5.775   1.320   1.549  0.00  0.00    -0.296 N 
ATOM     27  C   UNL     1       7.059   0.954   1.365  0.00  0.00    +0.280 C 
ATOM     28  O   UNL     1       7.327   0.027   0.623  0.00  0.00    -0.267 OA
ATOM     29  H   UNL     1       5.561   2.059   2.139  0.00  0.00    +0.150 HD
BRANCH  27  30
ATOM     30  C   UNL     1       8.133   1.674   2.058  0.00  0.00    +0.189 A 
ATOM     31  C   UNL     1       9.469   1.408   1.961  0.00  0.00    +0.054 A 
ATOM     32  C   UNL     1      10.125   2.335   2.786  0.00  0.00    +0.042 A 
ATOM     33  C   UNL     1       9.173   3.116   3.343  0.00  0.00    +0.196 A 
ATOM     34  O   UNL     1       7.974   2.717   2.897  0.00  0.00    -0.458 OA
ENDBRANCH  27  30
ENDBRANCH  25  26
ENDBRANCH  22  25
ENDBRANCH  21  22
ENDBRANCH  19  21
ENDBRANCH   1  19
TORSDOF 7
