REMARK  Name = ZINC39664589
REMARK  9 active torsions:
REMARK  status: ('A' for Active; 'I' for Inactive)
REMARK    1  A    between atoms: C_1  and  N_2
REMARK    2  A    between atoms: N_2  and  C_3
REMARK    3  A    between atoms: N_2  and  C_4
REMARK    4  A    between atoms: C_4  and  C_5
REMARK    5  A    between atoms: C_5  and  C_7
REMARK    6  A    between atoms: C_5  and  N_13
REMARK    7  A    between atoms: C_14  and  C_16
REMARK    8  A    between atoms: C_27  and  C_29
REMARK    9  A    between atoms: C_34  and  C_35
REMARK                            x       y       z     vdW  Elec       q    Type
REMARK                         _______ _______ _______ _____ _____    ______ ____
ROOT
ATOM      1  C   UNL     1       1.107  -2.913  -1.888  0.00  0.00    +0.100 C 
ATOM      2  C   UNL     1       0.871  -1.976  -3.094  0.00  0.00    +0.121 C 
ATOM      3  N   UNL     1       2.184  -1.331  -3.330  0.00  0.00    -0.296 N 
ATOM      4  C   UNL     1       3.172  -2.413  -3.106  0.00  0.00    +0.115 C 
ATOM      5  C   UNL     1       2.618  -3.200  -1.902  0.00  0.00    -0.004 C 
ATOM      6  C   UNL     1       2.870  -4.694  -2.086  0.00  0.00    -0.010 C 
ATOM      7  C   UNL     1       4.377  -4.963  -2.038  0.00  0.00    -0.082 C 
ATOM      8  N   UNL     1       4.915  -4.510  -0.750  0.00  0.00    +0.379 N 
ATOM      9  C   UNL     1       4.753  -3.057  -0.621  0.00  0.00    -0.082 C 
ATOM     10  C   UNL     1       3.262  -2.708  -0.610  0.00  0.00    -0.010 C 
ATOM     11  C   UNL     1       2.425  -0.050  -3.672  0.00  0.00    +0.247 C 
ATOM     12  O   UNL     1       3.557   0.306  -3.936  0.00  0.00    -0.270 OA
ATOM     13  H   UNL     1       4.421  -4.970   0.000  0.00  0.00    -0.086 HD
ATOM     14  H   UNL     1       5.896  -4.744  -0.696  0.00  0.00    -0.086 HD
ENDROOT
BRANCH  11  15
ATOM     15  C   UNL     1       1.313   0.923  -3.725  0.00  0.00    +0.049 A 
ATOM     16  C   UNL     1       0.071   0.541  -4.233  0.00  0.00    +0.013 A 
ATOM     17  C   UNL     1      -0.963   1.453  -4.280  0.00  0.00    +0.001 A 
ATOM     18  C   UNL     1      -0.769   2.746  -3.825  0.00  0.00    +0.001 A 
ATOM     19  C   UNL     1       0.459   3.131  -3.320  0.00  0.00    +0.013 A 
ATOM     20  C   UNL     1       1.500   2.227  -3.262  0.00  0.00    +0.067 A 
BRANCH  20  21
ATOM     21  C   UNL     1       2.836   2.647  -2.706  0.00  0.00    +0.418 C 
ATOM     22  F   UNL     1       2.776   3.987  -2.310  0.00  0.00    -0.166 F 
ATOM     23  F   UNL     1       3.154   1.848  -1.602  0.00  0.00    -0.166 F 
ATOM     24  F   UNL     1       3.819   2.495  -3.690  0.00  0.00    -0.166 F 
ENDBRANCH  20  21
ENDBRANCH  11  15
BRANCH   1  26
ATOM     25  N   UNL     1       0.417  -2.957   0.487  0.00  0.00    -0.310 N 
ATOM     26  C   UNL     1       0.716  -2.226  -0.605  0.00  0.00    +0.219 C 
ATOM     27  O   UNL     1       0.669  -1.015  -0.555  0.00  0.00    -0.275 OA
ATOM     28  H   UNL     1       0.533  -3.920   0.472  0.00  0.00    +0.149 HD
BRANCH  25  29
ATOM     29  C   UNL     1      -0.082  -2.298   1.696  0.00  0.00    +0.087 C 
BRANCH  29  30
ATOM     30  C   UNL     1       0.397  -3.049   2.912  0.00  0.00    -0.029 A 
ATOM     31  C   UNL     1       0.424  -4.431   2.904  0.00  0.00    +0.005 A 
ATOM     32  C   UNL     1       0.863  -5.120   4.019  0.00  0.00    +0.000 A 
ATOM     33  C   UNL     1       1.275  -4.427   5.142  0.00  0.00    +0.000 A 
ATOM     34  C   UNL     1       1.249  -3.045   5.149  0.00  0.00    +0.000 A 
ATOM     35  C   UNL     1       0.814  -2.356   4.032  0.00  0.00    +0.005 A 
ENDBRANCH  29  30
BRANCH  29  36
ATOM     36  C   UNL     1      -1.612  -2.284   1.675  0.00  0.00    -0.052 C 
BRANCH  36  38
ATOM     37  C   UNL     1      -3.535  -1.720   0.357  0.00  0.00    -0.097 C 
ATOM     38  N   UNL     1      -2.079  -1.573   0.477  0.00  0.00    +0.377 N 
ATOM     39  C   UNL     1      -1.738  -0.148   0.590  0.00  0.00    -0.097 C 
ATOM     40  H   UNL     1      -1.633  -1.962  -0.340  0.00  0.00    -0.083 HD
ENDBRANCH  36  38
ENDBRANCH  29  36
ENDBRANCH  25  29
ENDBRANCH   1  26
TORSDOF 7
