REMARK  Name = ZINC14478636
REMARK  3 active torsions:
REMARK  status: ('A' for Active; 'I' for Inactive)
REMARK    1  A    between atoms: C_1  and  C_2
REMARK    2  A    between atoms: C_7  and  C_8
REMARK    3  A    between atoms: C_18  and  N_25
REMARK                            x       y       z     vdW  Elec       q    Type
REMARK                         _______ _______ _______ _____ _____    ______ ____
ROOT
ATOM      1  C   UNL     1      -2.510   3.938   0.138  0.00  0.00    +0.105 C 
ATOM      2  C   UNL     1      -2.689   4.516   1.543  0.00  0.00    +0.029 C 
ATOM      3  C   UNL     1      -1.389   5.285   1.911  0.00  0.00    +0.033 C 
ATOM      4  C   UNL     1      -0.456   4.193   2.396  0.00  0.00    -0.030 C 
ATOM      5  C   UNL     1      -1.135   3.136   2.764  0.00  0.00    -0.023 C 
ATOM      6  C   UNL     1      -2.617   3.368   2.571  0.00  0.00    +0.051 C 
ATOM      7  C   UNL     1      -3.283   2.125   2.058  0.00  0.00    +0.014 A 
ATOM      8  C   UNL     1      -3.433   1.058   2.934  0.00  0.00    +0.132 A 
ATOM      9  C   UNL     1      -4.034  -0.113   2.521  0.00  0.00    +0.036 A 
ATOM     10  C   UNL     1      -4.495  -0.233   1.222  0.00  0.00    +0.042 A 
ATOM     11  C   UNL     1      -4.353   0.822   0.344  0.00  0.00    +0.145 A 
ATOM     12  C   UNL     1      -3.745   2.008   0.760  0.00  0.00    +0.069 A 
ATOM     13  N   UNL     1      -3.627   3.044  -0.169  0.00  0.00    -0.334 N 
ATOM     14  F   UNL     1      -4.804   0.706  -0.924  0.00  0.00    -0.204 F 
ATOM     15  H   UNL     1      -3.553   2.682  -1.107  0.00  0.00    +0.147 HD
ENDROOT
BRANCH   1  22
ATOM     16  C   UNL     1      -0.132   5.189  -0.924  0.00  0.00    +0.044 C 
ATOM     17  C   UNL     1      -0.079   3.764  -0.434  0.00  0.00    -0.045 A 
ATOM     18  C   UNL     1       1.107   3.057  -0.492  0.00  0.00    +0.004 A 
ATOM     19  C   UNL     1       1.155   1.750  -0.043  0.00  0.00    +0.000 A 
ATOM     20  C   UNL     1       0.017   1.152   0.465  0.00  0.00    +0.000 A 
ATOM     21  C   UNL     1      -1.170   1.858   0.518  0.00  0.00    +0.006 A 
ATOM     22  C   UNL     1      -1.217   3.166   0.074  0.00  0.00    -0.024 A 
ENDBRANCH   1  22
BRANCH   8  23
ATOM     23  N   UNL     1      -2.942   1.177   4.326  0.00  0.00    +0.057 N 
ATOM     24  O   UNL     1      -3.070   0.245   5.099  0.00  0.00    -0.126 OA
ATOM     25  O   UNL     1      -2.410   2.208   4.697  0.00  0.00    -0.126 OA
ENDBRANCH   8  23
TORSDOF 2
