REMARK  Name = ZINC04306578
REMARK  7 active torsions:
REMARK  status: ('A' for Active; 'I' for Inactive)
REMARK    1  A    between atoms: C_1  and  C_2
REMARK    2  A    between atoms: C_13  and  C_19
REMARK    3  A    between atoms: N_17  and  C_18
REMARK    4  A    between atoms: N_21  and  C_22
REMARK    5  A    between atoms: C_22  and  C_23
REMARK    6  A    between atoms: C_22  and  C_24
REMARK    7  A    between atoms: C_22  and  C_25
REMARK                            x       y       z     vdW  Elec       q    Type
REMARK                         _______ _______ _______ _____ _____    ______ ____
ROOT
ATOM      1  C   UNL     1      -0.019   1.526   0.010  0.00  0.00    +0.078 C 
ATOM      2  C   UNL     1       0.002  -0.004   0.002  0.00  0.00    +0.178 C 
ATOM      3  C   UNL     1       0.756  -0.502  -1.238  0.00  0.00    +0.078 C 
ATOM      4  C   UNL     1       0.617  -2.030  -1.276  0.00  0.00    +0.049 C 
ATOM      5  C   UNL     1       0.971  -2.603   0.073  0.00  0.00    -0.001 A 
ATOM      6  C   UNL     1       1.272  -3.952   0.166  0.00  0.00    +0.007 A 
ATOM      7  C   UNL     1       1.601  -4.511   1.385  0.00  0.00    +0.001 A 
ATOM      8  C   UNL     1       1.629  -3.723   2.521  0.00  0.00    +0.004 A 
ATOM      9  C   UNL     1       1.330  -2.379   2.435  0.00  0.00    +0.046 A 
ATOM     10  C   UNL     1       1.000  -1.812   1.208  0.00  0.00    +0.127 A 
ATOM     11  O   UNL     1       0.694  -0.482   1.161  0.00  0.00    -0.468 OA
ATOM     12  C   UNL     1      -0.843  -2.363  -1.608  0.00  0.00    +0.168 C 
ATOM     13  C   UNL     1      -1.755  -1.587  -0.701  0.00  0.00    +0.231 C 
ATOM     14  O   UNL     1      -2.910  -1.944  -0.604  0.00  0.00    -0.275 OA
ATOM     15  N   UNL     1      -1.365  -0.513   0.010  0.00  0.00    -0.266 N 
ATOM     16  C   UNL     1      -2.353   0.187   0.834  0.00  0.00    +0.136 C 
ENDROOT
BRANCH  12  17
ATOM     17  C   UNL     1      -1.128  -1.994  -3.042  0.00  0.00    +0.226 C 
ATOM     18  O   UNL     1      -0.252  -1.513  -3.729  0.00  0.00    -0.275 OA
ATOM     19  N   UNL     1      -2.355  -2.199  -3.559  0.00  0.00    -0.310 N 
ATOM     20  H   UNL     1      -3.055  -2.583  -3.008  0.00  0.00    +0.149 HD
BRANCH  19  21
ATOM     21  C   UNL     1      -2.632  -1.840  -4.952  0.00  0.00    +0.026 C 
ATOM     22  C   UNL     1      -1.705  -2.632  -5.876  0.00  0.00    +0.031 C 
ATOM     23  C   UNL     1      -4.089  -2.172  -5.284  0.00  0.00    +0.031 C 
ATOM     24  C   UNL     1      -2.393  -0.342  -5.150  0.00  0.00    +0.031 C 
ENDBRANCH  19  21
ENDBRANCH  12  17
TORSDOF 2
