REMARK  Name = ZINC09060391
REMARK  6 active torsions:
REMARK  status: ('A' for Active; 'I' for Inactive)
REMARK    1  A    between atoms: C_1  and  C_2
REMARK    2  A    between atoms: N_11  and  C_26
REMARK    3  A    between atoms: N_14  and  C_17
REMARK    4  A    between atoms: C_17  and  C_18
REMARK    5  A    between atoms: C_18  and  C_19
REMARK    6  A    between atoms: C_19  and  C_20
REMARK                            x       y       z     vdW  Elec       q    Type
REMARK                         _______ _______ _______ _____ _____    ______ ____
ROOT
ATOM      1  C   UNL     1      -0.018   1.503   0.010  0.00  0.00    +0.065 C 
ATOM      2  C   UNL     1       0.002  -0.004   0.002  0.00  0.00    +0.032 A 
ATOM      3  C   UNL     1      -0.003  -0.778  -1.079  0.00  0.00    +0.115 A 
ATOM      4  N   UNL     1       0.024  -2.099  -0.668  0.00  0.00    -0.278 N 
ATOM      5  C   UNL     1       0.037  -3.419  -1.094  0.00  0.00    +0.157 A 
ATOM      6  C   UNL     1       0.058  -4.203   0.059  0.00  0.00    +0.170 A 
ATOM      7  N   UNL     1       0.057  -3.378   1.103  0.00  0.00    -0.194 NA
ATOM      8  C   UNL     1       0.037  -2.120   0.685  0.00  0.00    +0.215 A 
ATOM      9  N   UNL     1       0.023  -0.821   1.117  0.00  0.00    -0.328 N 
ATOM     10  H   UNL     1       0.028  -0.526   2.041  0.00  0.00    +0.168 HD
ATOM     11  N   UNL     1       0.076  -5.583  -0.073  0.00  0.00    -0.279 N 
ATOM     12  C   UNL     1       0.071  -6.143  -1.297  0.00  0.00    +0.333 A 
ATOM     13  O   UNL     1       0.086  -7.355  -1.395  0.00  0.00    -0.246 OA
ATOM     14  N   UNL     1       0.051  -5.396  -2.414  0.00  0.00    -0.259 N 
ATOM     15  C   UNL     1       0.034  -4.048  -2.350  0.00  0.00    +0.283 A 
ATOM     16  O   UNL     1       0.015  -3.384  -3.371  0.00  0.00    -0.265 OA
ATOM     17  C   UNL     1       0.099  -6.432   1.121  0.00  0.00    +0.155 C 
ENDROOT
BRANCH  14  18
ATOM     18  C   UNL     1       0.047  -6.055  -3.723  0.00  0.00    +0.130 C 
BRANCH  18  19
ATOM     19  C   UNL     1       1.488  -6.265  -4.192  0.00  0.00    +0.026 C 
BRANCH  19  20
ATOM     20  C   UNL     1       1.484  -6.954  -5.558  0.00  0.00    +0.037 C 
BRANCH  20  21
ATOM     21  C   UNL     1       2.903  -7.161  -6.020  0.00  0.00    -0.047 A 
ATOM     22  C   UNL     1       3.533  -6.190  -6.775  0.00  0.00    +0.003 A 
ATOM     23  C   UNL     1       4.837  -6.378  -7.195  0.00  0.00    +0.000 A 
ATOM     24  C   UNL     1       5.507  -7.542  -6.868  0.00  0.00    +0.000 A 
ATOM     25  C   UNL     1       4.875  -8.516  -6.118  0.00  0.00    +0.000 A 
ATOM     26  C   UNL     1       3.573  -8.325  -5.694  0.00  0.00    +0.003 A 
ENDBRANCH  20  21
ENDBRANCH  19  20
ENDBRANCH  18  19
ENDBRANCH  14  18
TORSDOF 4
