REMARK  Name = ZINC43640133
REMARK  6 active torsions:
REMARK  status: ('A' for Active; 'I' for Inactive)
REMARK    1  A    between atoms: C_1  and  C_2
REMARK    2  A    between atoms: C_2  and  C_3
REMARK    3  A    between atoms: C_6  and  C_8
REMARK    4  A    between atoms: C_9  and  C_15
REMARK    5  A    between atoms: C_10  and  N_14
REMARK    6  A    between atoms: N_11  and  C_13
REMARK                            x       y       z     vdW  Elec       q    Type
REMARK                         _______ _______ _______ _____ _____    ______ ____
ROOT
ATOM      1  C   UNL     1       1.745  -1.798  -5.049  0.00  0.00    +0.109 A 
ATOM      2  C   UNL     1       0.837  -2.570  -5.819  0.00  0.00    +0.049 A 
ATOM      3  C   UNL     1       1.417  -2.767  -7.058  0.00  0.00    +0.122 A 
ATOM      4  N   UNL     1       2.624  -2.145  -7.046  0.00  0.00    -0.253 N 
ATOM      5  N   UNL     1       2.801  -1.548  -5.793  0.00  0.00    -0.169 NA
ATOM      6  C   UNL     1       3.576  -2.101  -8.158  0.00  0.00    +0.174 C 
ENDROOT
BRANCH   2   7
ATOM      7  C   UNL     1      -0.485  -3.071  -5.378  0.00  0.00    -0.012 A 
ATOM      8  C   UNL     1      -0.571  -4.003  -4.344  0.00  0.00    +0.011 A 
ATOM      9  C   UNL     1      -1.805  -4.466  -3.936  0.00  0.00    +0.039 A 
ATOM     10  C   UNL     1      -2.958  -4.007  -4.552  0.00  0.00    +0.123 A 
ATOM     11  C   UNL     1      -2.878  -3.081  -5.579  0.00  0.00    +0.039 A 
ATOM     12  C   UNL     1      -1.649  -2.607  -5.990  0.00  0.00    +0.011 A 
ATOM     13  F   UNL     1      -4.164  -4.464  -4.150  0.00  0.00    -0.205 F 
ENDBRANCH   2   7
BRANCH   1  17
ATOM     14  C   UNL     1       0.707  -0.490  -1.238  0.00  0.00    -0.010 A 
ATOM     15  C   UNL     1       2.025  -0.761  -1.419  0.00  0.00    +0.012 A 
ATOM     16  C   UNL     1       2.457  -1.200  -2.652  0.00  0.00    +0.018 A 
ATOM     17  C   UNL     1       1.538  -1.348  -3.656  0.00  0.00    +0.040 A 
ATOM     18  S   UNL     1       0.024  -0.865  -2.844  0.00  0.00    -0.092 S 
BRANCH  14  20
ATOM     19  C   UNL     1      -0.019   1.526   0.010  0.00  0.00    +0.009 C 
ATOM     20  C   UNL     1       0.002  -0.004   0.002  0.00  0.00    +0.039 C 
ENDBRANCH  14  20
ENDBRANCH   1  17
BRANCH   3  21
ATOM     21  N   UNL     1       0.867  -3.472  -8.120  0.00  0.00    -0.343 N 
ATOM     22  H   UNL     1      -0.007  -3.883  -8.028  0.00  0.00    +0.144 HD
ATOM     23  H   UNL     1       1.356  -3.554  -8.954  0.00  0.00    +0.144 HD
ENDBRANCH   3  21
TORSDOF 4
