REMARK  Name = ZINC19078259
REMARK  4 active torsions:
REMARK  status: ('A' for Active; 'I' for Inactive)
REMARK    1  A    between atoms: C_5  and  N_7
REMARK    2  A    between atoms: C_8  and  C_10
REMARK    3  A    between atoms: C_10  and  S_11
REMARK    4  A    between atoms: S_11  and  C_12
REMARK                            x       y       z     vdW  Elec       q    Type
REMARK                         _______ _______ _______ _____ _____    ______ ____
ROOT
ATOM      1  C   UNL     1       1.534   1.358  -0.108  0.00  0.00    +0.191 A 
ATOM      2  N   UNL     1       0.386   0.690  -0.103  0.00  0.00    -0.207 NA
ATOM      3  C   UNL     1       0.341  -0.631  -0.113  0.00  0.00    +0.129 A 
ATOM      4  C   UNL     1       1.559  -1.368  -0.129  0.00  0.00    +0.051 A 
ATOM      5  C   UNL     1       1.750  -2.821  -0.142  0.00  0.00    -0.025 A 
ATOM      6  C   UNL     1       3.020  -3.271  -0.157  0.00  0.00    -0.004 A 
ATOM      7  S   UNL     1       4.027  -1.812  -0.157  0.00  0.00    -0.073 S 
ATOM      8  C   UNL     1       2.737  -0.596  -0.135  0.00  0.00    +0.115 A 
ATOM      9  N   UNL     1       2.699   0.723  -0.124  0.00  0.00    -0.214 NA
ATOM     10  C   UNL     1       3.478  -4.697  -0.172  0.00  0.00    +0.043 C 
ATOM     11  C   UNL     1       2.289  -5.592   0.209  0.00  0.00    +0.005 C 
ATOM     12  C   UNL     1       1.070  -5.164  -0.614  0.00  0.00    +0.005 C 
ATOM     13  C   UNL     1       0.577  -3.797  -0.139  0.00  0.00    +0.037 C 
ATOM     14  N   UNL     1      -0.875  -1.290  -0.107  0.00  0.00    -0.343 N 
ATOM     15  H   UNL     1      -1.669  -0.845  -0.443  0.00  0.00    +0.144 HD
ATOM     16  H   UNL     1      -0.934  -2.196   0.233  0.00  0.00    +0.144 HD
ENDROOT
BRANCH   1  17
ATOM     17  S   UNL     1       1.510   3.120  -0.094  0.00  0.00    -0.077 S 
BRANCH  17  18
ATOM     18  C   UNL     1      -0.277   3.409  -0.075  0.00  0.00    +0.173 C 
BRANCH  18  20
ATOM     19  N   UNL     1      -1.814   5.347  -0.045  0.00  0.00    -0.283 N 
ATOM     20  C   UNL     1      -0.545   4.892  -0.061  0.00  0.00    +0.228 C 
ATOM     21  O   UNL     1       0.380   5.676  -0.063  0.00  0.00    -0.275 OA
ATOM     22  H   UNL     1      -2.552   4.723   0.040  0.00  0.00    +0.155 HD
BRANCH  19  27
ATOM     23  C   UNL     1      -1.484   8.870  -1.045  0.00  0.00    +0.004 A 
ATOM     24  C   UNL     1      -2.514   9.482  -0.412  0.00  0.00    +0.031 A 
ATOM     25  C   UNL     1      -3.398   8.730   0.405  0.00  0.00    +0.102 A 
ATOM     26  C   UNL     1      -3.171   7.294   0.538  0.00  0.00    +0.121 A 
ATOM     27  C   UNL     1      -2.066   6.716  -0.152  0.00  0.00    +0.062 A 
ATOM     28  C   UNL     1      -1.260   7.500  -0.918  0.00  0.00    +0.025 A 
ATOM     29  N   UNL     1      -4.074   6.716   1.325  0.00  0.00    -0.189 NA
ATOM     30  S   UNL     1      -5.041   7.856   1.794  0.00  0.00    +0.117 S 
ATOM     31  N   UNL     1      -4.456   9.135   1.104  0.00  0.00    -0.191 NA
ENDBRANCH  19  27
ENDBRANCH  18  20
ENDBRANCH  17  18
ENDBRANCH   1  17
TORSDOF 4
