REMARK  Name = ZINC56227038
REMARK  3 active torsions:
REMARK  status: ('A' for Active; 'I' for Inactive)
REMARK    1  A    between atoms: C_1  and  N_2
REMARK    2  A    between atoms: N_2  and  C_3
REMARK    3  A    between atoms: C_11  and  C_13
REMARK                            x       y       z     vdW  Elec       q    Type
REMARK                         _______ _______ _______ _____ _____    ______ ____
ROOT
ATOM      1  C   UNL     1      -1.163   1.157  -0.103  0.00  0.00    +0.138 C 
ATOM      2  N   UNL     1      -0.554  -0.175  -0.082  0.00  0.00    -0.270 N 
ATOM      3  C   UNL     1      -0.144  -0.747  -1.232  0.00  0.00    +0.251 C 
ATOM      4  O   UNL     1       0.255  -1.896  -1.231  0.00  0.00    -0.270 OA
ENDROOT
BRANCH   3   5
ATOM      5  C   UNL     1      -0.180   0.021  -2.491  0.00  0.00    +0.039 A 
ATOM      6  C   UNL     1      -0.142   1.417  -2.461  0.00  0.00    +0.017 A 
ATOM      7  C   UNL     1      -0.175   2.136  -3.637  0.00  0.00    +0.048 A 
ATOM      8  C   UNL     1      -0.246   1.474  -4.854  0.00  0.00    +0.142 A 
ATOM      9  C   UNL     1      -0.285   0.078  -4.891  0.00  0.00    +0.076 A 
ATOM     10  C   UNL     1      -0.246  -0.648  -3.717  0.00  0.00    +0.040 A 
ATOM     11  N   UNL     1      -0.359  -0.572  -6.132  0.00  0.00    -0.280 N 
ATOM     12  C   UNL     1      -0.074   0.124  -7.254  0.00  0.00    +0.255 C 
ATOM     13  O   UNL     1      -0.160  -0.409  -8.340  0.00  0.00    -0.272 OA
ATOM     14  C   UNL     1       0.351   1.567  -7.150  0.00  0.00    +0.325 C 
ATOM     15  O   UNL     1      -0.278   2.173  -6.018  0.00  0.00    -0.481 OA
ATOM     16  H   UNL     1      -0.611  -1.507  -6.184  0.00  0.00    +0.155 HD
ENDBRANCH   3   5
BRANCH   2  17
ATOM     17  C   UNL     1      -0.397  -0.855   1.132  0.00  0.00    +0.039 A 
ATOM     18  C   UNL     1       0.326  -2.039   1.177  0.00  0.00    +0.026 A 
ATOM     19  C   UNL     1       0.480  -2.709   2.376  0.00  0.00    +0.043 A 
ATOM     20  C   UNL     1      -0.086  -2.200   3.532  0.00  0.00    +0.159 A 
ATOM     21  C   UNL     1      -0.808  -1.017   3.490  0.00  0.00    +0.160 A 
ATOM     22  C   UNL     1      -0.960  -0.341   2.293  0.00  0.00    +0.064 A 
ATOM     23  F   UNL     1      -1.359  -0.522   4.620  0.00  0.00    -0.202 F 
ATOM     24  F   UNL     1       0.066  -2.857   4.703  0.00  0.00    -0.202 F 
ENDBRANCH   2  17
TORSDOF 2
