REMARK  Name = ZINC56935839
REMARK  7 active torsions:
REMARK  status: ('A' for Active; 'I' for Inactive)
REMARK    1  A    between atoms: C_1  and  C_2
REMARK    2  A    between atoms: C_3  and  N_14
REMARK    3  A    between atoms: C_4  and  C_13
REMARK    4  A    between atoms: N_5  and  C_7
REMARK    5  A    between atoms: C_20  and  C_22
REMARK    6  A    between atoms: C_22  and  C_23
REMARK    7  A    between atoms: C_22  and  C_29
REMARK                            x       y       z     vdW  Elec       q    Type
REMARK                         _______ _______ _______ _____ _____    ______ ____
ROOT
ATOM      1  N   UNL     1      -1.584   0.698  -2.452  0.00  0.00    -0.324 N 
ATOM      2  C   UNL     1      -2.552   1.143  -3.465  0.00  0.00    +0.124 C 
ATOM      3  C   UNL     1      -2.080   2.485  -4.037  0.00  0.00    +0.126 C 
ATOM      4  N   UNL     1      -0.665   2.364  -4.415  0.00  0.00    -0.298 N 
ATOM      5  C   UNL     1       0.302   1.919  -3.402  0.00  0.00    +0.126 C 
ATOM      6  C   UNL     1      -0.169   0.582  -2.829  0.00  0.00    +0.124 C 
ATOM      7  C   UNL     1      -0.263   2.654  -5.668  0.00  0.00    +0.227 C 
ATOM      8  O   UNL     1      -1.070   3.020  -6.495  0.00  0.00    -0.275 OA
ENDROOT
BRANCH   1  11
ATOM      9  C   UNL     1      -1.728   2.759  -0.122  0.00  0.00    +0.069 C 
ATOM     10  C   UNL     1      -2.083   1.296  -0.071  0.00  0.00    +0.082 A 
ATOM     11  C   UNL     1      -2.005   0.395  -1.144  0.00  0.00    +0.074 A 
ATOM     12  C   UNL     1      -2.409  -0.821  -0.696  0.00  0.00    +0.063 A 
ATOM     13  N   UNL     1      -2.730  -0.688   0.621  0.00  0.00    -0.235 N 
ATOM     14  N   UNL     1      -2.510   0.648   0.983  0.00  0.00    -0.170 NA
ATOM     15  C   UNL     1      -2.486  -2.089  -1.508  0.00  0.00    +0.067 C 
BRANCH  13  16
ATOM     16  C   UNL     1      -3.194  -1.706   1.465  0.00  0.00    +0.066 A 
ATOM     17  C   UNL     1      -2.611  -2.965   1.421  0.00  0.00    +0.028 A 
ATOM     18  C   UNL     1      -3.070  -3.967   2.254  0.00  0.00    +0.002 A 
ATOM     19  C   UNL     1      -4.109  -3.716   3.131  0.00  0.00    +0.000 A 
ATOM     20  C   UNL     1      -4.692  -2.463   3.177  0.00  0.00    +0.002 A 
ATOM     21  C   UNL     1      -4.233  -1.456   2.351  0.00  0.00    +0.028 A 
ENDBRANCH  13  16
ENDBRANCH   1  11
BRANCH   7  22
ATOM     22  C   UNL     1       1.192   2.525  -6.041  0.00  0.00    +0.135 C 
BRANCH  22  23
ATOM     23  C   UNL     1       1.375   2.906  -7.487  0.00  0.00    -0.031 A 
ATOM     24  C   UNL     1       1.962   2.016  -8.367  0.00  0.00    +0.005 A 
ATOM     25  C   UNL     1       2.131   2.365  -9.694  0.00  0.00    +0.000 A 
ATOM     26  C   UNL     1       1.712   3.605 -10.141  0.00  0.00    +0.000 A 
ATOM     27  C   UNL     1       1.124   4.494  -9.261  0.00  0.00    +0.000 A 
ATOM     28  C   UNL     1       0.952   4.143  -7.935  0.00  0.00    +0.005 A 
ENDBRANCH  22  23
BRANCH  22  29
ATOM     29  C   UNL     1       2.017   3.439  -5.172  0.00  0.00    -0.031 A 
ATOM     30  C   UNL     1       1.635   4.756  -4.997  0.00  0.00    +0.005 A 
ATOM     31  C   UNL     1       2.392   5.594  -4.199  0.00  0.00    +0.000 A 
ATOM     32  C   UNL     1       3.530   5.116  -3.578  0.00  0.00    +0.000 A 
ATOM     33  C   UNL     1       3.911   3.798  -3.752  0.00  0.00    +0.000 A 
ATOM     34  C   UNL     1       3.152   2.959  -4.546  0.00  0.00    +0.005 A 
ENDBRANCH  22  29
ENDBRANCH   7  22
TORSDOF 5
