REMARK  Name = ZINC27431159
REMARK  7 active torsions:
REMARK  status: ('A' for Active; 'I' for Inactive)
REMARK    1  A    between atoms: C_3  and  C_17
REMARK    2  A    between atoms: C_6  and  C_7
REMARK    3  A    between atoms: C_8  and  C_9
REMARK    4  A    between atoms: N_10  and  N_11
REMARK    5  A    between atoms: C_21  and  C_26
REMARK    6  A    between atoms: C_27  and  C_28
REMARK    7  A    between atoms: N_29  and  N_30
REMARK                            x       y       z     vdW  Elec       q    Type
REMARK                         _______ _______ _______ _____ _____    ______ ____
ROOT
ATOM      1  C   UNL     1       3.652   2.175  -0.022  0.00  0.00    +0.090 A 
ATOM      2  C   UNL     1       4.904   1.636  -0.043  0.00  0.00    +0.121 A 
ATOM      3  N   UNL     1       5.789   2.678  -0.044  0.00  0.00    -0.305 N 
ATOM      4  C   UNL     1       7.152   2.720  -0.060  0.00  0.00    +0.100 A 
ATOM      5  C   UNL     1       7.809   3.930  -0.057  0.00  0.00    -0.008 A 
ATOM      6  C   UNL     1       7.065   5.137  -0.036  0.00  0.00    +0.013 A 
ATOM      7  C   UNL     1       5.710   5.087  -0.020  0.00  0.00    +0.047 A 
ATOM      8  C   UNL     1       5.055   3.836  -0.024  0.00  0.00    +0.138 A 
ATOM      9  N   UNL     1       3.770   3.513  -0.017  0.00  0.00    -0.228 NA
ENDROOT
BRANCH   1  12
ATOM     10  C   UNL     1      -0.017   1.396   0.010  0.00  0.00    +0.008 A 
ATOM     11  C   UNL     1       1.161   2.096   0.002  0.00  0.00    +0.010 A 
ATOM     12  C   UNL     1       2.380   1.415  -0.013  0.00  0.00    +0.002 A 
ATOM     13  C   UNL     1       2.401   0.019  -0.022  0.00  0.00    +0.010 A 
ATOM     14  C   UNL     1       1.225  -0.685  -0.014  0.00  0.00    +0.008 A 
ATOM     15  C   UNL     1       0.002  -0.004   0.002  0.00  0.00    -0.025 A 
BRANCH  15  16
ATOM     16  C   UNL     1      -1.260  -0.757   0.011  0.00  0.00    +0.009 C 
ATOM     17  C   UNL     1      -1.240  -2.110   0.003  0.00  0.00    +0.022 C 
BRANCH  17  18
ATOM     18  C   UNL     1      -2.452  -2.833   0.011  0.00  0.00    +0.133 C 
ATOM     19  N   UNL     1      -2.433  -4.144   0.004  0.00  0.00    -0.180 NA
BRANCH  19  20
ATOM     20  N   UNL     1      -3.541  -4.805   0.011  0.00  0.00    -0.252 N 
ATOM     21  C   UNL     1      -3.522  -6.125   0.004  0.00  0.00    +0.174 C 
ATOM     22  N   UNL     1      -2.374  -6.861  -0.005  0.00  0.00    -0.316 N 
ATOM     23  C   UNL     1      -2.720  -8.289  -0.011  0.00  0.00    +0.123 C 
ATOM     24  C   UNL     1      -4.260  -8.312  -0.003  0.00  0.00    +0.123 C 
ATOM     25  N   UNL     1      -4.647  -6.894   0.011  0.00  0.00    -0.316 N 
ATOM     26  H   UNL     1      -5.558  -6.560   0.022  0.00  0.00    +0.149 HD
ATOM     27  H   UNL     1      -1.474  -6.500  -0.008  0.00  0.00    +0.149 HD
ATOM     28  H   UNL     1      -4.388  -4.332   0.022  0.00  0.00    +0.191 HD
ENDBRANCH  19  20
ENDBRANCH  17  18
ENDBRANCH  15  16
ENDBRANCH   1  12
BRANCH   5  29
ATOM     29  C   UNL     1       9.280   3.970  -0.074  0.00  0.00    +0.011 C 
ATOM     30  C   UNL     1       9.923   5.156  -0.071  0.00  0.00    +0.022 C 
BRANCH  30  31
ATOM     31  C   UNL     1      11.340   5.195  -0.088  0.00  0.00    +0.130 C 
ATOM     32  N   UNL     1      11.960   6.340  -0.085  0.00  0.00    -0.188 NA
BRANCH  32  33
ATOM     33  N   UNL     1      13.360   6.379  -0.101  0.00  0.00    -0.211 N 
ATOM     34  C   UNL     1      14.013   7.583  -0.098  0.00  0.00    +0.174 C 
ATOM     35  N   UNL     1      13.374   8.742  -0.073  0.00  0.00    -0.358 N 
ATOM     36  C   UNL     1      14.356   9.838  -0.077  0.00  0.00    +0.134 C 
ATOM     37  C   UNL     1      15.712   9.104  -0.108  0.00  0.00    +0.125 C 
ATOM     38  N   UNL     1      15.332   7.682  -0.113  0.00  0.00    -0.316 N 
ATOM     39  H   UNL     1      13.868   5.552  -0.115  0.00  0.00    +0.177 HD
ATOM     40  H   UNL     1      15.951   6.936  -0.127  0.00  0.00    +0.149 HD
ATOM     41  H   UNL     1      12.410   8.852  -0.057  0.00  0.00    +0.162 HD
ENDBRANCH  32  33
ENDBRANCH  30  31
ENDBRANCH   5  29
TORSDOF 7
