REMARK  Name = ZINC10034269
REMARK  11 active torsions:
REMARK  status: ('A' for Active; 'I' for Inactive)
REMARK    1  A    between atoms: C_1  and  C_2
REMARK    2  A    between atoms: C_2  and  C_4
REMARK    3  A    between atoms: C_2  and  N_12
REMARK    4  A    between atoms: C_4  and  C_5
REMARK    5  A    between atoms: C_5  and  C_6
REMARK    6  A    between atoms: C_13  and  C_15
REMARK    7  A    between atoms: N_17  and  C_18
REMARK    8  A    between atoms: N_22  and  C_23
REMARK    9  A    between atoms: C_23  and  C_24
REMARK   10  A    between atoms: C_23  and  C_25
REMARK   11  A    between atoms: C_23  and  C_26
REMARK                            x       y       z     vdW  Elec       q    Type
REMARK                         _______ _______ _______ _____ _____    ______ ____
ROOT
ATOM      1  C   UNL     1       1.263  -0.426   0.155  0.00  0.00    +0.304 C 
ATOM      2  O   UNL     1       2.274   0.244   0.210  0.00  0.00    -0.265 OA
ATOM      3  N   UNL     1       0.056   0.174   0.165  0.00  0.00    -0.262 N 
ATOM      4  H   UNL     1      -0.752  -0.363   0.178  0.00  0.00    +0.157 HD
ENDROOT
BRANCH   3   5
ATOM      5  C   UNL     1      -0.031   1.563   0.157  0.00  0.00    +0.129 A 
ATOM      6  C   UNL     1       0.904   2.440   0.661  0.00  0.00    +0.038 A 
ATOM      7  C   UNL     1       0.436   3.725   0.450  0.00  0.00    +0.091 A 
ATOM      8  N   UNL     1      -0.742   3.644  -0.151  0.00  0.00    -0.172 NA
ATOM      9  N   UNL     1      -1.052   2.297  -0.343  0.00  0.00    -0.245 N 
ATOM     10  C   UNL     1       1.327   4.869   0.932  0.00  0.00    +0.223 C 
ATOM     11  S   UNL     1       2.488   3.989   2.060  0.00  0.00    -0.021 S 
ATOM     12  O   UNL     1       1.979   4.017   3.387  0.00  0.00    -0.174 OA
ATOM     13  O   UNL     1       3.813   4.431   1.804  0.00  0.00    -0.174 OA
ATOM     14  C   UNL     1       2.258   2.306   1.355  0.00  0.00    +0.206 C 
BRANCH   9  15
ATOM     15  C   UNL     1      -2.266   1.772  -0.974  0.00  0.00    +0.057 C 
ATOM     16  C   UNL     1      -3.083   0.995   0.061  0.00  0.00    +0.036 C 
ATOM     17  C   UNL     1      -3.102   2.932  -1.517  0.00  0.00    +0.036 C 
ATOM     18  C   UNL     1      -1.880   0.839  -2.123  0.00  0.00    +0.036 C 
ENDBRANCH   9  15
ENDBRANCH   3   5
BRANCH   1  20
ATOM     19  N   UNL     1       2.564  -2.514   0.068  0.00  0.00    -0.305 N 
ATOM     20  C   UNL     1       1.357  -1.914   0.078  0.00  0.00    +0.300 C 
ATOM     21  O   UNL     1       0.346  -2.583   0.023  0.00  0.00    -0.265 OA
ATOM     22  H   UNL     1       3.372  -1.978   0.112  0.00  0.00    +0.149 HD
BRANCH  19  24
ATOM     23  C   UNL     1       2.535  -4.567   1.397  0.00  0.00    +0.028 C 
ATOM     24  C   UNL     1       2.656  -3.974  -0.008  0.00  0.00    +0.071 C 
BRANCH  24  25
ATOM     25  C   UNL     1       4.003  -4.369  -0.615  0.00  0.00    +0.026 C 
BRANCH  25  26
ATOM     26  C   UNL     1       4.073  -3.883  -2.064  0.00  0.00    +0.037 C 
BRANCH  26  27
ATOM     27  C   UNL     1       5.401  -4.272  -2.661  0.00  0.00    -0.047 A 
ATOM     28  C   UNL     1       6.479  -3.411  -2.570  0.00  0.00    +0.003 A 
ATOM     29  C   UNL     1       7.698  -3.771  -3.113  0.00  0.00    +0.000 A 
ATOM     30  C   UNL     1       7.836  -4.986  -3.758  0.00  0.00    +0.000 A 
ATOM     31  C   UNL     1       6.757  -5.844  -3.854  0.00  0.00    +0.000 A 
ATOM     32  C   UNL     1       5.539  -5.487  -3.306  0.00  0.00    +0.003 A 
ENDBRANCH  26  27
ENDBRANCH  25  26
ENDBRANCH  24  25
ENDBRANCH  19  24
ENDBRANCH   1  20
TORSDOF 7
