REMARK  Name = ZINC11652263
REMARK  11 active torsions:
REMARK  status: ('A' for Active; 'I' for Inactive)
REMARK    1  A    between atoms: C_1  and  C_2
REMARK    2  A    between atoms: C_2  and  N_64
REMARK    3  A    between atoms: C_3  and  C_4
REMARK    4  A    between atoms: C_3  and  N_64
REMARK    5  A    between atoms: C_5  and  C_7
REMARK    6  A    between atoms: C_5  and  C_28
REMARK    7  A    between atoms: C_5  and  N_64
REMARK    8  A    between atoms: C_7  and  N_8
REMARK    9  A    between atoms: C_9  and  C_11
REMARK   10  A    between atoms: C_11  and  C_12
REMARK   11  A    between atoms: C_12  and  C_13
REMARK                            x       y       z     vdW  Elec       q    Type
REMARK                         _______ _______ _______ _____ _____    ______ ____
ROOT
ATOM      1  N   UNL     1      -0.968  -0.635   2.970  0.00  0.00    -0.317 N 
ATOM      2  C   UNL     1      -0.442  -1.867   3.125  0.00  0.00    +0.213 C 
ATOM      3  O   UNL     1      -0.552  -2.689   2.241  0.00  0.00    -0.276 OA
ATOM      4  H   UNL     1      -0.879   0.022   3.678  0.00  0.00    +0.149 HD
ENDROOT
BRANCH   1   5
ATOM      5  C   UNL     1      -1.673  -0.291   1.733  0.00  0.00    +0.093 C 
BRANCH   5   6
ATOM      6  C   UNL     1      -2.057   1.190   1.761  0.00  0.00    -0.020 C 
BRANCH   6   7
ATOM      7  C   UNL     1      -2.655   1.579   0.433  0.00  0.00    -0.059 A 
ATOM      8  C   UNL     1      -2.000   1.257  -0.741  0.00  0.00    +0.002 A 
ATOM      9  C   UNL     1      -2.551   1.609  -1.958  0.00  0.00    +0.000 A 
ATOM     10  C   UNL     1      -3.752   2.293  -2.002  0.00  0.00    +0.000 A 
ATOM     11  C   UNL     1      -4.404   2.619  -0.828  0.00  0.00    +0.000 A 
ATOM     12  C   UNL     1      -3.856   2.262   0.390  0.00  0.00    +0.002 A 
ENDBRANCH   6   7
BRANCH   6  13
ATOM     13  N   UNL     1      -0.843   1.988   2.033  0.00  0.00    +0.385 N 
ATOM     14  H   UNL     1      -0.239   1.466   2.679  0.00  0.00    -0.081 HD
BRANCH  13  16
ATOM     15  C   UNL     1      -1.561   3.027   4.126  0.00  0.00    -0.017 C 
ATOM     16  C   UNL     1      -1.213   3.275   2.657  0.00  0.00    -0.081 C 
ENDBRANCH  13  16
BRANCH  13  17
ATOM     17  C   UNL     1      -0.104   2.229   0.775  0.00  0.00    -0.081 C 
ATOM     18  C   UNL     1       0.733   0.990   0.454  0.00  0.00    -0.017 C 
ENDBRANCH  13  17
ENDBRANCH   6  13
ENDBRANCH   5   6
ENDBRANCH   1   5
BRANCH   2  19
ATOM     19  C   UNL     1       0.284  -2.221   4.398  0.00  0.00    +0.103 C 
BRANCH  19  20
ATOM     20  C   UNL     1       0.778  -3.667   4.317  0.00  0.00    +0.083 C 
BRANCH  20  21
ATOM     21  C   UNL     1       1.504  -4.021   5.589  0.00  0.00    +0.111 A 
ATOM     22  N   UNL     1       2.029  -5.265   5.733  0.00  0.00    -0.310 N 
ATOM     23  H   UNL     1       1.929  -5.909   5.014  0.00  0.00    +0.170 HD
ATOM     24  C   UNL     1       2.684  -5.624   6.853  0.00  0.00    +0.260 A 
ATOM     25  O   UNL     1       3.150  -6.745   6.966  0.00  0.00    -0.267 OA
ATOM     26  C   UNL     1       2.826  -4.665   7.909  0.00  0.00    +0.075 A 
ATOM     27  C   UNL     1       3.490  -4.830   9.201  0.00  0.00    -0.023 A 
ATOM     28  C   UNL     1       3.486  -3.765  10.031  0.00  0.00    -0.004 A 
ATOM     29  S   UNL     1       2.610  -2.500   9.152  0.00  0.00    -0.073 S 
ATOM     30  C   UNL     1       2.251  -3.407   7.669  0.00  0.00    +0.116 A 
ATOM     31  N   UNL     1       1.621  -3.125   6.532  0.00  0.00    -0.227 NA
ATOM     32  C   UNL     1       4.092  -3.679  11.399  0.00  0.00    +0.043 C 
ATOM     33  C   UNL     1       4.405  -5.102  11.881  0.00  0.00    +0.005 C 
ATOM     34  C   UNL     1       5.132  -5.852  10.761  0.00  0.00    +0.005 C 
ATOM     35  C   UNL     1       4.163  -6.136   9.613  0.00  0.00    +0.037 C 
ENDBRANCH  20  21
ENDBRANCH  19  20
ENDBRANCH   2  19
TORSDOF 9
