REMARK  Name = ZINC13152785
REMARK  8 active torsions:
REMARK  status: ('A' for Active; 'I' for Inactive)
REMARK    1  A    between atoms: C_1  and  C_2
REMARK    2  A    between atoms: C_2  and  O_3
REMARK    3  A    between atoms: O_3  and  C_4
REMARK    4  A    between atoms: C_4  and  C_6
REMARK    5  A    between atoms: C_7  and  N_29
REMARK    6  A    between atoms: C_23  and  C_26
REMARK    7  A    between atoms: C_26  and  C_27
REMARK    8  A    between atoms: C_26  and  C_28
REMARK                            x       y       z     vdW  Elec       q    Type
REMARK                         _______ _______ _______ _____ _____    ______ ____
ROOT
ATOM      1  C   UNL     1       1.256  -2.378   2.583  0.00  0.00    +0.119 A 
ATOM      2  C   UNL     1       1.679  -3.681   2.748  0.00  0.00    +0.055 A 
ATOM      3  C   UNL     1       2.582  -3.979   3.847  0.00  0.00    +0.031 A 
ATOM      4  C   UNL     1       3.147  -5.231   4.212  0.00  0.00    -0.025 A 
ATOM      5  C   UNL     1       3.973  -5.305   5.286  0.00  0.00    +0.020 A 
ATOM      6  C   UNL     1       4.271  -4.149   6.020  0.00  0.00    +0.105 A 
ATOM      7  N   UNL     1       3.749  -2.982   5.679  0.00  0.00    -0.337 N 
ATOM      8  C   UNL     1       2.939  -2.872   4.648  0.00  0.00    +0.089 A 
ATOM      9  S   UNL     1       2.074  -1.510   3.907  0.00  0.00    -0.062 S 
ATOM     10  N   UNL     1       5.121  -4.229   7.114  0.00  0.00    -0.312 N 
ATOM     11  C   UNL     1       6.566  -3.996   6.969  0.00  0.00    +0.134 C 
ATOM     12  C   UNL     1       7.000  -2.975   8.027  0.00  0.00    +0.178 C 
ATOM     13  O   UNL     1       6.553  -3.412   9.313  0.00  0.00    -0.377 OA
ATOM     14  C   UNL     1       5.132  -3.502   9.439  0.00  0.00    +0.178 C 
ATOM     15  C   UNL     1       4.602  -4.544   8.454  0.00  0.00    +0.134 C 
ATOM     16  C   UNL     1       4.582  -6.614   5.721  0.00  0.00    +0.199 C 
ATOM     17  O   UNL     1       4.481  -7.579   4.675  0.00  0.00    -0.371 OA
ATOM     18  C   UNL     1       3.153  -7.713   4.157  0.00  0.00    +0.126 C 
ATOM     19  C   UNL     1       2.806  -6.440   3.382  0.00  0.00    +0.068 C 
ATOM     20  H   UNL     1       3.967  -2.193   6.199  0.00  0.00    +0.168 HD
ENDROOT
BRANCH  18  21
ATOM     21  C   UNL     1       3.083  -8.922   3.222  0.00  0.00    +0.012 C 
ATOM     22  C   UNL     1       3.456 -10.188   3.996  0.00  0.00    +0.010 C 
ATOM     23  C   UNL     1       1.662  -9.060   2.672  0.00  0.00    +0.010 C 
ENDBRANCH  18  21
BRANCH   2  24
ATOM     24  N   UNL     1       1.252  -4.681   1.887  0.00  0.00    -0.356 N 
ATOM     25  H   UNL     1       1.795  -5.474   1.756  0.00  0.00    +0.142 HD
ATOM     26  H   UNL     1       0.409  -4.588   1.415  0.00  0.00    +0.142 HD
ENDBRANCH   2  24
BRANCH   1  27
ATOM     27  C   UNL     1       0.388  -1.856   1.598  0.00  0.00    +0.348 C 
ATOM     28  O   UNL     1      -0.090  -2.594   0.756  0.00  0.00    -0.244 OA
BRANCH  27  29
ATOM     29  O   UNL     1       0.090  -0.539   1.590  0.00  0.00    -0.461 OA
BRANCH  29  31
ATOM     30  C   UNL     1      -1.013   1.426   0.718  0.00  0.00    +0.048 C 
ATOM     31  C   UNL     1      -0.794  -0.081   0.566  0.00  0.00    +0.229 C 
ENDBRANCH  29  31
ENDBRANCH  27  29
ENDBRANCH   1  27
TORSDOF 5
