REMARK  Name = ZINC64052930
REMARK  9 active torsions:
REMARK  status: ('A' for Active; 'I' for Inactive)
REMARK    1  A    between atoms: C_1  and  C_2
REMARK    2  A    between atoms: C_8  and  C_32
REMARK    3  A    between atoms: C_12  and  C_13
REMARK    4  A    between atoms: C_13  and  O_15
REMARK    5  A    between atoms: O_15  and  C_16
REMARK    6  A    between atoms: C_16  and  C_18
REMARK    7  A    between atoms: C_16  and  C_19
REMARK    8  A    between atoms: C_19  and  C_21
REMARK    9  A    between atoms: C_29  and  C_31
REMARK                            x       y       z     vdW  Elec       q    Type
REMARK                         _______ _______ _______ _____ _____    ______ ____
ROOT
ATOM      1  O   UNL     1       0.048  -1.026   3.593  0.00  0.00    -0.450 OA
ENDROOT
BRANCH   1   2
ATOM      2  C   UNL     1       0.011  -0.187   2.537  0.00  0.00    +0.347 C 
ATOM      3  O   UNL     1      -0.029   1.015   2.716  0.00  0.00    -0.244 OA
BRANCH   2  15
ATOM      4  C   UNL     1      -0.067   1.460  -0.015  0.00  0.00    +0.046 C 
ATOM      5  C   UNL     1      -0.015  -0.046  -0.009  0.00  0.00    -0.015 A 
ATOM      6  C   UNL     1       0.004  -0.750  -1.215  0.00  0.00    +0.076 A 
ATOM      7  C   UNL     1      -0.018  -0.232  -2.602  0.00  0.00    +0.260 A 
ATOM      8  O   UNL     1      -0.059   0.966  -2.821  0.00  0.00    -0.267 OA
ATOM      9  N   UNL     1       0.009  -1.119  -3.615  0.00  0.00    -0.311 N 
ATOM     10  H   UNL     1      -0.004  -0.796  -4.530  0.00  0.00    +0.170 HD
ATOM     11  C   UNL     1       0.056  -2.454  -3.383  0.00  0.00    +0.108 A 
ATOM     12  N   UNL     1       0.076  -2.944  -2.174  0.00  0.00    -0.227 NA
ATOM     13  C   UNL     1       0.053  -2.159  -1.104  0.00  0.00    +0.116 A 
ATOM     14  S   UNL     1       0.068  -2.430   0.650  0.00  0.00    -0.062 S 
ATOM     15  C   UNL     1       0.018  -0.725   1.174  0.00  0.00    +0.102 A 
ATOM     16  C   UNL     1       0.084  -3.400  -4.556  0.00  0.00    +0.086 C 
ENDBRANCH   2  15
ENDBRANCH   1   2
BRANCH   1  17
ATOM     17  C   UNL     1       0.039  -0.433   4.893  0.00  0.00    +0.244 C 
ATOM     18  C   UNL     1       1.477  -0.172   5.345  0.00  0.00    +0.061 C 
BRANCH  17  19
ATOM     19  C   UNL     1      -0.632  -1.367   5.866  0.00  0.00    +0.202 C 
ATOM     20  O   UNL     1      -0.825  -2.526   5.561  0.00  0.00    -0.288 OA
BRANCH  19  21
ATOM     21  C   UNL     1      -1.035  -0.895   7.133  0.00  0.00    +0.030 C 
ATOM     22  C   UNL     1      -0.962   0.403   7.605  0.00  0.00    +0.007 A 
ATOM     23  C   UNL     1      -0.497   1.610   7.032  0.00  0.00    +0.010 A 
ATOM     24  C   UNL     1      -0.544   2.762   7.737  0.00  0.00    +0.001 A 
ATOM     25  C   UNL     1      -1.047   2.824   9.047  0.00  0.00    +0.002 A 
ATOM     26  C   UNL     1      -1.515   1.730   9.685  0.00  0.00    +0.026 A 
ATOM     27  C   UNL     1      -1.500   0.433   8.987  0.00  0.00    +0.043 A 
ATOM     28  N   UNL     1      -1.881  -0.757   9.355  0.00  0.00    -0.377 N 
ATOM     29  C   UNL     1      -1.645  -1.702   8.259  0.00  0.00    +0.111 C 
ATOM     30  C   UNL     1      -2.966  -2.326   7.804  0.00  0.00    +0.035 C 
ATOM     31  H   UNL     1      -2.264  -0.982  10.217  0.00  0.00    +0.160 HD
ENDBRANCH  19  21
ENDBRANCH  17  19
ENDBRANCH   1  17
TORSDOF 5
