REMARK  Name = ZINC39012516
REMARK  8 active torsions:
REMARK  status: ('A' for Active; 'I' for Inactive)
REMARK    1  A    between atoms: C_1  and  C_2
REMARK    2  A    between atoms: C_5  and  C_9
REMARK    3  A    between atoms: C_6  and  O_8
REMARK    4  A    between atoms: C_12  and  C_14
REMARK    5  A    between atoms: N_16  and  C_17
REMARK    6  A    between atoms: C_19  and  C_29
REMARK    7  A    between atoms: N_31  and  C_32
REMARK    8  A    between atoms: C_32  and  C_33
REMARK                            x       y       z     vdW  Elec       q    Type
REMARK                         _______ _______ _______ _____ _____    ______ ____
ROOT
ATOM      1  C   UNL     1      -0.263  -7.851  -1.181  0.00  0.00    +0.261 C 
ATOM      2  O   UNL     1      -0.603  -7.915  -2.347  0.00  0.00    -0.269 OA
ATOM      3  N   UNL     1       0.116  -8.967  -0.527  0.00  0.00    -0.298 N 
ATOM      4  H   UNL     1       0.451  -8.907   0.381  0.00  0.00    +0.150 HD
ENDROOT
BRANCH   3   5
ATOM      5  C   UNL     1       0.022 -10.271  -1.188  0.00  0.00    +0.144 C 
ATOM      6  C   UNL     1       1.000 -11.271  -0.552  0.00  0.00    +0.109 C 
ATOM      7  C   UNL     1       2.088 -11.767  -1.485  0.00  0.00    +0.016 C 
ATOM      8  C   UNL     1       3.364 -10.908  -1.321  0.00  0.00    +0.005 C 
ATOM      9  C   UNL     1       4.118 -11.150  -2.652  0.00  0.00    +0.001 C 
ATOM     10  C   UNL     1       3.002 -11.205  -3.715  0.00  0.00    +0.014 C 
ATOM     11  C   UNL     1       1.718 -11.597  -2.982  0.00  0.00    +0.052 C 
ATOM     12  S   UNL     1       0.586 -10.153  -2.931  0.00  0.00    -0.134 S 
BRANCH   6  13
ATOM     13  C   UNL     1       0.216 -12.461  -0.063  0.00  0.00    +0.219 C 
ATOM     14  O   UNL     1       0.437 -13.562  -0.520  0.00  0.00    -0.275 OA
ATOM     15  N   UNL     1      -0.731 -12.301   0.883  0.00  0.00    -0.308 N 
ATOM     16  H   UNL     1      -0.908 -11.421   1.248  0.00  0.00    +0.149 HD
BRANCH  15  17
ATOM     17  C   UNL     1      -1.494 -13.458   1.359  0.00  0.00    +0.178 C 
BRANCH  17  18
ATOM     18  C   UNL     1      -2.481 -13.013   2.406  0.00  0.00    +0.122 A 
ATOM     19  C   UNL     1      -3.745 -12.613   2.177  0.00  0.00    +0.046 A 
ATOM     20  C   UNL     1      -4.306 -12.288   3.433  0.00  0.00    +0.041 A 
ATOM     21  C   UNL     1      -3.352 -12.509   4.355  0.00  0.00    +0.195 A 
ATOM     22  O   UNL     1      -2.251 -12.954   3.728  0.00  0.00    -0.466 OA
ENDBRANCH  17  18
ENDBRANCH  15  17
ENDBRANCH   6  13
ENDBRANCH   3   5
BRANCH   1  26
ATOM     23  C   UNL     1      -0.443  -4.299   0.148  0.00  0.00    +0.080 C 
ATOM     24  N   UNL     1      -0.025  -5.099   1.102  0.00  0.00    -0.153 NA
ATOM     25  N   UNL     1       0.070  -6.323   0.755  0.00  0.00    -0.148 NA
ATOM     26  C   UNL     1      -0.265  -6.560  -0.487  0.00  0.00    +0.131 C 
ATOM     27  C   UNL     1      -0.662  -5.206  -1.052  0.00  0.00    +0.120 C 
BRANCH  23  32
ATOM     28  C   UNL     1      -1.286   1.378   0.444  0.00  0.00    +0.044 C 
ATOM     29  C   UNL     1      -1.064  -0.111   0.370  0.00  0.00    -0.047 A 
ATOM     30  C   UNL     1      -1.315  -0.786  -0.814  0.00  0.00    +0.004 A 
ATOM     31  C   UNL     1      -1.116  -2.146  -0.896  0.00  0.00    +0.013 A 
ATOM     32  C   UNL     1      -0.657  -2.852   0.225  0.00  0.00    +0.040 A 
ATOM     33  C   UNL     1      -0.403  -2.162   1.424  0.00  0.00    +0.126 A 
ATOM     34  C   UNL     1      -0.605  -0.791   1.481  0.00  0.00    +0.049 A 
BRANCH  33  35
ATOM     35  O   UNL     1       0.042  -2.832   2.515  0.00  0.00    -0.506 OA
ATOM     36  H   UNL     1       1.006  -2.889   2.576  0.00  0.00    +0.292 HD
ENDBRANCH  33  35
ENDBRANCH  23  32
ENDBRANCH   1  26
TORSDOF 7
