REMARK  Name = ZINC16294262
REMARK  9 active torsions:
REMARK  status: ('A' for Active; 'I' for Inactive)
REMARK    1  A    between atoms: C_1  and  C_2
REMARK    2  A    between atoms: C_5  and  C_11
REMARK    3  A    between atoms: C_7  and  N_8
REMARK    4  A    between atoms: C_16  and  C_21
REMARK    5  A    between atoms: C_29  and  C_41
REMARK    6  A    between atoms: C_30  and  C_31
REMARK    7  A    between atoms: C_31  and  O_33
REMARK    8  A    between atoms: O_33  and  C_34
REMARK    9  A    between atoms: C_34  and  C_35
REMARK                            x       y       z     vdW  Elec       q    Type
REMARK                         _______ _______ _______ _____ _____    ______ ____
ROOT
ATOM      1  C   UNL     1      -0.026   3.679   0.855  0.00  0.00    +0.092 C 
ATOM      2  C   UNL     1      -1.390   3.237   0.388  0.00  0.00    +0.024 C 
ATOM      3  C   UNL     1      -1.603   1.966  -0.020  0.00  0.00    +0.016 C 
ATOM      4  C   UNL     1      -2.969   1.512  -0.465  0.00  0.00    +0.059 C 
ATOM      5  C   UNL     1      -3.714   2.684  -1.107  0.00  0.00    +0.032 C 
ATOM      6  C   UNL     1      -3.814   3.817  -0.080  0.00  0.00    +0.088 C 
ATOM      7  C   UNL     1      -2.430   4.183   0.382  0.00  0.00    +0.162 C 
ATOM      8  O   UNL     1      -2.207   5.316   0.759  0.00  0.00    -0.292 OA
ATOM      9  N   UNL     1      -0.578   1.058  -0.019  0.00  0.00    -0.321 N 
ATOM     10  C   UNL     1       0.723   1.476  -0.004  0.00  0.00    +0.016 C 
ATOM     11  C   UNL     1       1.035   2.719   0.402  0.00  0.00    +0.065 C 
ATOM     12  C   UNL     1       1.816   0.537  -0.445  0.00  0.00    +0.061 C 
ATOM     13  H   UNL     1      -0.798  -0.020  -0.030  0.00  0.00    +0.152 HD
ENDROOT
BRANCH   1  18
ATOM     14  C   UNL     1       0.007   3.957   6.627  0.00  0.00    +0.046 C 
ATOM     15  C   UNL     1      -0.002   3.885   5.122  0.00  0.00    -0.020 A 
ATOM     16  C   UNL     1      -0.242   2.679   4.489  0.00  0.00    +0.006 A 
ATOM     17  C   UNL     1      -0.250   2.612   3.108  0.00  0.00    +0.005 A 
ATOM     18  C   UNL     1      -0.018   3.752   2.360  0.00  0.00    -0.033 A 
ATOM     19  C   UNL     1       0.227   4.956   2.993  0.00  0.00    +0.037 A 
ATOM     20  C   UNL     1       0.230   5.023   4.373  0.00  0.00    +0.129 A 
BRANCH  20  21
ATOM     21  N   UNL     1       0.488   6.314   5.051  0.00  0.00    +0.057 N 
ATOM     22  O   UNL     1       0.581   7.337   4.396  0.00  0.00    -0.126 OA
ATOM     23  O   UNL     1       0.606   6.353   6.262  0.00  0.00    -0.126 OA
ENDBRANCH  20  21
ENDBRANCH   1  18
BRANCH   5  24
ATOM     24  C   UNL     1      -5.097   2.244  -1.513  0.00  0.00    -0.043 A 
ATOM     25  C   UNL     1      -5.970   1.748  -0.562  0.00  0.00    +0.007 A 
ATOM     26  C   UNL     1      -7.241   1.349  -0.932  0.00  0.00    +0.038 A 
ATOM     27  C   UNL     1      -7.635   1.436  -2.257  0.00  0.00    +0.123 A 
ATOM     28  C   UNL     1      -6.758   1.928  -3.208  0.00  0.00    +0.038 A 
ATOM     29  C   UNL     1      -5.490   2.332  -2.835  0.00  0.00    +0.007 A 
ATOM     30  F   UNL     1      -8.875   1.042  -2.620  0.00  0.00    -0.205 F 
ENDBRANCH   5  24
BRANCH  11  31
ATOM     31  C   UNL     1       2.388   3.131   0.402  0.00  0.00    +0.338 C 
ATOM     32  O   UNL     1       3.258   2.362   0.036  0.00  0.00    -0.245 OA
BRANCH  31  33
ATOM     33  O   UNL     1       2.715   4.376   0.806  0.00  0.00    -0.459 OA
BRANCH  33  34
ATOM     34  C   UNL     1       4.100   4.724   0.780  0.00  0.00    +0.264 C 
BRANCH  34  35
ATOM     35  C   UNL     1       4.274   6.163   1.270  0.00  0.00    +0.156 C 
ATOM     36  C   UNL     1       5.778   6.531   1.335  0.00  0.00    +0.037 C 
ATOM     37  C   UNL     1       5.708   8.077   1.197  0.00  0.00    +0.031 C 
ATOM     38  C   UNL     1       4.501   8.269   0.253  0.00  0.00    +0.160 C 
ATOM     39  O   UNL     1       3.701   7.083   0.327  0.00  0.00    -0.373 OA
ENDBRANCH  34  35
ENDBRANCH  33  34
ENDBRANCH  31  33
ENDBRANCH  11  31
TORSDOF 7
