REMARK  Name = ZINC04454687
REMARK  3 active torsions:
REMARK  status: ('A' for Active; 'I' for Inactive)
REMARK    1  A    between atoms: N_14  and  C_15
REMARK    2  A    between atoms: N_23  and  C_24
REMARK    3  A    between atoms: C_24  and  C_25
REMARK                            x       y       z     vdW  Elec       q    Type
REMARK                         _______ _______ _______ _____ _____    ______ ____
ROOT
ATOM      1  C   UNL     1       9.453   1.617  -3.029  0.00  0.00    +0.203 A 
ATOM      2  N   UNL     1       8.542   2.565  -3.053  0.00  0.00    -0.230 NA
ATOM      3  C   UNL     1       7.484   2.416  -2.262  0.00  0.00    +0.116 A 
ATOM      4  C   UNL     1       7.288   1.306  -1.410  0.00  0.00    +0.076 A 
ATOM      5  C   UNL     1       6.070   1.312  -0.618  0.00  0.00    -0.020 A 
ATOM      6  C   UNL     1       5.254   2.381  -0.773  0.00  0.00    +0.013 A 
ATOM      7  S   UNL     1       6.056   3.413  -1.973  0.00  0.00    -0.072 S 
ATOM      8  C   UNL     1       3.951   2.631  -0.075  0.00  0.00    +0.152 C 
ATOM      9  N   UNL     1       3.596   1.392   0.645  0.00  0.00    -0.280 N 
ATOM     10  C   UNL     1       4.675   0.691   1.356  0.00  0.00    +0.114 C 
ATOM     11  C   UNL     1       5.705   0.181   0.340  0.00  0.00    +0.056 C 
ATOM     12  C   UNL     1       2.331   0.926   0.654  0.00  0.00    +0.303 C 
ATOM     13  O   UNL     1       2.065  -0.097   1.255  0.00  0.00    -0.253 OA
ATOM     14  N   UNL     1       1.362   1.593  -0.002  0.00  0.00    -0.296 N 
ATOM     15  C   UNL     1       8.306   0.294  -1.415  0.00  0.00    +0.262 A 
ATOM     16  O   UNL     1       8.232  -0.703  -0.716  0.00  0.00    -0.267 OA
ATOM     17  N   UNL     1       9.352   0.517  -2.244  0.00  0.00    -0.296 N 
ATOM     18  H   UNL     1       1.574   2.409  -0.482  0.00  0.00    +0.151 HD
ENDROOT
BRANCH  14  19
ATOM     19  C   UNL     1      -0.013   1.086   0.008  0.00  0.00    +0.074 C 
ATOM     20  C   UNL     1      -0.729   1.579   1.267  0.00  0.00    +0.022 C 
ATOM     21  C   UNL     1      -2.164   1.050   1.278  0.00  0.00    +0.002 C 
ATOM     22  C   UNL     1      -2.904   1.556   0.038  0.00  0.00    +0.000 C 
ATOM     23  C   UNL     1      -2.188   1.063  -1.221  0.00  0.00    +0.002 C 
ATOM     24  C   UNL     1      -0.753   1.593  -1.232  0.00  0.00    +0.022 C 
ENDBRANCH  14  19
BRANCH  17  25
ATOM     25  C   UNL     1      10.427  -0.478  -2.296  0.00  0.00    +0.157 C 
BRANCH  25  26
ATOM     26  C   UNL     1      11.493  -0.132  -1.254  0.00  0.00    +0.138 C 
ATOM     27  C   UNL     1      12.656  -1.153  -1.316  0.00  0.00    +0.035 C 
ATOM     28  C   UNL     1      13.821  -0.307  -0.729  0.00  0.00    +0.031 C 
ATOM     29  C   UNL     1      13.486   1.112  -1.238  0.00  0.00    +0.160 C 
ATOM     30  O   UNL     1      12.090   1.140  -1.556  0.00  0.00    -0.375 OA
ENDBRANCH  25  26
ENDBRANCH  17  25
TORSDOF 3
