REMARK  Name = ZINC49919955
REMARK  9 active torsions:
REMARK  status: ('A' for Active; 'I' for Inactive)
REMARK    1  A    between atoms: C_1  and  C_2
REMARK    2  A    between atoms: C_5  and  C_9
REMARK    3  A    between atoms: C_7  and  C_8
REMARK    4  A    between atoms: C_9  and  C_11
REMARK    5  A    between atoms: C_9  and  O_25
REMARK    6  A    between atoms: C_11  and  N_12
REMARK    7  A    between atoms: N_12  and  C_13
REMARK    8  A    between atoms: C_13  and  C_14
REMARK    9  A    between atoms: C_14  and  C_15
REMARK                            x       y       z     vdW  Elec       q    Type
REMARK                         _______ _______ _______ _____ _____    ______ ____
ROOT
ATOM      1  N   UNL     1      -1.359  -6.267  -0.156  0.00  0.00    +0.381 N 
ATOM      2  H   UNL     1      -0.731  -6.658  -0.843  0.00  0.00    -0.086 HD
ATOM      3  H   UNL     1      -1.056  -6.535   0.768  0.00  0.00    -0.086 HD
ENDROOT
BRANCH   1   4
ATOM      4  C   UNL     1      -1.356  -4.802  -0.267  0.00  0.00    -0.046 C 
BRANCH   4   5
ATOM      5  C   UNL     1       0.059  -4.275  -0.021  0.00  0.00    +0.128 C 
BRANCH   5  10
ATOM      6  C   UNL     1      -0.018   1.503   0.010  0.00  0.00    +0.044 C 
ATOM      7  C   UNL     1       0.002  -0.004   0.002  0.00  0.00    -0.048 A 
ATOM      8  C   UNL     1       0.006  -0.689  -1.199  0.00  0.00    +0.004 A 
ATOM      9  C   UNL     1       0.025  -2.071  -1.207  0.00  0.00    +0.006 A 
ATOM     10  C   UNL     1       0.040  -2.768  -0.013  0.00  0.00    -0.021 A 
ATOM     11  C   UNL     1       0.037  -2.084   1.188  0.00  0.00    +0.009 A 
ATOM     12  C   UNL     1       0.023  -0.702   1.195  0.00  0.00    -0.047 A 
ATOM     13  C   UNL     1       0.025   0.045   2.504  0.00  0.00    +0.044 C 
ENDBRANCH   5  10
BRANCH   5  14
ATOM     14  O   UNL     1       0.926  -4.735  -1.061  0.00  0.00    -0.389 OA
ATOM     15  H   UNL     1       0.664  -4.448  -1.946  0.00  0.00    +0.210 HD
ENDBRANCH   5  14
ENDBRANCH   4   5
ENDBRANCH   1   4
BRANCH   1  16
ATOM     16  C   UNL     1      -2.718  -6.773  -0.392  0.00  0.00    -0.078 C 
BRANCH  16  17
ATOM     17  C   UNL     1      -2.721  -8.299  -0.277  0.00  0.00    +0.018 C 
BRANCH  17  18
ATOM     18  C   UNL     1      -4.115  -8.818  -0.519  0.00  0.00    -0.024 A 
ATOM     19  C   UNL     1      -5.037  -9.095   0.417  0.00  0.00    +0.087 A 
ATOM     20  N   UNL     1      -6.184  -9.546  -0.178  0.00  0.00    -0.360 N 
ATOM     21  H   UNL     1      -6.990  -9.810   0.293  0.00  0.00    +0.165 HD
ATOM     22  C   UNL     1      -6.024  -9.570  -1.546  0.00  0.00    +0.047 A 
ATOM     23  C   UNL     1      -4.723  -9.109  -1.819  0.00  0.00    +0.003 A 
ATOM     24  C   UNL     1      -4.279  -9.020  -3.140  0.00  0.00    +0.010 A 
ATOM     25  C   UNL     1      -5.113  -9.378  -4.161  0.00  0.00    +0.001 A 
ATOM     26  C   UNL     1      -6.398  -9.830  -3.897  0.00  0.00    +0.002 A 
ATOM     27  C   UNL     1      -6.854  -9.934  -2.601  0.00  0.00    +0.026 A 
ENDBRANCH  17  18
ENDBRANCH  16  17
ENDBRANCH   1  16
TORSDOF 7
