REMARK  Name = ZINC06176875
REMARK  10 active torsions:
REMARK  status: ('A' for Active; 'I' for Inactive)
REMARK    1  A    between atoms: C_1  and  O_2
REMARK    2  A    between atoms: O_2  and  C_3
REMARK    3  A    between atoms: C_8  and  C_15
REMARK    4  A    between atoms: C_15  and  C_17
REMARK    5  A    between atoms: C_15  and  N_72
REMARK    6  A    between atoms: N_21  and  C_22
REMARK    7  A    between atoms: C_22  and  C_23
REMARK    8  A    between atoms: N_31  and  C_34
REMARK    9  A    between atoms: C_39  and  O_40
REMARK   10  A    between atoms: O_40  and  C_41
REMARK                            x       y       z     vdW  Elec       q    Type
REMARK                         _______ _______ _______ _____ _____    ______ ____
ROOT
ATOM      1  C   UNL     1      -1.139   2.110  -0.110  0.00  0.00    +0.039 C 
ENDROOT
BRANCH   1   7
ATOM      2  C   UNL     1       5.206   0.881  -0.740  0.00  0.00    +0.122 A 
ATOM      3  C   UNL     1       5.029   2.254  -0.576  0.00  0.00    +0.046 A 
ATOM      4  C   UNL     1       3.779   2.778  -0.420  0.00  0.00    +0.013 A 
ATOM      5  C   UNL     1       2.664   1.931  -0.424  0.00  0.00    -0.001 A 
ATOM      6  C   UNL     1       1.312   2.462  -0.259  0.00  0.00    +0.017 A 
ATOM      7  C   UNL     1       0.268   1.594  -0.271  0.00  0.00    +0.011 A 
ATOM      8  C   UNL     1       0.494   0.213  -0.440  0.00  0.00    +0.251 A 
ATOM      9  O   UNL     1      -0.457  -0.548  -0.448  0.00  0.00    -0.268 OA
ATOM     10  N   UNL     1       1.734  -0.285  -0.593  0.00  0.00    -0.322 N 
ATOM     11  H   UNL     1       1.854  -1.241  -0.707  0.00  0.00    +0.169 HD
ATOM     12  C   UNL     1       2.837   0.542  -0.589  0.00  0.00    +0.053 A 
ATOM     13  C   UNL     1       4.117   0.027  -0.747  0.00  0.00    +0.072 A 
BRANCH   2  15
ATOM     14  C   UNL     1       7.539   1.310  -0.878  0.00  0.00    +0.277 C 
ATOM     15  O   UNL     1       6.457   0.377  -0.894  0.00  0.00    -0.495 OA
ENDBRANCH   2  15
ENDBRANCH   1   7
BRANCH   1  21
ATOM     16  C   UNL     1      -1.367   2.082  -2.521  0.00  0.00    -0.058 C 
ATOM     17  C   UNL     1      -2.205   1.527  -3.675  0.00  0.00    +0.086 C 
ATOM     18  N   UNL     1      -3.587   2.013  -3.551  0.00  0.00    -0.331 N 
ATOM     19  C   UNL     1      -4.178   1.591  -2.274  0.00  0.00    +0.086 C 
ATOM     20  C   UNL     1      -3.340   2.145  -1.119  0.00  0.00    -0.058 C 
ATOM     21  N   UNL     1      -1.959   1.632  -1.243  0.00  0.00    +0.391 N 
ATOM     22  H   UNL     1      -1.982   0.606  -1.229  0.00  0.00    -0.080 HD
BRANCH  18  23
ATOM     23  C   UNL     1      -4.368   1.584  -4.631  0.00  0.00    +0.072 A 
ATOM     24  C   UNL     1      -3.870   0.640  -5.518  0.00  0.00    +0.027 A 
ATOM     25  C   UNL     1      -4.643   0.218  -6.583  0.00  0.00    +0.002 A 
ATOM     26  C   UNL     1      -5.912   0.735  -6.768  0.00  0.00    +0.004 A 
ATOM     27  C   UNL     1      -6.415   1.676  -5.888  0.00  0.00    +0.047 A 
ATOM     28  C   UNL     1      -5.649   2.099  -4.815  0.00  0.00    +0.141 A 
BRANCH  28  29
ATOM     29  O   UNL     1      -6.144   3.021  -3.945  0.00  0.00    -0.493 OA
ATOM     30  C   UNL     1      -7.465   3.505  -4.196  0.00  0.00    +0.277 C 
ENDBRANCH  28  29
ENDBRANCH  18  23
ENDBRANCH   1  21
BRANCH   1  31
ATOM     31  C   UNL     1      -1.724   1.581   1.174  0.00  0.00    +0.143 A 
ATOM     32  N   UNL     1      -2.155   0.363   1.394  0.00  0.00    -0.115 NA
ATOM     33  N   UNL     1      -2.576   0.304   2.611  0.00  0.00    -0.023 NA
ATOM     34  N   UNL     1      -2.432   1.454   3.169  0.00  0.00    -0.044 NA
ATOM     35  N   UNL     1      -1.909   2.269   2.316  0.00  0.00    -0.228 N 
BRANCH  35  36
ATOM     36  C   UNL     1      -1.580   3.678   2.547  0.00  0.00    +0.178 C 
BRANCH  36  37
ATOM     37  C   UNL     1      -2.783   4.549   2.183  0.00  0.00    +0.140 C 
ATOM     38  C   UNL     1      -2.408   6.041   2.312  0.00  0.00    +0.035 C 
ATOM     39  C   UNL     1      -3.699   6.654   2.921  0.00  0.00    +0.031 C 
ATOM     40  C   UNL     1      -4.181   5.488   3.821  0.00  0.00    +0.160 C 
ATOM     41  O   UNL     1      -3.861   4.293   3.091  0.00  0.00    -0.375 OA
ENDBRANCH  36  37
ENDBRANCH  35  36
ENDBRANCH   1  31
TORSDOF 8
