REMARK  Name = ZINC41852496
REMARK  4 active torsions:
REMARK  status: ('A' for Active; 'I' for Inactive)
REMARK    1  A    between atoms: C_1  and  C_2
REMARK    2  A    between atoms: C_5  and  C_23
REMARK    3  A    between atoms: N_8  and  C_10
REMARK    4  A    between atoms: C_10  and  C_20
REMARK                            x       y       z     vdW  Elec       q    Type
REMARK                         _______ _______ _______ _____ _____    ______ ____
ROOT
ATOM      1  C   UNL     1       1.413  -2.463   2.461  0.00  0.00    +0.066 C 
ATOM      2  C   UNL     1       2.734  -1.727   2.324  0.00  0.00    +0.015 C 
ATOM      3  C   UNL     1       3.558  -1.930   3.604  0.00  0.00    +0.074 C 
ATOM      4  S   UNL     1       4.137  -3.653   3.600  0.00  0.00    -0.125 S 
ATOM      5  C   UNL     1       2.695  -4.564   3.144  0.00  0.00    +0.010 A 
ATOM      6  C   UNL     1       1.563  -3.944   2.649  0.00  0.00    -0.034 A 
ATOM      7  C   UNL     1       0.469  -4.730   2.296  0.00  0.00    +0.004 A 
ATOM      8  C   UNL     1       0.501  -6.100   2.443  0.00  0.00    +0.000 A 
ATOM      9  C   UNL     1       1.632  -6.716   2.948  0.00  0.00    +0.001 A 
ATOM     10  C   UNL     1       2.724  -5.950   3.296  0.00  0.00    +0.015 A 
ENDROOT
BRANCH   1  16
ATOM     11  C   UNL     1      -0.365   0.985  -0.525  0.00  0.00    +0.005 C 
ATOM     12  C   UNL     1      -0.325  -0.517  -0.236  0.00  0.00    -0.031 C 
ATOM     13  C   UNL     1       0.238  -1.257  -1.453  0.00  0.00    +0.003 C 
ATOM     14  C   UNL     1       0.347  -2.749  -1.126  0.00  0.00    -0.031 C 
ATOM     15  C   UNL     1       1.220  -2.930   0.118  0.00  0.00    -0.074 C 
ATOM     16  N   UNL     1       0.615  -2.222   1.252  0.00  0.00    +0.394 N 
ATOM     17  C   UNL     1       0.572  -0.781   0.975  0.00  0.00    -0.074 C 
ATOM     18  C   UNL     1      -1.048  -3.317  -0.860  0.00  0.00    +0.005 C 
ATOM     19  H   UNL     1      -0.324  -2.563   1.398  0.00  0.00    -0.080 HD
ENDBRANCH   1  16
BRANCH   1  20
ATOM     20  C   UNL     1       0.673  -1.900   3.646  0.00  0.00    +0.350 C 
ATOM     21  O   UNL     1      -0.344  -1.248   3.476  0.00  0.00    -0.248 OA
ATOM     22  O   UNL     1       1.089  -2.096   4.775  0.00  0.00    -0.248 OA
ENDBRANCH   1  20
TORSDOF 2
