REMARK  Name = ZINC43262130
REMARK  13 active torsions:
REMARK  status: ('A' for Active; 'I' for Inactive)
REMARK    1  A    between atoms: C_1  and  C_2
REMARK    2  A    between atoms: C_2  and  C_3
REMARK    3  A    between atoms: C_3  and  C_5
REMARK    4  A    between atoms: C_3  and  N_23
REMARK    5  A    between atoms: C_5  and  C_7
REMARK    6  A    between atoms: C_5  and  N_13
REMARK    7  A    between atoms: N_13  and  C_14
REMARK    8  A    between atoms: N_13  and  C_15
REMARK    9  A    between atoms: C_15  and  C_16
REMARK   10  A    between atoms: N_18  and  C_19
REMARK   11  A    between atoms: N_18  and  C_21
REMARK   12  A    between atoms: C_19  and  C_20
REMARK   13  A    between atoms: C_21  and  C_22
REMARK                            x       y       z     vdW  Elec       q    Type
REMARK                         _______ _______ _______ _____ _____    ______ ____
ROOT
ATOM      1  C   UNL     1       0.640  -2.056  -1.429  0.00  0.00    -0.045 C 
ENDROOT
BRANCH   1   2
ATOM      2  C   UNL     1       1.436  -2.514  -2.624  0.00  0.00    -0.024 A 
ATOM      3  C   UNL     1       2.664  -3.086  -2.663  0.00  0.00    +0.010 A 
ATOM      4  C   UNL     1       3.207  -3.427  -3.888  0.00  0.00    +0.023 A 
ATOM      5  C   UNL     1       2.493  -3.180  -5.014  0.00  0.00    +0.055 A 
ATOM      6  S   UNL     1       1.004  -2.449  -4.355  0.00  0.00    -0.088 S 
ATOM      7 BR   UNL     1       2.954  -3.525  -6.816  0.00  0.00    -0.043 Br
ENDBRANCH   1   2
BRANCH   1   8
ATOM      8  N   UNL     1      -0.774  -2.405  -1.621  0.00  0.00    +0.387 N 
ATOM      9  C   UNL     1      -1.558  -1.917  -0.479  0.00  0.00    -0.095 C 
ATOM     10  H   UNL     1      -1.114  -1.976  -2.470  0.00  0.00    -0.081 HD
BRANCH   8  11
ATOM     11  C   UNL     1      -0.910  -3.864  -1.721  0.00  0.00    +0.019 C 
BRANCH  11  12
ATOM     12  C   UNL     1      -2.341  -4.215  -2.040  0.00  0.00    +0.199 C 
ATOM     13  O   UNL     1      -3.166  -3.336  -2.171  0.00  0.00    -0.278 OA
ATOM     14  N   UNL     1      -2.703  -5.505  -2.179  0.00  0.00    -0.304 N 
BRANCH  14  15
ATOM     15  C   UNL     1      -4.093  -5.846  -2.489  0.00  0.00    +0.104 C 
ATOM     16  C   UNL     1      -4.280  -5.897  -4.007  0.00  0.00    +0.024 C 
ENDBRANCH  14  15
BRANCH  14  17
ATOM     17  C   UNL     1      -1.706  -6.567  -2.020  0.00  0.00    +0.104 C 
ATOM     18  C   UNL     1      -1.657  -7.005  -0.555  0.00  0.00    +0.024 C 
ENDBRANCH  14  17
ENDBRANCH  11  12
ENDBRANCH   8  11
ENDBRANCH   1   8
BRANCH   1  19
ATOM     19  C   UNL     1       0.775  -0.540  -1.276  0.00  0.00    -0.085 C 
BRANCH  19  20
ATOM     20  N   UNL     1       0.266   0.122  -2.485  0.00  0.00    +0.379 N 
ATOM     21  H   UNL     1      -0.705  -0.117  -2.616  0.00  0.00    -0.090 HD
ATOM     22  H   UNL     1       0.356   1.122  -2.384  0.00  0.00    -0.090 HD
ATOM     23  H   UNL     1       0.799  -0.184  -3.285  0.00  0.00    -0.090 HD
ENDBRANCH  19  20
BRANCH  19  25
ATOM     24  C   UNL     1       2.368   1.316  -0.767  0.00  0.00    +0.002 C 
ATOM     25  C   UNL     1       2.248  -0.177  -1.078  0.00  0.00    -0.021 C 
ENDBRANCH  19  25
ENDBRANCH   1  19
TORSDOF 9
