REMARK  Name = ZINC35745910
REMARK  15 active torsions:
REMARK  status: ('A' for Active; 'I' for Inactive)
REMARK    1  A    between atoms: C_1  and  C_2
REMARK    2  A    between atoms: C_2  and  C_3
REMARK    3  A    between atoms: C_3  and  C_4
REMARK    4  A    between atoms: C_4  and  C_6
REMARK    5  A    between atoms: C_4  and  O_37
REMARK    6  A    between atoms: C_6  and  N_7
REMARK    7  A    between atoms: N_7  and  C_8
REMARK    8  A    between atoms: N_7  and  C_15
REMARK    9  A    between atoms: C_8  and  C_9
REMARK   10  A    between atoms: C_15  and  C_16
REMARK   11  A    between atoms: C_22  and  C_27
REMARK   12  A    between atoms: C_30  and  O_35
REMARK   13  A    between atoms: C_31  and  O_33
REMARK   14  A    between atoms: O_33  and  C_34
REMARK   15  A    between atoms: O_35  and  C_36
REMARK                            x       y       z     vdW  Elec       q    Type
REMARK                         _______ _______ _______ _____ _____    ______ ____
ROOT
ATOM      1  C   UNL     1       2.546  -5.809   3.242  0.00  0.00    +0.094 A 
ATOM      2  N   UNL     1       3.283  -6.429   4.199  0.00  0.00    -0.312 N 
ATOM      3  H   UNL     1       3.633  -5.910   4.940  0.00  0.00    +0.170 HD
ATOM      4  C   UNL     1       3.537  -7.749   4.140  0.00  0.00    +0.260 A 
ATOM      5  O   UNL     1       4.200  -8.291   5.007  0.00  0.00    -0.267 OA
ATOM      6  C   UNL     1       3.017  -8.508   3.043  0.00  0.00    +0.080 A 
ATOM      7  C   UNL     1       3.151  -9.931   2.759  0.00  0.00    +0.004 A 
ATOM      8  C   UNL     1       2.563 -10.432   1.646  0.00  0.00    +0.056 A 
ATOM      9  S   UNL     1       1.788  -9.006   0.911  0.00  0.00    -0.076 S 
ATOM     10  C   UNL     1       2.267  -7.782   2.103  0.00  0.00    +0.116 A 
ATOM     11  N   UNL     1       2.054  -6.475   2.232  0.00  0.00    -0.229 NA
ENDROOT
BRANCH   7  12
ATOM     12  C   UNL     1       3.918 -10.814   3.671  0.00  0.00    -0.013 A 
ATOM     13  C   UNL     1       5.201 -10.450   4.079  0.00  0.00    +0.012 A 
ATOM     14  C   UNL     1       5.914 -11.273   4.928  0.00  0.00    +0.050 A 
ATOM     15  C   UNL     1       5.358 -12.461   5.376  0.00  0.00    +0.162 A 
ATOM     16  C   UNL     1       4.077 -12.829   4.972  0.00  0.00    +0.162 A 
ATOM     17  C   UNL     1       3.356 -12.006   4.125  0.00  0.00    +0.058 A 
BRANCH  16  18
ATOM     18  O   UNL     1       3.534 -13.995   5.413  0.00  0.00    -0.491 OA
ATOM     19  C   UNL     1       2.216 -14.309   4.958  0.00  0.00    +0.277 C 
ENDBRANCH  16  18
BRANCH  15  20
ATOM     20  O   UNL     1       6.064 -13.269   6.212  0.00  0.00    -0.491 OA
ATOM     21  C   UNL     1       7.372 -12.830   6.586  0.00  0.00    +0.277 C 
ENDBRANCH  15  20
ENDBRANCH   7  12
BRANCH   1  22
ATOM     22  C   UNL     1       2.287  -4.328   3.350  0.00  0.00    -0.003 C 
BRANCH  22  23
ATOM     23  N   UNL     1       1.468  -3.890   2.211  0.00  0.00    +0.389 N 
ATOM     24  H   UNL     1       1.920  -4.158   1.349  0.00  0.00    -0.081 HD
BRANCH  23  25
ATOM     25  C   UNL     1       1.316  -2.430   2.251  0.00  0.00    -0.046 C 
BRANCH  25  26
ATOM     26  C   UNL     1       0.795  -1.934   0.901  0.00  0.00    +0.098 C 
BRANCH  26  27
ATOM     27  O   UNL     1      -0.542  -2.400   0.706  0.00  0.00    -0.394 OA
ATOM     28  H   UNL     1      -1.188  -2.004   1.306  0.00  0.00    +0.210 HD
ENDBRANCH  26  27
BRANCH  26  29
ATOM     29  C   UNL     1       0.810  -0.404   0.878  0.00  0.00    +0.029 C 
BRANCH  29  31
ATOM     30  C   UNL     1       0.423   1.619  -0.535  0.00  0.00    +0.004 C 
ATOM     31  C   UNL     1       0.408   0.089  -0.513  0.00  0.00    -0.001 C 
ENDBRANCH  29  31
ENDBRANCH  26  29
ENDBRANCH  25  26
ENDBRANCH  23  25
BRANCH  23  32
ATOM     32  C   UNL     1       0.145  -4.523   2.287  0.00  0.00    -0.042 C 
BRANCH  32  33
ATOM     33  C   UNL     1      -0.474  -4.232   3.630  0.00  0.00    -0.064 A 
ATOM     34  C   UNL     1      -0.272  -5.101   4.687  0.00  0.00    +0.002 A 
ATOM     35  C   UNL     1      -0.840  -4.834   5.919  0.00  0.00    +0.000 A 
ATOM     36  C   UNL     1      -1.610  -3.699   6.094  0.00  0.00    +0.000 A 
ATOM     37  C   UNL     1      -1.811  -2.831   5.038  0.00  0.00    +0.000 A 
ATOM     38  C   UNL     1      -1.239  -3.095   3.807  0.00  0.00    +0.002 A 
ENDBRANCH  32  33
ENDBRANCH  23  32
ENDBRANCH  22  23
ENDBRANCH   1  22
TORSDOF 12
