REMARK  Name = ZINC22941980
REMARK  10 active torsions:
REMARK  status: ('A' for Active; 'I' for Inactive)
REMARK    1  A    between atoms: C_1  and  C_2
REMARK    2  A    between atoms: C_2  and  N_3
REMARK    3  A    between atoms: N_6  and  C_9
REMARK    4  A    between atoms: C_9  and  C_11
REMARK    5  A    between atoms: C_9  and  C_16
REMARK    6  A    between atoms: C_16  and  C_18
REMARK    7  A    between atoms: C_16  and  N_19
REMARK    8  A    between atoms: N_21  and  C_22
REMARK    9  A    between atoms: C_26  and  C_29
REMARK   10  A    between atoms: C_27  and  C_28
REMARK                            x       y       z     vdW  Elec       q    Type
REMARK                         _______ _______ _______ _____ _____    ______ ____
ROOT
ATOM      1  C   UNL     1      -5.131  -4.436  -1.219  0.00  0.00    +0.100 C 
ATOM      2  C   UNL     1      -6.472  -4.691  -1.911  0.00  0.00    +0.032 C 
ENDROOT
BRANCH   1   3
ATOM      3  N   UNL     1      -4.038  -4.730  -2.149  0.00  0.00    -0.363 N 
ATOM      4  C   UNL     1      -3.578  -6.010  -2.280  0.00  0.00    +0.143 C 
ATOM      5  N   UNL     1      -2.557  -6.285  -3.148  0.00  0.00    -0.295 N 
ATOM      6  S   UNL     1      -4.258  -7.232  -1.385  0.00  0.00    -0.016 SA
ATOM      7  H   UNL     1      -2.333  -5.652  -3.848  0.00  0.00    +0.154 HD
ATOM      8  H   UNL     1      -3.641  -4.016  -2.672  0.00  0.00    +0.162 HD
BRANCH   5   9
ATOM      9  C   UNL     1      -1.837  -7.478  -3.025  0.00  0.00    +0.036 A 
ATOM     10  C   UNL     1      -1.481  -7.950  -1.768  0.00  0.00    +0.023 A 
ATOM     11  C   UNL     1      -0.770  -9.128  -1.651  0.00  0.00    +0.002 A 
ATOM     12  C   UNL     1      -0.411  -9.837  -2.783  0.00  0.00    +0.004 A 
ATOM     13  C   UNL     1      -0.764  -9.369  -4.035  0.00  0.00    -0.046 A 
ATOM     14  C   UNL     1      -1.481  -8.195  -4.160  0.00  0.00    -0.026 A 
ATOM     15  C   UNL     1      -1.870  -7.689  -5.525  0.00  0.00    +0.046 C 
ATOM     16  C   UNL     1      -0.372 -10.145  -5.266  0.00  0.00    +0.044 C 
ENDBRANCH   5   9
ENDBRANCH   1   3
BRANCH   1  17
ATOM     17  C   UNL     1      -5.052  -2.970  -0.786  0.00  0.00    +0.115 C 
BRANCH  17  21
ATOM     18  N   UNL     1      -2.067  -1.900   2.009  0.00  0.00    +0.381 N 
ATOM     19  C   UNL     1      -2.218  -1.068   0.808  0.00  0.00    -0.063 C 
ATOM     20  C   UNL     1      -3.603  -1.298   0.199  0.00  0.00    +0.066 C 
ATOM     21  N   UNL     1      -3.754  -2.719  -0.145  0.00  0.00    -0.297 NA
ATOM     22  C   UNL     1      -3.580  -3.566   1.043  0.00  0.00    +0.066 C 
ATOM     23  C   UNL     1      -2.195  -3.317   1.645  0.00  0.00    -0.063 C 
ATOM     24  H   UNL     1      -2.783  -1.659   2.678  0.00  0.00    -0.082 HD
BRANCH  18  26
ATOM     25  C   UNL     1      -0.655  -0.220   3.096  0.00  0.00    -0.017 C 
ATOM     26  C   UNL     1      -0.744  -1.666   2.603  0.00  0.00    -0.082 C 
ENDBRANCH  18  26
ENDBRANCH  17  21
BRANCH  17  27
ATOM     27  C   UNL     1      -5.197  -2.081  -1.993  0.00  0.00    +0.009 A 
ATOM     28  C   UNL     1      -6.290  -1.409  -2.432  0.00  0.00    +0.013 A 
ATOM     29  C   UNL     1      -6.190  -0.643  -3.578  0.00  0.00    +0.008 A 
ATOM     30  C   UNL     1      -5.003  -0.586  -4.230  0.00  0.00    +0.045 A 
ATOM     31  S   UNL     1      -3.973  -1.631  -3.212  0.00  0.00    -0.100 S 
ENDBRANCH  17  27
ENDBRANCH   1  17
TORSDOF 6
