REMARK  Name = ZINC38744805
REMARK  4 active torsions:
REMARK  status: ('A' for Active; 'I' for Inactive)
REMARK    1  A    between atoms: C_1  and  C_2
REMARK    2  A    between atoms: C_5  and  C_8
REMARK    3  A    between atoms: C_14  and  C_17
REMARK    4  A    between atoms: C_20  and  C_23
REMARK                            x       y       z     vdW  Elec       q    Type
REMARK                         _______ _______ _______ _____ _____    ______ ____
ROOT
ATOM      1  C   UNL     1       0.058  -4.251  -0.021  0.00  0.00    +0.182 A 
ATOM      2  N   UNL     1      -0.205  -5.021  -1.047  0.00  0.00    -0.127 NA
ATOM      3  N   UNL     1      -0.107  -6.258  -0.705  0.00  0.00    -0.120 NA
ATOM      4  C   UNL     1       0.205  -6.339   0.553  0.00  0.00    +0.211 A 
ATOM      5  N   UNL     1       0.365  -5.074   1.058  0.00  0.00    -0.220 N 
ATOM      6  N   UNL     1       0.764  -4.920   2.353  0.00  0.00    -0.265 N 
ATOM      7  C   UNL     1       0.512  -6.094   3.231  0.00  0.00    +0.182 C 
ATOM      8  S   UNL     1       0.525  -7.410   1.939  0.00  0.00    -0.058 S 
ATOM      9  H   UNL     1       1.729  -4.632   2.402  0.00  0.00    +0.168 HD
ENDROOT
BRANCH   1  14
ATOM     10  C   UNL     1      -0.018   1.503   0.010  0.00  0.00    +0.044 C 
ATOM     11  C   UNL     1       0.002  -0.004   0.002  0.00  0.00    -0.050 A 
ATOM     12  C   UNL     1       0.006  -0.686  -1.202  0.00  0.00    +0.004 A 
ATOM     13  C   UNL     1       0.024  -2.066  -1.216  0.00  0.00    +0.012 A 
ATOM     14  C   UNL     1       0.039  -2.773  -0.013  0.00  0.00    +0.021 A 
ATOM     15  C   UNL     1       0.036  -2.079   1.198  0.00  0.00    +0.012 A 
ATOM     16  C   UNL     1       0.023  -0.699   1.198  0.00  0.00    +0.004 A 
ENDBRANCH   1  14
BRANCH   7  17
ATOM     17  C   UNL     1       1.637  -6.286   4.250  0.00  0.00    +0.185 C 
ATOM     18  C   UNL     1       1.332  -7.454   5.171  0.00  0.00    +0.034 C 
ATOM     19  C   UNL     1       1.268  -6.893   6.394  0.00  0.00    +0.091 C 
ATOM     20  N   UNL     1       1.493  -5.555   6.313  0.00  0.00    -0.154 NA
ATOM     21  N   UNL     1       1.708  -5.138   5.169  0.00  0.00    -0.177 NA
BRANCH  19  22
ATOM     22  C   UNL     1       0.989  -7.630   7.650  0.00  0.00    +0.002 A 
ATOM     23  C   UNL     1       0.776  -9.007   7.621  0.00  0.00    +0.010 A 
ATOM     24  C   UNL     1       0.517  -9.688   8.793  0.00  0.00    +0.001 A 
ATOM     25  C   UNL     1       0.469  -9.006   9.996  0.00  0.00    +0.000 A 
ATOM     26  C   UNL     1       0.679  -7.640  10.031  0.00  0.00    +0.001 A 
ATOM     27  C   UNL     1       0.944  -6.949   8.866  0.00  0.00    +0.010 A 
ENDBRANCH  19  22
ENDBRANCH   7  17
TORSDOF 3
