REMARK  Name = ZINC09763194
REMARK  7 active torsions:
REMARK  status: ('A' for Active; 'I' for Inactive)
REMARK    1  A    between atoms: C_4  and  O_20
REMARK    2  A    between atoms: C_5  and  C_7
REMARK    3  A    between atoms: N_8  and  N_9
REMARK    4  A    between atoms: C_14  and  C_17
REMARK    5  A    between atoms: C_17  and  C_18
REMARK    6  A    between atoms: O_20  and  C_21
REMARK    7  A    between atoms: C_21  and  C_22
REMARK                            x       y       z     vdW  Elec       q    Type
REMARK                         _______ _______ _______ _____ _____    ______ ____
ROOT
ATOM      1  C   UNL     1      -2.272  -4.241   0.002  0.00  0.00    +0.001 A 
ATOM      2  C   UNL     1      -1.063  -4.916  -0.013  0.00  0.00    +0.004 A 
ATOM      3  C   UNL     1       0.129  -4.217  -0.021  0.00  0.00    +0.046 A 
ATOM      4  C   UNL     1       0.122  -2.832  -0.014  0.00  0.00    +0.130 A 
ATOM      5  C   UNL     1      -1.100  -2.143   0.001  0.00  0.00    +0.036 A 
ATOM      6  C   UNL     1      -2.298  -2.862   0.015  0.00  0.00    +0.013 A 
ENDROOT
BRANCH   5   7
ATOM      7  C   UNL     1      -1.120  -0.672   0.009  0.00  0.00    +0.146 C 
ATOM      8  N   UNL     1       0.002  -0.004   0.002  0.00  0.00    -0.155 NA
BRANCH   8   9
ATOM      9  N   UNL     1      -0.015   1.286   0.009  0.00  0.00    -0.127 NA
ATOM     10  C   UNL     1       1.115   1.959   0.002  0.00  0.00    +0.183 C 
ATOM     11  N   UNL     1       2.402   1.463  -0.007  0.00  0.00    -0.263 N 
ATOM     12  C   UNL     1       3.464   2.251  -0.018  0.00  0.00    +0.233 C 
ATOM     13  O   UNL     1       4.593   1.809  -0.030  0.00  0.00    -0.274 OA
ATOM     14  C   UNL     1       3.180   3.744  -0.007  0.00  0.00    +0.151 C 
ATOM     15  S   UNL     1       1.344   3.731   0.009  0.00  0.00    -0.075 S 
ATOM     16  H   UNL     1       2.533   0.502  -0.009  0.00  0.00    +0.157 HD
BRANCH  14  17
ATOM     17  C   UNL     1       3.719   4.420  -1.270  0.00  0.00    +0.149 C 
BRANCH  17  18
ATOM     18  C   UNL     1       3.361   5.884  -1.247  0.00  0.00    +0.358 C 
ATOM     19  O   UNL     1       2.740   6.340  -0.316  0.00  0.00    -0.246 OA
ATOM     20  O   UNL     1       3.734   6.682  -2.260  0.00  0.00    -0.246 OA
ENDBRANCH  17  18
ENDBRANCH  14  17
ENDBRANCH   8   9
ENDBRANCH   5   7
BRANCH   4  21
ATOM     21  O   UNL     1       1.293  -2.144  -0.023  0.00  0.00    -0.487 OA
BRANCH  21  22
ATOM     22  C   UNL     1       2.498  -2.913  -0.038  0.00  0.00    +0.264 C 
BRANCH  22  23
ATOM     23  C   UNL     1       3.686  -1.986  -0.046  0.00  0.00    -0.010 A 
ATOM     24  C   UNL     1       4.222  -1.560  -1.246  0.00  0.00    +0.008 A 
ATOM     25  C   UNL     1       5.309  -0.706  -1.254  0.00  0.00    +0.015 A 
ATOM     26  C   UNL     1       5.866  -0.286  -0.059  0.00  0.00    +0.018 A 
ATOM     27  C   UNL     1       5.332  -0.717   1.142  0.00  0.00    +0.015 A 
ATOM     28  C   UNL     1       4.242  -1.567   1.148  0.00  0.00    +0.008 A 
ATOM     29 BR   UNL     1       7.357   0.877  -0.069  0.00  0.00    -0.050 Br
ENDBRANCH  22  23
ENDBRANCH  21  22
ENDBRANCH   4  21
TORSDOF 7
