REMARK  Name = ZINC66280557
REMARK  2 active torsions:
REMARK  status: ('A' for Active; 'I' for Inactive)
REMARK    1  A    between atoms: C_12  and  C_14
REMARK    2  A    between atoms: C_17  and  C_19
REMARK                            x       y       z     vdW  Elec       q    Type
REMARK                         _______ _______ _______ _____ _____    ______ ____
ROOT
ATOM      1  C   UNL     1      -0.075   1.234  -0.125  0.00  0.00    +0.002 A 
ATOM      2  C   UNL     1       1.093   1.928   0.135  0.00  0.00    +0.002 A 
ATOM      3  C   UNL     1       2.313   1.277   0.091  0.00  0.00    +0.025 A 
ATOM      4  C   UNL     1       2.361  -0.071  -0.214  0.00  0.00    +0.058 A 
ATOM      5  C   UNL     1       1.183  -0.773  -0.480  0.00  0.00    +0.055 A 
ATOM      6  C   UNL     1      -0.034  -0.113  -0.432  0.00  0.00    +0.025 A 
ATOM      7  N   UNL     1       1.248  -2.134  -0.799  0.00  0.00    -0.283 N 
ATOM      8  C   UNL     1       2.374  -2.839  -0.578  0.00  0.00    +0.235 C 
ATOM      9  O   UNL     1       2.423  -4.007  -0.903  0.00  0.00    -0.274 OA
ATOM     10  C   UNL     1       3.574  -2.195   0.067  0.00  0.00    +0.210 C 
ATOM     11  N   UNL     1       3.581  -0.761  -0.260  0.00  0.00    -0.256 N 
ATOM     12  C   UNL     1       4.725  -0.129  -0.593  0.00  0.00    +0.259 C 
ATOM     13  O   UNL     1       4.692   1.025  -0.977  0.00  0.00    -0.269 OA
ATOM     14  H   UNL     1       0.474  -2.574  -1.183  0.00  0.00    +0.155 HD
ENDROOT
BRANCH  12  15
ATOM     15  C   UNL     1       6.005  -0.832  -0.492  0.00  0.00    +0.094 A 
ATOM     16  C   UNL     1       7.270  -0.435  -0.907  0.00  0.00    +0.132 A 
ATOM     17  N   UNL     1       8.282  -1.232  -0.713  0.00  0.00    -0.246 NA
ATOM     18  C   UNL     1       8.133  -2.420  -0.126  0.00  0.00    +0.115 A 
ATOM     19  S   UNL     1       6.376  -2.436   0.207  0.00  0.00    -0.062 S 
BRANCH  18  20
ATOM     20  C   UNL     1       9.144  -3.441   0.174  0.00  0.00    +0.044 A 
ATOM     21  C   UNL     1      10.505  -3.421  -0.074  0.00  0.00    +0.018 A 
ATOM     22  C   UNL     1      11.255  -4.509   0.303  0.00  0.00    +0.008 A 
ATOM     23  C   UNL     1      10.642  -5.564   0.903  0.00  0.00    +0.046 A 
ATOM     24  S   UNL     1       8.939  -5.031   0.960  0.00  0.00    -0.095 S 
ENDBRANCH  18  20
ENDBRANCH  12  15
TORSDOF 2
