REMARK  Name = ZINC45860464
REMARK  7 active torsions:
REMARK  status: ('A' for Active; 'I' for Inactive)
REMARK    1  A    between atoms: C_1  and  C_2
REMARK    2  A    between atoms: C_3  and  C_30
REMARK    3  A    between atoms: C_9  and  C_12
REMARK    4  A    between atoms: N_14  and  C_15
REMARK    5  A    between atoms: C_15  and  C_17
REMARK    6  A    between atoms: C_15  and  C_24
REMARK    7  A    between atoms: N_28  and  C_29
REMARK                            x       y       z     vdW  Elec       q    Type
REMARK                         _______ _______ _______ _____ _____    ______ ____
ROOT
ATOM      1  C   UNL     1       0.069  -1.528   4.877  0.00  0.00    +0.245 C 
ATOM      2  O   UNL     1       0.058  -0.396   5.321  0.00  0.00    -0.270 OA
ATOM      3  N   UNL     1       0.091  -2.581   5.718  0.00  0.00    -0.298 N 
ATOM      4  H   UNL     1       0.100  -3.484   5.364  0.00  0.00    +0.150 HD
ENDROOT
BRANCH   1  13
ATOM      5  C   UNL     1      -0.018   1.503   0.010  0.00  0.00    +0.046 C 
ATOM      6  C   UNL     1       0.002  -0.004   0.002  0.00  0.00    -0.022 A 
ATOM      7  C   UNL     1       0.009  -0.797  -1.081  0.00  0.00    +0.017 A 
ATOM      8  N   UNL     1       0.028  -2.111  -0.697  0.00  0.00    -0.358 N 
ATOM      9  H   UNL     1       0.037  -2.868  -1.304  0.00  0.00    +0.166 HD
ATOM     10  C   UNL     1       0.035  -2.200   0.674  0.00  0.00    +0.047 A 
ATOM     11  C   UNL     1       0.025  -0.883   1.175  0.00  0.00    +0.004 A 
ATOM     12  C   UNL     1       0.035  -0.661   2.549  0.00  0.00    +0.023 A 
ATOM     13  C   UNL     1       0.058  -1.749   3.417  0.00  0.00    +0.037 A 
ATOM     14  C   UNL     1       0.071  -3.054   2.906  0.00  0.00    +0.015 A 
ATOM     15  C   UNL     1       0.054  -3.275   1.561  0.00  0.00    +0.027 A 
ATOM     16  C   UNL     1      -0.004  -0.313  -2.507  0.00  0.00    +0.063 C 
ENDBRANCH   1  13
BRANCH   3  17
ATOM     17  C   UNL     1       0.102  -2.362   7.166  0.00  0.00    +0.170 C 
BRANCH  17  18
ATOM     18  C   UNL     1      -0.475  -3.568   7.861  0.00  0.00    -0.020 A 
ATOM     19  C   UNL     1      -0.165  -4.838   7.413  0.00  0.00    +0.007 A 
ATOM     20  C   UNL     1      -0.694  -5.945   8.050  0.00  0.00    +0.020 A 
ATOM     21  C   UNL     1      -1.535  -5.781   9.136  0.00  0.00    +0.041 A 
ATOM     22  C   UNL     1      -1.845  -4.510   9.584  0.00  0.00    +0.020 A 
ATOM     23  C   UNL     1      -1.311  -3.404   8.950  0.00  0.00    +0.007 A 
ATOM     24 CL   UNL     1      -2.200  -7.170   9.936  0.00  0.00    -0.084 Cl
ENDBRANCH  17  18
BRANCH  17  25
ATOM     25  C   UNL     1       1.519  -2.145   7.631  0.00  0.00    +0.134 A 
ATOM     26  N   UNL     1       2.555  -2.850   7.267  0.00  0.00    -0.238 NA
ATOM     27  C   UNL     1       3.651  -2.374   7.877  0.00  0.00    +0.130 A 
ATOM     28  C   UNL     1       3.279  -1.334   8.648  0.00  0.00    +0.106 A 
ATOM     29  N   UNL     1       1.928  -1.185   8.488  0.00  0.00    -0.336 N 
ATOM     30  C   UNL     1       1.083  -0.174   9.129  0.00  0.00    +0.150 C 
ENDBRANCH  17  25
ENDBRANCH   3  17
TORSDOF 4
