REMARK  Name = ZINC64436183
REMARK  6 active torsions:
REMARK  status: ('A' for Active; 'I' for Inactive)
REMARK    1  A    between atoms: C_1  and  C_2
REMARK    2  A    between atoms: C_2  and  C_3
REMARK    3  A    between atoms: C_2  and  C_4
REMARK    4  A    between atoms: C_2  and  C_5
REMARK    5  A    between atoms: C_7  and  C_11
REMARK    6  A    between atoms: C_15  and  C_20
REMARK                            x       y       z     vdW  Elec       q    Type
REMARK                         _______ _______ _______ _____ _____    ______ ____
ROOT
ATOM      1  C   UNL     1       3.328  -0.470  -3.312  0.00  0.00    +0.182 C 
ATOM      2  N   UNL     1       3.902  -1.327  -4.383  0.00  0.00    -0.265 N 
ATOM      3  N   UNL     1       3.969  -0.743  -5.614  0.00  0.00    -0.220 N 
ATOM      4  C   UNL     1       4.070  -1.158  -6.938  0.00  0.00    +0.182 A 
ATOM      5  N   UNL     1       4.140  -0.086  -7.688  0.00  0.00    -0.127 NA
ATOM      6  N   UNL     1       4.075   0.968  -6.954  0.00  0.00    -0.120 NA
ATOM      7  C   UNL     1       3.953   0.625  -5.707  0.00  0.00    +0.211 A 
ATOM      8  S   UNL     1       3.750   1.179  -4.024  0.00  0.00    -0.058 S 
ATOM      9  H   UNL     1       4.800  -1.696  -4.109  0.00  0.00    +0.168 HD
ENDROOT
BRANCH   4  10
ATOM     10  C   UNL     1       4.095  -2.557  -7.413  0.00  0.00    +0.024 A 
ATOM     11  C   UNL     1       4.322  -3.615  -6.524  0.00  0.00    +0.031 A 
ATOM     12  C   UNL     1       4.336  -4.905  -7.011  0.00  0.00    +0.111 A 
ATOM     13  N   UNL     1       4.141  -5.148  -8.293  0.00  0.00    -0.263 NA
ATOM     14  C   UNL     1       3.925  -4.181  -9.164  0.00  0.00    +0.111 A 
ATOM     15  C   UNL     1       3.888  -2.862  -8.764  0.00  0.00    +0.031 A 
ENDBRANCH   4  10
BRANCH   1  18
ATOM     16  C   UNL     1       0.707  -0.490  -1.238  0.00  0.00    +0.067 C 
ATOM     17  C   UNL     1       1.233   0.306  -2.172  0.00  0.00    +0.029 C 
ATOM     18  C   UNL     1       1.815  -0.660  -3.189  0.00  0.00    +0.185 C 
ATOM     19  N   UNL     1       1.496  -1.978  -2.615  0.00  0.00    -0.177 NA
ATOM     20  N   UNL     1       0.899  -1.790  -1.552  0.00  0.00    -0.158 NA
BRANCH  16  22
ATOM     21  C   UNL     1      -0.019   1.526   0.010  0.00  0.00    +0.017 C 
ATOM     22  C   UNL     1       0.002  -0.004   0.002  0.00  0.00    +0.006 C 
ATOM     23  C   UNL     1       0.742  -0.511   1.242  0.00  0.00    +0.017 C 
ATOM     24  C   UNL     1      -1.433  -0.534   0.013  0.00  0.00    +0.017 C 
ENDBRANCH  16  22
ENDBRANCH   1  18
TORSDOF 3
