REMARK  Name = ZINC58297611
REMARK  4 active torsions:
REMARK  status: ('A' for Active; 'I' for Inactive)
REMARK    1  A    between atoms: C_1  and  C_2
REMARK    2  A    between atoms: C_9  and  C_11
REMARK    3  A    between atoms: C_17  and  C_19
REMARK    4  A    between atoms: N_22  and  C_24
REMARK                            x       y       z     vdW  Elec       q    Type
REMARK                         _______ _______ _______ _____ _____    ______ ____
ROOT
ATOM      1  C   UNL     1       0.090  -5.594   2.249  0.00  0.00    +0.142 C 
ATOM      2  C   UNL     1       1.547  -5.999   2.560  0.00  0.00    +0.032 C 
ATOM      3  C   UNL     1       1.544  -7.529   2.302  0.00  0.00    +0.021 C 
ATOM      4  C   UNL     1       0.566  -7.641   1.106  0.00  0.00    +0.109 C 
ATOM      5  N   UNL     1      -0.478  -6.630   1.375  0.00  0.00    -0.286 N 
ATOM      6  C   UNL     1      -1.738  -6.652   0.899  0.00  0.00    +0.268 C 
ATOM      7  O   UNL     1      -2.513  -5.760   1.188  0.00  0.00    -0.268 OA
ENDROOT
BRANCH   1  16
ATOM      8  C   UNL     1      -0.018   1.503   0.010  0.00  0.00    +0.044 C 
ATOM      9  C   UNL     1       0.002  -0.004   0.002  0.00  0.00    -0.048 A 
ATOM     10  C   UNL     1       0.006  -0.687  -1.206  0.00  0.00    +0.005 A 
ATOM     11  C   UNL     1       0.024  -2.052  -1.235  0.00  0.00    +0.030 A 
ATOM     12  C   UNL     1       0.040  -2.774  -0.039  0.00  0.00    +0.089 A 
ATOM     13  C   UNL     1       0.037  -2.083   1.185  0.00  0.00    +0.067 A 
ATOM     14  C   UNL     1       0.023  -0.695   1.195  0.00  0.00    +0.031 A 
ATOM     15  N   UNL     1       0.055  -3.051   2.169  0.00  0.00    -0.340 N 
ATOM     16  C   UNL     1       0.068  -4.261   1.546  0.00  0.00    +0.129 A 
ATOM     17  N   UNL     1       0.059  -4.099   0.255  0.00  0.00    -0.231 NA
ATOM     18  H   UNL     1       0.058  -2.898   3.127  0.00  0.00    +0.167 HD
ENDBRANCH   1  16
BRANCH   6  19
ATOM     19  C   UNL     1      -2.179  -7.758   0.026  0.00  0.00    +0.151 A 
ATOM     20  C   UNL     1      -3.460  -7.915  -0.552  0.00  0.00    +0.006 A 
ATOM     21  C   UNL     1      -3.405  -9.059  -1.266  0.00  0.00    +0.049 A 
ATOM     22  N   UNL     1      -2.148  -9.559  -1.119  0.00  0.00    -0.236 N 
ATOM     23  N   UNL     1      -1.450  -8.784  -0.368  0.00  0.00    -0.161 NA
ATOM     24  C   UNL     1      -4.736  -9.323  -1.932  0.00  0.00    +0.056 C 
ATOM     25  C   UNL     1      -5.743  -8.418  -1.188  0.00  0.00    +0.011 C 
ATOM     26  C   UNL     1      -4.830  -7.290  -0.660  0.00  0.00    +0.040 C 
BRANCH  22  27
ATOM     27  C   UNL     1      -1.681 -10.743  -1.705  0.00  0.00    +0.066 A 
ATOM     28  C   UNL     1      -2.537 -11.825  -1.865  0.00  0.00    +0.028 A 
ATOM     29  C   UNL     1      -2.074 -12.990  -2.444  0.00  0.00    +0.002 A 
ATOM     30  C   UNL     1      -0.759 -13.081  -2.863  0.00  0.00    +0.000 A 
ATOM     31  C   UNL     1       0.096 -12.005  -2.704  0.00  0.00    +0.002 A 
ATOM     32  C   UNL     1      -0.363 -10.835  -2.132  0.00  0.00    +0.028 A 
ENDBRANCH  22  27
ENDBRANCH   6  19
TORSDOF 3
