REMARK  Name = ZINC34896886
REMARK  14 active torsions:
REMARK  status: ('A' for Active; 'I' for Inactive)
REMARK    1  A    between atoms: C_1  and  C_2
REMARK    2  A    between atoms: C_2  and  C_3
REMARK    3  A    between atoms: C_3  and  C_38
REMARK    4  A    between atoms: N_8  and  C_9
REMARK    5  A    between atoms: C_12  and  C_15
REMARK    6  A    between atoms: N_16  and  C_17
REMARK    7  A    between atoms: C_17  and  C_19
REMARK    8  A    between atoms: C_17  and  C_34
REMARK    9  A    between atoms: C_19  and  N_21
REMARK   10  A    between atoms: C_19  and  O_26
REMARK   11  A    between atoms: O_26  and  C_27
REMARK   12  A    between atoms: C_34  and  C_35
REMARK   13  A    between atoms: C_34  and  C_36
REMARK   14  A    between atoms: C_34  and  C_37
REMARK                            x       y       z     vdW  Elec       q    Type
REMARK                         _______ _______ _______ _____ _____    ______ ____
ROOT
ATOM      1  C   UNL     1      -0.047  -0.704   2.253  0.00  0.00    +0.089 C 
ATOM      2  C   UNL     1       0.358  -2.154   2.073  0.00  0.00    +0.090 C 
ATOM      3  N   UNL     1      -0.138  -2.800   3.097  0.00  0.00    -0.287 N 
ATOM      4  C   UNL     1      -0.811  -2.000   3.929  0.00  0.00    +0.143 C 
ATOM      5  S   UNL     1      -1.579  -2.540   5.361  0.00  0.00    -0.018 S 
ATOM      6  N   UNL     1      -0.815  -0.720   3.511  0.00  0.00    -0.270 N 
ATOM      7  N   UNL     1       1.088  -2.676   1.054  0.00  0.00    -0.325 N 
ATOM      8  C   UNL     1       1.187   0.192   2.385  0.00  0.00    +0.040 C 
ATOM      9  H   UNL     1       1.407  -2.101   0.341  0.00  0.00    +0.147 HD
ATOM     10  H   UNL     1      -0.030  -3.754   3.236  0.00  0.00    +0.155 HD
ENDROOT
BRANCH   6  11
ATOM     11  C   UNL     1      -1.423   0.371   4.141  0.00  0.00    +0.036 A 
ATOM     12  C   UNL     1      -2.807   0.436   4.238  0.00  0.00    +0.024 A 
ATOM     13  C   UNL     1      -3.404   1.514   4.861  0.00  0.00    +0.005 A 
ATOM     14  C   UNL     1      -2.626   2.528   5.388  0.00  0.00    -0.050 A 
ATOM     15  C   UNL     1      -1.247   2.467   5.293  0.00  0.00    +0.005 A 
ATOM     16  C   UNL     1      -0.643   1.388   4.677  0.00  0.00    +0.024 A 
ATOM     17  C   UNL     1      -3.281   3.704   6.067  0.00  0.00    +0.044 C 
ENDBRANCH   6  11
BRANCH   1  19
ATOM     18  C   UNL     1      -1.387   1.197   1.340  0.00  0.00    +0.006 C 
ATOM     19  C   UNL     1      -0.926  -0.241   1.090  0.00  0.00    +0.030 C 
ENDBRANCH   1  19
BRANCH   7  20
ATOM     20  C   UNL     1       1.393  -4.109   1.031  0.00  0.00    +0.140 C 
BRANCH  20  21
ATOM     21  C   UNL     1       0.228  -4.868   0.392  0.00  0.00    -0.014 C 
ATOM     22  C   UNL     1       0.114  -4.479  -1.083  0.00  0.00    +0.012 C 
ATOM     23  C   UNL     1       0.478  -6.373   0.504  0.00  0.00    +0.012 C 
ATOM     24  C   UNL     1      -1.072  -4.512   1.115  0.00  0.00    +0.012 C 
ENDBRANCH  20  21
BRANCH  20  25
ATOM     25  C   UNL     1       2.666  -4.347   0.216  0.00  0.00    +0.315 C 
BRANCH  25  26
ATOM     26  N   UNL     1       3.760  -3.549   0.775  0.00  0.00    -0.211 N 
ATOM     27  C   UNL     1       4.961  -3.999   1.178  0.00  0.00    +0.223 A 
ATOM     28  N   UNL     1       5.652  -2.977   1.613  0.00  0.00    -0.223 NA
ATOM     29  C   UNL     1       4.929  -1.863   1.505  0.00  0.00    +0.245 A 
ATOM     30  N   UNL     1       3.764  -2.161   0.992  0.00  0.00    -0.155 NA
ENDBRANCH  25  26
BRANCH  25  31
ATOM     31  O   UNL     1       3.012  -5.732   0.267  0.00  0.00    -0.465 OA
BRANCH  31  32
ATOM     32  C   UNL     1       3.768  -6.217  -0.753  0.00  0.00    +0.124 A 
ATOM     33  C   UNL     1       4.264  -5.355  -1.721  0.00  0.00    +0.047 A 
ATOM     34  C   UNL     1       5.033  -5.849  -2.756  0.00  0.00    +0.023 A 
ATOM     35  C   UNL     1       5.308  -7.203  -2.830  0.00  0.00    +0.041 A 
ATOM     36  C   UNL     1       4.814  -8.065  -1.866  0.00  0.00    +0.023 A 
ATOM     37  C   UNL     1       4.051  -7.573  -0.825  0.00  0.00    +0.047 A 
ATOM     38 CL   UNL     1       6.274  -7.822  -4.133  0.00  0.00    -0.084 Cl
ENDBRANCH  31  32
ENDBRANCH  25  31
ENDBRANCH  20  25
ENDBRANCH   7  20
TORSDOF 8
