REMARK  Name = ZINC04630800
REMARK  12 active torsions:
REMARK  status: ('A' for Active; 'I' for Inactive)
REMARK    1  A    between atoms: C_1  and  C_2
REMARK    2  A    between atoms: C_7  and  C_20
REMARK    3  A    between atoms: C_8  and  N_11
REMARK    4  A    between atoms: N_11  and  C_12
REMARK    5  A    between atoms: C_12  and  C_13
REMARK    6  A    between atoms: C_12  and  C_14
REMARK    7  A    between atoms: C_12  and  C_15
REMARK    8  A    between atoms: C_15  and  C_16
REMARK    9  A    between atoms: C_16  and  C_17
REMARK   10  A    between atoms: C_16  and  C_18
REMARK   11  A    between atoms: C_16  and  C_19
REMARK   12  A    between atoms: C_24  and  C_26
REMARK                            x       y       z     vdW  Elec       q    Type
REMARK                         _______ _______ _______ _____ _____    ______ ____
ROOT
ATOM      1  C   UNL     1      -8.673   4.213   0.178  0.00  0.00    +0.045 C 
ATOM      2  C   UNL     1      -7.327   4.679   0.668  0.00  0.00    -0.034 A 
ATOM      3  C   UNL     1      -7.238   5.813   1.496  0.00  0.00    +0.008 A 
ATOM      4  C   UNL     1      -6.023   6.234   1.938  0.00  0.00    +0.047 A 
ATOM      5  C   UNL     1      -4.864   5.523   1.558  0.00  0.00    +0.140 A 
ATOM      6  N   UNL     1      -3.585   5.704   1.841  0.00  0.00    -0.224 NA
ATOM      7  C   UNL     1      -2.856   4.751   1.230  0.00  0.00    +0.130 A 
ATOM      8  C   UNL     1      -3.723   3.929   0.537  0.00  0.00    +0.133 A 
ATOM      9  N   UNL     1      -4.982   4.418   0.746  0.00  0.00    -0.287 N 
ATOM     10  C   UNL     1      -6.214   4.009   0.310  0.00  0.00    +0.097 A 
ENDROOT
BRANCH   7  11
ATOM     11  C   UNL     1      -1.385   4.606   1.294  0.00  0.00    +0.093 A 
ATOM     12  C   UNL     1      -0.590   5.722   1.557  0.00  0.00    +0.030 A 
ATOM     13  C   UNL     1       0.783   5.570   1.614  0.00  0.00    +0.004 A 
ATOM     14  C   UNL     1       1.320   4.306   1.407  0.00  0.00    +0.023 A 
ATOM     15  C   UNL     1       0.475   3.244   1.151  0.00  0.00    +0.039 A 
ATOM     16  N   UNL     1      -0.831   3.415   1.096  0.00  0.00    -0.250 NA
ATOM     17  C   UNL     1       1.054   1.871   0.925  0.00  0.00    +0.065 C 
ENDBRANCH   7  11
BRANCH   8  18
ATOM     18  N   UNL     1      -3.380   2.816  -0.227  0.00  0.00    -0.323 N 
ATOM     19  H   UNL     1      -2.762   2.204   0.284  0.00  0.00    +0.148 HD
BRANCH  18  20
ATOM     20  C   UNL     1      -4.579   2.098  -0.677  0.00  0.00    +0.028 C 
ATOM     21  C   UNL     1      -5.497   1.836   0.519  0.00  0.00    +0.031 C 
ATOM     22  C   UNL     1      -5.322   2.944  -1.714  0.00  0.00    +0.031 C 
BRANCH  20  23
ATOM     23  C   UNL     1      -4.169   0.765  -1.306  0.00  0.00    +0.031 C 
BRANCH  23  24
ATOM     24  C   UNL     1      -5.395   0.098  -1.934  0.00  0.00    -0.036 C 
ATOM     25  C   UNL     1      -5.750   0.810  -3.241  0.00  0.00    +0.010 C 
ATOM     26  C   UNL     1      -5.084  -1.372  -2.222  0.00  0.00    +0.010 C 
ATOM     27  C   UNL     1      -6.577   0.189  -0.966  0.00  0.00    +0.010 C 
ENDBRANCH  23  24
ENDBRANCH  20  23
ENDBRANCH  18  20
ENDBRANCH   8  18
TORSDOF 5
