REMARK  Name = ZINC44920688
REMARK  3 active torsions:
REMARK  status: ('A' for Active; 'I' for Inactive)
REMARK    1  A    between atoms: C_1  and  C_2
REMARK    2  A    between atoms: C_18  and  C_20
REMARK    3  A    between atoms: C_24  and  N_26
REMARK                            x       y       z     vdW  Elec       q    Type
REMARK                         _______ _______ _______ _____ _____    ______ ____
ROOT
ATOM      1  C   UNL     1       0.491   1.756  -0.289  0.00  0.00    +0.068 C 
ATOM      2  C   UNL     1       0.554   0.257  -0.152  0.00  0.00    +0.067 A 
ATOM      3  C   UNL     1       0.230  -0.674  -1.162  0.00  0.00    +0.033 A 
ATOM      4  C   UNL     1       0.413  -1.913  -0.656  0.00  0.00    +0.135 A 
ATOM      5  N   UNL     1       0.842  -1.757   0.644  0.00  0.00    -0.200 N 
ATOM      6  N   UNL     1       0.923  -0.391   0.915  0.00  0.00    -0.168 NA
ATOM      7  C   UNL     1       1.148  -2.789   1.536  0.00  0.00    +0.156 A 
ATOM      8  C   UNL     1       2.025  -2.553   2.588  0.00  0.00    +0.048 A 
ATOM      9  C   UNL     1       2.319  -3.583   3.463  0.00  0.00    +0.005 A 
ATOM     10  C   UNL     1       1.723  -4.819   3.255  0.00  0.00    +0.020 A 
ATOM     11  C   UNL     1       0.861  -4.983   2.189  0.00  0.00    +0.113 A 
ATOM     12  N   UNL     1       0.595  -3.980   1.374  0.00  0.00    -0.236 NA
ATOM     13  N   UNL     1       0.252  -3.161  -1.206  0.00  0.00    -0.269 N 
ATOM     14  C   UNL     1      -0.168  -3.613  -2.349  0.00  0.00    +0.228 C 
ATOM     15  O   UNL     1      -0.263  -4.821  -2.417  0.00  0.00    -0.275 OA
ATOM     16  C   UNL     1      -0.550  -2.890  -3.581  0.00  0.00    +0.166 C 
ATOM     17  S   UNL     1      -1.431  -1.358  -3.250  0.00  0.00    -0.138 S 
ATOM     18  C   UNL     1      -0.230  -0.243  -2.520  0.00  0.00    +0.112 C 
ATOM     19  H   UNL     1       0.513  -3.871  -0.599  0.00  0.00    +0.156 HD
ENDROOT
BRANCH  18  20
ATOM     20  C   UNL     1      -0.847   1.128  -2.409  0.00  0.00    -0.028 A 
ATOM     21  C   UNL     1      -2.049   1.292  -1.748  0.00  0.00    +0.006 A 
ATOM     22  C   UNL     1      -2.615   2.549  -1.645  0.00  0.00    +0.022 A 
ATOM     23  C   UNL     1      -1.978   3.642  -2.205  0.00  0.00    +0.071 A 
ATOM     24  C   UNL     1      -0.775   3.477  -2.867  0.00  0.00    +0.145 A 
ATOM     25  C   UNL     1      -0.207   2.220  -2.964  0.00  0.00    +0.039 A 
ATOM     26 CL   UNL     1      -2.689   5.221  -2.078  0.00  0.00    -0.081 Cl
BRANCH  24  27
ATOM     27  N   UNL     1      -0.093   4.645  -3.466  0.00  0.00    +0.058 N 
ATOM     28  O   UNL     1       0.959   4.500  -4.045  0.00  0.00    -0.126 OA
ATOM     29  O   UNL     1      -0.587   5.745  -3.377  0.00  0.00    -0.126 OA
ENDBRANCH  24  27
ENDBRANCH  18  20
TORSDOF 2
