REMARK  Name = ZINC66833269
REMARK  11 active torsions:
REMARK  status: ('A' for Active; 'I' for Inactive)
REMARK    1  A    between atoms: C_1  and  C_2
REMARK    2  A    between atoms: C_2  and  C_4
REMARK    3  A    between atoms: C_2  and  N_14
REMARK    4  A    between atoms: C_7  and  S_10
REMARK    5  A    between atoms: S_10  and  N_13
REMARK    6  A    between atoms: C_15  and  C_17
REMARK    7  A    between atoms: C_17  and  C_19
REMARK    8  A    between atoms: C_17  and  N_20
REMARK    9  A    between atoms: C_24  and  C_27
REMARK   10  A    between atoms: C_27  and  O_29
REMARK   11  A    between atoms: O_29  and  C_30
REMARK                            x       y       z     vdW  Elec       q    Type
REMARK                         _______ _______ _______ _____ _____    ______ ____
ROOT
ATOM      1  N   UNL     1       0.804  -0.145  -1.221  0.00  0.00    -0.310 N 
ATOM      2  C   UNL     1       2.032  -0.698  -1.176  0.00  0.00    +0.200 C 
ATOM      3  O   UNL     1       2.570  -0.894  -0.107  0.00  0.00    -0.278 OA
ATOM      4  H   UNL     1       0.373   0.012  -2.076  0.00  0.00    +0.149 HD
ENDROOT
BRANCH   1   6
ATOM      5  C   UNL     1       0.570   1.613   0.463  0.00  0.00    +0.033 C 
ATOM      6  C   UNL     1       0.119   0.220   0.022  0.00  0.00    +0.100 C 
BRANCH   6   7
ATOM      7  C   UNL     1      -1.370   0.223  -0.208  0.00  0.00    -0.027 A 
ATOM      8  C   UNL     1      -1.886   0.721  -1.390  0.00  0.00    +0.007 A 
ATOM      9  C   UNL     1      -3.253   0.724  -1.600  0.00  0.00    +0.029 A 
ATOM     10  C   UNL     1      -4.103   0.229  -0.629  0.00  0.00    +0.105 A 
ATOM     11  C   UNL     1      -3.587  -0.269   0.553  0.00  0.00    +0.029 A 
ATOM     12  C   UNL     1      -2.220  -0.277   0.761  0.00  0.00    +0.007 A 
BRANCH  10  13
ATOM     13  S   UNL     1      -5.844   0.234  -0.897  0.00  0.00    +0.056 S 
ATOM     14  O   UNL     1      -6.453   0.220   0.387  0.00  0.00    -0.153 OA
ATOM     15  O   UNL     1      -6.105   1.254  -1.852  0.00  0.00    -0.153 OA
BRANCH  13  16
ATOM     16  N   UNL     1      -6.233  -1.204  -1.621  0.00  0.00    -0.204 NA
ATOM     17  H   UNL     1      -5.538  -1.853  -1.813  0.00  0.00    +0.144 HD
ATOM     18  H   UNL     1      -7.154  -1.396  -1.853  0.00  0.00    +0.144 HD
ENDBRANCH  13  16
ENDBRANCH  10  13
ENDBRANCH   6   7
ENDBRANCH   1   6
BRANCH   2  19
ATOM     19  C   UNL     1       2.736  -1.073  -2.455  0.00  0.00    +0.016 C 
ATOM     20  C   UNL     1       2.355  -2.502  -2.847  0.00  0.00    -0.004 C 
BRANCH  19  21
ATOM     21  N   UNL     1       4.189  -0.991  -2.256  0.00  0.00    +0.388 N 
ATOM     22  C   UNL     1       4.552   0.377  -1.865  0.00  0.00    -0.078 C 
ATOM     23  C   UNL     1       6.053   0.449  -1.577  0.00  0.00    -0.018 C 
ATOM     24  C   UNL     1       6.828   0.054  -2.838  0.00  0.00    +0.011 C 
ATOM     25  C   UNL     1       6.388  -1.345  -3.279  0.00  0.00    +0.081 C 
ATOM     26  C   UNL     1       4.874  -1.350  -3.503  0.00  0.00    -0.063 C 
ATOM     27  H   UNL     1       4.465  -1.631  -1.526  0.00  0.00    -0.081 HD
BRANCH  25  28
ATOM     28  C   UNL     1       7.089  -1.712  -4.561  0.00  0.00    +0.308 C 
ATOM     29  O   UNL     1       6.444  -1.958  -5.553  0.00  0.00    -0.251 OA
BRANCH  28  30
ATOM     30  O   UNL     1       8.429  -1.767  -4.601  0.00  0.00    -0.468 OA
ATOM     31  C   UNL     1       9.027  -2.122  -5.850  0.00  0.00    +0.280 C 
ENDBRANCH  28  30
ENDBRANCH  25  28
ENDBRANCH  19  21
ENDBRANCH   2  19
TORSDOF 8
