REMARK  Name = ZINC22937362
REMARK  7 active torsions:
REMARK  status: ('A' for Active; 'I' for Inactive)
REMARK    1  A    between atoms: N_9  and  C_10
REMARK    2  A    between atoms: C_13  and  C_15
REMARK    3  A    between atoms: N_17  and  C_18
REMARK    4  A    between atoms: C_18  and  C_19
REMARK    5  A    between atoms: C_19  and  C_20
REMARK    6  A    between atoms: C_20  and  N_21
REMARK    7  A    between atoms: N_24  and  C_27
REMARK                            x       y       z     vdW  Elec       q    Type
REMARK                         _______ _______ _______ _____ _____    ______ ____
ROOT
ATOM      1  C   UNL     1       8.498   0.987  -0.857  0.00  0.00    +0.251 C 
ATOM      2  O   UNL     1       9.552   0.735  -0.300  0.00  0.00    -0.270 OA
ATOM      3  N   UNL     1       8.468   1.875  -1.871  0.00  0.00    -0.311 N 
ATOM      4  H   UNL     1       7.629   2.076  -2.314  0.00  0.00    +0.149 HD
ENDROOT
BRANCH   1   8
ATOM      5  C   UNL     1       4.811  -0.557  -0.048  0.00  0.00    +0.085 A 
ATOM      6  C   UNL     1       5.803  -1.052   0.766  0.00  0.00    +0.035 A 
ATOM      7  C   UNL     1       7.086  -0.605   0.587  0.00  0.00    +0.023 A 
ATOM      8  C   UNL     1       7.267   0.328  -0.425  0.00  0.00    +0.076 A 
ATOM      9  S   UNL     1       5.614   0.512  -1.066  0.00  0.00    -0.066 S 
BRANCH   5  18
ATOM     10  C   UNL     1      -0.017   1.362   0.009  0.00  0.00    +0.001 A 
ATOM     11  C   UNL     1       1.169   2.084   0.002  0.00  0.00    +0.002 A 
ATOM     12  C   UNL     1       2.386   1.436  -0.013  0.00  0.00    +0.027 A 
ATOM     13  C   UNL     1       2.428   0.046  -0.021  0.00  0.00    +0.054 A 
ATOM     14  C   UNL     1       1.223  -0.681  -0.013  0.00  0.00    +0.000 A 
ATOM     15  C   UNL     1       0.002  -0.004   0.002  0.00  0.00    +0.010 A 
ATOM     16  C   UNL     1       1.602  -2.096  -0.025  0.00  0.00    +0.028 A 
ATOM     17  C   UNL     1       2.944  -2.144  -0.038  0.00  0.00    +0.093 A 
ATOM     18  N   UNL     1       3.457  -0.873  -0.036  0.00  0.00    -0.310 N 
ENDBRANCH   5  18
ENDBRANCH   1   8
BRANCH   3  19
ATOM     19  C   UNL     1       9.702   2.535  -2.303  0.00  0.00    +0.106 C 
BRANCH  19  20
ATOM     20  C   UNL     1       9.392   3.486  -3.461  0.00  0.00    +0.034 C 
BRANCH  20  21
ATOM     21  C   UNL     1      10.681   4.176  -3.913  0.00  0.00    +0.086 C 
BRANCH  21  22
ATOM     22  N   UNL     1      10.384   5.089  -5.025  0.00  0.00    -0.306 NA
ATOM     23  C   UNL     1       9.955   4.345  -6.218  0.00  0.00    +0.066 C 
ATOM     24  C   UNL     1       9.598   5.333  -7.331  0.00  0.00    -0.063 C 
ATOM     25  N   UNL     1      10.770   6.161  -7.644  0.00  0.00    +0.383 N 
ATOM     26  C   UNL     1      11.172   6.917  -6.450  0.00  0.00    -0.063 C 
ATOM     27  C   UNL     1      11.541   5.942  -5.330  0.00  0.00    +0.066 C 
ATOM     28  H   UNL     1      11.532   5.568  -7.939  0.00  0.00    -0.081 HD
BRANCH  25  29
ATOM     29  C   UNL     1      10.433   7.097  -8.725  0.00  0.00    -0.068 C 
ATOM     30  C   UNL     1      10.017   6.310  -9.970  0.00  0.00    -0.015 C 
ATOM     31  C   UNL     1       9.666   7.284 -11.095  0.00  0.00    -0.002 C 
ATOM     32  C   UNL     1      10.886   8.147 -11.422  0.00  0.00    -0.000 C 
ATOM     33  C   UNL     1      11.302   8.934 -10.178  0.00  0.00    -0.002 C 
ATOM     34  C   UNL     1      11.654   7.960  -9.052  0.00  0.00    -0.015 C 
ENDBRANCH  25  29
ENDBRANCH  21  22
ENDBRANCH  20  21
ENDBRANCH  19  20
ENDBRANCH   3  19
TORSDOF 7
