REMARK  Name = ZINC11854505
REMARK  5 active torsions:
REMARK  status: ('A' for Active; 'I' for Inactive)
REMARK    1  A    between atoms: C_1  and  C_2
REMARK    2  A    between atoms: C_11  and  N_20
REMARK    3  A    between atoms: C_13  and  C_15
REMARK    4  A    between atoms: C_21  and  C_23
REMARK    5  A    between atoms: C_23  and  N_24
REMARK                            x       y       z     vdW  Elec       q    Type
REMARK                         _______ _______ _______ _____ _____    ______ ____
ROOT
ATOM      1  C   UNL     1       2.225  11.960   0.043  0.00  0.00    +0.066 C 
ATOM      2  C   UNL     1       1.160  10.895   0.047  0.00  0.00    +0.047 A 
ATOM      3  C   UNL     1      -0.158  11.248   0.061  0.00  0.00    +0.093 A 
ATOM      4  C   UNL     1      -1.133  10.233   0.065  0.00  0.00    +0.253 A 
ATOM      5  O   UNL     1      -2.321  10.512   0.077  0.00  0.00    -0.268 OA
ATOM      6  N   UNL     1      -0.728   8.945   0.049  0.00  0.00    -0.291 N 
ATOM      7  H   UNL     1      -1.383   8.229   0.048  0.00  0.00    +0.172 HD
ATOM      8  C   UNL     1       0.600   8.655   0.041  0.00  0.00    +0.234 A 
ATOM      9  N   UNL     1       1.506   9.608   0.037  0.00  0.00    -0.217 NA
ATOM     10  N   UNL     1       1.005   7.334   0.031  0.00  0.00    -0.185 N 
ATOM     11  C   UNL     1       2.297   6.891   0.016  0.00  0.00    +0.132 A 
ATOM     12  C   UNL     1       2.267   5.534   0.010  0.00  0.00    +0.074 A 
ATOM     13  C   UNL     1       0.915   5.132   0.020  0.00  0.00    +0.102 A 
ATOM     14  N   UNL     1       0.164   6.215   0.028  0.00  0.00    -0.162 NA
ENDROOT
BRANCH  13  15
ATOM     15  C   UNL     1       0.425   3.737   0.017  0.00  0.00    +0.039 A 
ATOM     16  C   UNL     1      -0.864   3.276   0.027  0.00  0.00    +0.018 A 
ATOM     17  C   UNL     1      -1.080   1.915   0.017  0.00  0.00    +0.008 A 
ATOM     18  C   UNL     1      -0.013   1.076   0.008  0.00  0.00    +0.046 A 
ATOM     19  S   UNL     1       1.360   2.217   0.001  0.00  0.00    -0.095 S 
ENDBRANCH  13  15
BRANCH  11  20
ATOM     20  N   UNL     1       3.440   7.688   0.010  0.00  0.00    -0.269 N 
ATOM     21  C   UNL     1       4.660   7.116  -0.005  0.00  0.00    +0.238 C 
ATOM     22  O   UNL     1       4.764   5.908  -0.013  0.00  0.00    -0.273 OA
ATOM     23  H   UNL     1       3.357   8.654   0.016  0.00  0.00    +0.156 HD
BRANCH  21  24
ATOM     24  C   UNL     1       5.896   7.978  -0.012  0.00  0.00    +0.219 C 
BRANCH  24  25
ATOM     25  N   UNL     1       7.087   7.125  -0.028  0.00  0.00    -0.321 N 
ATOM     26  C   UNL     1       7.811   6.731   1.054  0.00  0.00    +0.200 A 
ATOM     27  N   UNL     1       8.801   5.975   0.678  0.00  0.00    -0.236 NA
ATOM     28  C   UNL     1       8.785   5.839  -0.672  0.00  0.00    +0.089 A 
ATOM     29  C   UNL     1       7.685   6.575  -1.145  0.00  0.00    +0.069 A 
ATOM     30  C   UNL     1       7.416   6.619  -2.506  0.00  0.00    +0.028 A 
ATOM     31  C   UNL     1       8.232   5.940  -3.385  0.00  0.00    +0.002 A 
ATOM     32  C   UNL     1       9.319   5.214  -2.919  0.00  0.00    +0.002 A 
ATOM     33  C   UNL     1       9.598   5.159  -1.582  0.00  0.00    +0.030 A 
ENDBRANCH  24  25
ENDBRANCH  21  24
ENDBRANCH  11  20
TORSDOF 4
