REMARK  Name = ZINC44392187
REMARK  7 active torsions:
REMARK  status: ('A' for Active; 'I' for Inactive)
REMARK    1  A    between atoms: C_1  and  C_2
REMARK    2  A    between atoms: C_4  and  N_28
REMARK    3  A    between atoms: C_7  and  N_8
REMARK    4  A    between atoms: C_9  and  C_11
REMARK    5  A    between atoms: C_11  and  C_13
REMARK    6  A    between atoms: C_11  and  N_14
REMARK    7  A    between atoms: C_19  and  C_21
REMARK                            x       y       z     vdW  Elec       q    Type
REMARK                         _______ _______ _______ _____ _____    ______ ____
ROOT
ATOM      1  C   UNL     1      -0.169   0.052   4.882  0.00  0.00    +0.194 C 
ATOM      2  C   UNL     1      -1.433   0.915   4.869  0.00  0.00    +0.043 C 
ENDROOT
BRANCH   1   3
ATOM      3  N   UNL     1      -0.242  -0.905   5.988  0.00  0.00    -0.217 N 
ATOM      4  C   UNL     1       0.701  -0.871   6.948  0.00  0.00    +0.268 A 
ATOM      5  O   UNL     1       1.604  -0.052   6.893  0.00  0.00    -0.266 OA
ATOM      6  C   UNL     1       0.639  -1.790   8.019  0.00  0.00    +0.074 A 
ATOM      7  C   UNL     1      -0.391  -2.684   8.033  0.00  0.00    +0.035 A 
ATOM      8  C   UNL     1      -1.332  -2.639   6.978  0.00  0.00    +0.092 A 
ATOM      9  N   UNL     1      -1.208  -1.751   6.019  0.00  0.00    -0.168 NA
BRANCH   8  10
ATOM     10  C   UNL     1      -2.466  -3.595   6.957  0.00  0.00    +0.002 A 
ATOM     11  C   UNL     1      -3.392  -3.558   5.916  0.00  0.00    +0.013 A 
ATOM     12  C   UNL     1      -4.445  -4.449   5.901  0.00  0.00    +0.039 A 
ATOM     13  C   UNL     1      -4.583  -5.380   6.918  0.00  0.00    +0.123 A 
ATOM     14  C   UNL     1      -3.664  -5.420   7.955  0.00  0.00    +0.039 A 
ATOM     15  C   UNL     1      -2.604  -4.537   7.975  0.00  0.00    +0.013 A 
ATOM     16  F   UNL     1      -5.616  -6.250   6.900  0.00  0.00    -0.205 F 
ENDBRANCH   8  10
ENDBRANCH   1   3
BRANCH   1  18
ATOM     17  N   UNL     1       0.025  -0.015   2.417  0.00  0.00    -0.284 N 
ATOM     18  C   UNL     1      -0.057  -0.694   3.578  0.00  0.00    +0.242 C 
ATOM     19  O   UNL     1      -0.040  -1.907   3.573  0.00  0.00    -0.273 OA
ATOM     20  H   UNL     1       0.077   0.954   2.425  0.00  0.00    +0.155 HD
BRANCH  17  27
ATOM     21  C   UNL     1      -1.265   1.183   0.181  0.00  0.00    +0.046 C 
ATOM     22  C   UNL     1      -0.584  -0.158   0.084  0.00  0.00    -0.027 A 
ATOM     23  C   UNL     1      -0.569  -0.841  -1.117  0.00  0.00    +0.038 A 
ATOM     24  C   UNL     1       0.055  -2.071  -1.206  0.00  0.00    +0.127 A 
ATOM     25  C   UNL     1       0.667  -2.622  -0.095  0.00  0.00    +0.034 A 
ATOM     26  C   UNL     1       0.655  -1.945   1.109  0.00  0.00    +0.026 A 
ATOM     27  C   UNL     1       0.034  -0.706   1.201  0.00  0.00    +0.037 A 
BRANCH  24  28
ATOM     28  N   UNL     1       0.069  -2.800  -2.494  0.00  0.00    +0.056 N 
ATOM     29  O   UNL     1      -0.465  -2.320  -3.466  0.00  0.00    -0.126 OA
ATOM     30  O   UNL     1       0.615  -3.876  -2.574  0.00  0.00    -0.126 OA
ENDBRANCH  24  28
ENDBRANCH  17  27
ENDBRANCH   1  18
TORSDOF 5
