REMARK  Name = ZINC57478725
REMARK  9 active torsions:
REMARK  status: ('A' for Active; 'I' for Inactive)
REMARK    1  A    between atoms: C_1  and  C_2
REMARK    2  A    between atoms: C_2  and  S_3
REMARK    3  A    between atoms: S_3  and  N_6
REMARK    4  A    between atoms: N_6  and  C_7
REMARK    5  A    between atoms: C_10  and  S_14
REMARK    6  A    between atoms: C_11  and  C_13
REMARK    7  A    between atoms: S_14  and  N_17
REMARK    8  A    between atoms: N_17  and  C_18
REMARK    9  A    between atoms: C_21  and  C_24
REMARK                            x       y       z     vdW  Elec       q    Type
REMARK                         _______ _______ _______ _____ _____    ______ ____
ROOT
ATOM      1  C   UNL     1       1.925  -3.633  -1.763  0.00  0.00    +0.074 A 
ATOM      2  C   UNL     1       1.228  -4.748  -2.208  0.00  0.00    +0.028 A 
ATOM      3  C   UNL     1       1.618  -5.387  -3.369  0.00  0.00    +0.031 A 
ATOM      4  C   UNL     1       2.704  -4.918  -4.086  0.00  0.00    +0.108 A 
ATOM      5  C   UNL     1       3.401  -3.809  -3.646  0.00  0.00    -0.022 A 
ATOM      6  C   UNL     1       3.011  -3.161  -2.489  0.00  0.00    +0.032 A 
ATOM      7  C   UNL     1       4.583  -3.302  -4.430  0.00  0.00    +0.046 C 
ENDROOT
BRANCH   4   8
ATOM      8  S   UNL     1       3.199  -5.737  -5.566  0.00  0.00    +0.059 S 
ATOM      9  O   UNL     1       2.304  -6.826  -5.747  0.00  0.00    -0.153 OA
ATOM     10  O   UNL     1       3.378  -4.727  -6.549  0.00  0.00    -0.153 OA
BRANCH   8  11
ATOM     11  N   UNL     1       4.693  -6.394  -5.285  0.00  0.00    -0.187 NA
ATOM     12  H   UNL     1       5.466  -6.065  -5.770  0.00  0.00    +0.148 HD
BRANCH  11  13
ATOM     13  C   UNL     1       4.847  -7.471  -4.304  0.00  0.00    +0.077 C 
ATOM     14  C   UNL     1       5.280  -6.879  -2.961  0.00  0.00    +0.020 C 
ATOM     15  C   UNL     1       6.614  -6.149  -3.131  0.00  0.00    +0.005 C 
ATOM     16  C   UNL     1       7.676  -7.136  -3.619  0.00  0.00    -0.014 C 
ATOM     17  C   UNL     1       7.244  -7.728  -4.963  0.00  0.00    +0.005 C 
ATOM     18  C   UNL     1       5.910  -8.457  -4.792  0.00  0.00    +0.020 C 
ATOM     19  C   UNL     1       9.010  -6.407  -3.790  0.00  0.00    +0.007 C 
ENDBRANCH  11  13
ENDBRANCH   8  11
ENDBRANCH   4   8
BRANCH   1  20
ATOM     20  N   UNL     1       1.532  -2.984  -0.590  0.00  0.00    -0.103 NA
BRANCH  20  21
ATOM     21  S   UNL     1       0.238  -3.548   0.274  0.00  0.00    +0.062 S 
ATOM     22  O   UNL     1       0.631  -4.840   0.716  0.00  0.00    -0.154 OA
ATOM     23  O   UNL     1      -0.876  -3.387  -0.594  0.00  0.00    -0.154 OA
BRANCH  21  25
ATOM     24  C   UNL     1      -1.082  -2.851   2.567  0.00  0.00    +0.030 C 
ATOM     25  C   UNL     1       0.095  -2.421   1.689  0.00  0.00    +0.187 C 
ENDBRANCH  21  25
ENDBRANCH  20  21
ENDBRANCH   1  20
TORSDOF 6
