REMARK  Name = ZINC06733082
REMARK  6 active torsions:
REMARK  status: ('A' for Active; 'I' for Inactive)
REMARK    1  A    between atoms: C_1  and  C_2
REMARK    2  A    between atoms: C_2  and  C_31
REMARK    3  A    between atoms: C_6  and  C_25
REMARK    4  A    between atoms: C_9  and  C_17
REMARK    5  A    between atoms: C_20  and  O_23
REMARK    6  A    between atoms: O_23  and  C_24
REMARK                            x       y       z     vdW  Elec       q    Type
REMARK                         _______ _______ _______ _____ _____    ______ ____
ROOT
ATOM      1  C   UNL     1       0.630   1.516   0.210  0.00  0.00    +0.011 C 
ATOM      2  C   UNL     1       0.489  -0.005   0.117  0.00  0.00    -0.023 C 
ATOM      3  C   UNL     1      -0.994  -0.389   0.130  0.00  0.00    +0.086 C 
ATOM      4  C   UNL     1      -1.110  -1.887   0.135  0.00  0.00    +0.162 C 
ATOM      5  C   UNL     1      -0.106  -2.704   0.688  0.00  0.00    +0.024 C 
ATOM      6  C   UNL     1      -0.346  -4.197   0.621  0.00  0.00    +0.096 C 
ATOM      7  C   UNL     1       0.930  -4.931   0.919  0.00  0.00    +0.032 A 
ATOM      8  C   UNL     1       1.252  -6.234   0.733  0.00  0.00    +0.072 A 
ATOM      9  N   UNL     1       2.537  -6.401   1.168  0.00  0.00    -0.275 N 
ATOM     10  H   UNL     1       3.038  -7.231   1.160  0.00  0.00    +0.189 HD
ATOM     11  N   UNL     1       3.003  -5.159   1.629  0.00  0.00    -0.158 NA
ATOM     12  C   UNL     1       2.052  -4.284   1.481  0.00  0.00    +0.149 A 
ATOM     13  N   UNL     1       2.012  -2.917   1.778  0.00  0.00    -0.301 N 
ATOM     14  C   UNL     1       0.996  -2.162   1.247  0.00  0.00    +0.017 C 
ATOM     15  C   UNL     1       1.164  -0.660   1.323  0.00  0.00    +0.058 C 
ATOM     16  O   UNL     1      -2.095  -2.406  -0.352  0.00  0.00    -0.292 OA
ATOM     17  C   UNL     1       1.141  -0.505  -1.174  0.00  0.00    +0.011 C 
ATOM     18  H   UNL     1       2.686  -2.513   2.346  0.00  0.00    +0.153 HD
ENDROOT
BRANCH   8  19
ATOM     19  C   UNL     1       0.375  -7.281   0.166  0.00  0.00    +0.000 A 
ATOM     20  C   UNL     1      -0.338  -7.036  -1.008  0.00  0.00    +0.013 A 
ATOM     21  C   UNL     1      -1.155  -8.015  -1.534  0.00  0.00    +0.046 A 
ATOM     22  C   UNL     1      -1.268  -9.243  -0.896  0.00  0.00    +0.120 A 
ATOM     23  C   UNL     1      -0.561  -9.491   0.273  0.00  0.00    +0.046 A 
ATOM     24  C   UNL     1       0.263  -8.519   0.801  0.00  0.00    +0.013 A 
BRANCH  22  25
ATOM     25  O   UNL     1      -2.074 -10.205  -1.417  0.00  0.00    -0.495 OA
ATOM     26  C   UNL     1      -2.144 -11.445  -0.711  0.00  0.00    +0.277 C 
ENDBRANCH  22  25
ENDBRANCH   8  19
BRANCH   6  27
ATOM     27  C   UNL     1      -1.392  -4.582   1.636  0.00  0.00    +0.002 A 
ATOM     28  C   UNL     1      -2.576  -5.213   1.444  0.00  0.00    +0.012 A 
ATOM     29  C   UNL     1      -3.385  -5.467   2.536  0.00  0.00    +0.008 A 
ATOM     30  C   UNL     1      -2.970  -5.078   3.766  0.00  0.00    +0.045 A 
ATOM     31  S   UNL     1      -1.388  -4.333   3.404  0.00  0.00    -0.101 S 
ENDBRANCH   6  27
TORSDOF 3
