REMARK  Name = ZINC39456320
REMARK  6 active torsions:
REMARK  status: ('A' for Active; 'I' for Inactive)
REMARK    1  A    between atoms: C_1  and  C_2
REMARK    2  A    between atoms: C_2  and  C_3
REMARK    3  A    between atoms: C_2  and  S_4
REMARK    4  A    between atoms: S_4  and  C_7
REMARK    5  A    between atoms: C_23  and  S_24
REMARK    6  A    between atoms: S_24  and  C_25
REMARK                            x       y       z     vdW  Elec       q    Type
REMARK                         _______ _______ _______ _____ _____    ______ ____
ROOT
ATOM      1  C   UNL     1      -1.464  -2.425   0.157  0.00  0.00    +0.222 C 
ATOM      2  C   UNL     1      -2.827  -3.126   0.168  0.00  0.00    +0.127 C 
ATOM      3  C   UNL     1      -3.467  -2.994  -1.189  0.00  0.00    +0.188 C 
ATOM      4  O   UNL     1      -4.678  -2.967  -1.284  0.00  0.00    -0.290 OA
ATOM      5  C   UNL     1      -2.672  -2.899  -2.355  0.00  0.00    +0.154 A 
ATOM      6  C   UNL     1      -1.296  -2.868  -2.246  0.00  0.00    +0.086 A 
ATOM      7  C   UNL     1      -0.466  -2.776  -3.459  0.00  0.00    +0.100 A 
ATOM      8  C   UNL     1      -1.126  -2.711  -4.714  0.00  0.00    +0.070 A 
ATOM      9  C   UNL     1      -0.391  -2.621  -5.889  0.00  0.00    +0.026 A 
ATOM     10  C   UNL     1       1.005  -2.596  -5.785  0.00  0.00    +0.015 A 
ATOM     11  C   UNL     1       1.620  -2.667  -4.457  0.00  0.00    +0.073 A 
ATOM     12  N   UNL     1       0.851  -2.753  -3.370  0.00  0.00    -0.245 NA
ATOM     13  C   UNL     1       3.022  -2.643  -4.361  0.00  0.00    +0.028 A 
ATOM     14  C   UNL     1       3.779  -2.554  -5.491  0.00  0.00    +0.003 A 
ATOM     15  C   UNL     1       3.208  -2.485  -6.754  0.00  0.00    +0.015 A 
ATOM     16  C   UNL     1       1.836  -2.505  -6.923  0.00  0.00    +0.017 A 
ATOM     17  C   UNL     1      -2.596  -2.742  -4.744  0.00  0.00    +0.297 A 
ATOM     18  O   UNL     1      -3.183  -2.687  -5.809  0.00  0.00    -0.264 OA
ATOM     19  N   UNL     1      -3.293  -2.830  -3.597  0.00  0.00    -0.088 N 
ATOM     20  O   UNL     1      -4.707  -2.855  -3.657  0.00  0.00    -0.160 OA
ATOM     21  N   UNL     1      -0.701  -2.918  -0.999  0.00  0.00    -0.319 N 
ATOM     22  H   UNL     1       0.196  -3.270  -0.890  0.00  0.00    +0.148 HD
ENDROOT
BRANCH   1  23
ATOM     23  S   UNL     1      -1.700  -0.632   0.015  0.00  0.00    -0.010 S 
ATOM     24  O   UNL     1      -2.341  -0.168   1.195  0.00  0.00    -0.172 OA
ATOM     25  O   UNL     1      -2.291  -0.355  -1.247  0.00  0.00    -0.172 OA
BRANCH  23  27
ATOM     26  C   UNL     1      -0.019   1.526   0.010  0.00  0.00    +0.031 C 
ATOM     27  C   UNL     1       0.002  -0.004   0.002  0.00  0.00    +0.126 C 
ATOM     28  C   UNL     1       0.742  -0.511   1.242  0.00  0.00    +0.031 C 
ENDBRANCH  23  27
ENDBRANCH   1  23
BRANCH  16  29
ATOM     29  S   UNL     1       1.134  -2.418  -8.537  0.00  0.00    -0.128 S 
ATOM     30  C   UNL     1       2.573  -2.316  -9.636  0.00  0.00    +0.090 C 
ENDBRANCH  16  29
TORSDOF 3
