REMARK  Name = ZINC39935617
REMARK  6 active torsions:
REMARK  status: ('A' for Active; 'I' for Inactive)
REMARK    1  A    between atoms: CA_6  and  C_32
REMARK    2  A    between atoms: C_8  and  C_11
REMARK    3  A    between atoms: C_11  and  C_12
REMARK    4  A    between atoms: C_11  and  C_19
REMARK    5  A    between atoms: C_16  and  O_18
REMARK    6  A    between atoms: CA_27  and  C_29
REMARK                            x       y       z     vdW  Elec       q    Type
REMARK                         _______ _______ _______ _____ _____    ______ ____
ROOT
ATOM      1  C   UNL     1       0.691  -3.186  -0.022  0.00  0.00    +0.077 C 
ENDROOT
BRANCH   1   8
ATOM      2  C   UNL     1       0.719   1.403  -0.024  0.00  0.00    +0.001 A 
ATOM      3  C   UNL     1       1.790   1.958  -0.737  0.00  0.00    +0.002 A 
ATOM      4  C   UNL     1       2.719   1.204  -1.361  0.00  0.00    +0.026 A 
ATOM      5  C   UNL     1       2.642  -0.215  -1.315  0.00  0.00    +0.043 A 
ATOM      6  N   UNL     1       3.406  -1.148  -1.830  0.00  0.00    -0.368 N 
ATOM      7  CA  UNL     1       2.855  -2.458  -1.466  0.00  0.00    +0.221 C 
ATOM      8  C   UNL     1       1.621  -2.173  -0.639  0.00  0.00    -0.016 C 
ATOM      9  C   UNL     1       1.520  -0.827  -0.567  0.00  0.00    +0.001 A 
ATOM     10  C   UNL     1       0.552   0.065   0.083  0.00  0.00    +0.010 A 
ATOM     11  H   UNL     1       4.203  -0.997  -2.362  0.00  0.00    +0.161 HD
BRANCH   7  12
ATOM     12  C   UNL     1       3.858  -3.236  -0.653  0.00  0.00    +0.382 C 
ATOM     13  O   UNL     1       4.877  -2.695  -0.262  0.00  0.00    -0.244 OA
ATOM     14  OXT UNL     1       3.649  -4.408  -0.387  0.00  0.00    -0.244 OA
ENDBRANCH   7  12
ENDBRANCH   1   8
BRANCH   1  15
ATOM     15  C   UNL     1      -0.730  -2.693  -0.129  0.00  0.00    -0.016 C 
ATOM     16  C   UNL     1      -1.289  -2.045  -1.175  0.00  0.00    +0.001 A 
ATOM     17  C   UNL     1      -0.762  -1.618  -2.478  0.00  0.00    +0.010 A 
ATOM     18  C   UNL     1      -1.582  -0.973  -3.337  0.00  0.00    +0.001 A 
ATOM     19  C   UNL     1      -2.920  -0.701  -3.017  0.00  0.00    +0.002 A 
ATOM     20  C   UNL     1      -3.475  -1.061  -1.841  0.00  0.00    +0.026 A 
ATOM     21  C   UNL     1      -2.704  -1.746  -0.862  0.00  0.00    +0.043 A 
ATOM     22  N   UNL     1      -3.009  -2.192   0.333  0.00  0.00    -0.368 N 
ATOM     23  CA  UNL     1      -1.820  -2.831   0.910  0.00  0.00    +0.221 C 
ATOM     24  H   UNL     1      -3.875  -2.116   0.762  0.00  0.00    +0.161 HD
BRANCH  23  25
ATOM     25  C   UNL     1      -2.093  -4.287   1.187  0.00  0.00    +0.382 C 
ATOM     26  O   UNL     1      -1.476  -4.867   2.064  0.00  0.00    -0.244 OA
ATOM     27  OXT UNL     1      -2.931  -4.886   0.534  0.00  0.00    -0.244 OA
ENDBRANCH  23  25
ENDBRANCH   1  15
BRANCH   1  28
ATOM     28  C   UNL     1       1.048  -3.377   1.430  0.00  0.00    -0.033 A 
ATOM     29  C   UNL     1       0.994  -2.304   2.301  0.00  0.00    +0.005 A 
ATOM     30  C   UNL     1       1.322  -2.476   3.633  0.00  0.00    +0.004 A 
ATOM     31  C   UNL     1       1.704  -3.720   4.097  0.00  0.00    +0.045 A 
ATOM     32  C   UNL     1       1.759  -4.797   3.225  0.00  0.00    +0.117 A 
ATOM     33  C   UNL     1       1.424  -4.623   1.889  0.00  0.00    +0.050 A 
BRANCH  32  34
ATOM     34  O   UNL     1       2.135  -6.022   3.678  0.00  0.00    -0.507 OA
ATOM     35  H   UNL     1       1.401  -6.567   3.992  0.00  0.00    +0.292 HD
ENDBRANCH  32  34
ENDBRANCH   1  28
TORSDOF 6
