REMARK  Name = ZINC39465510
REMARK  3 active torsions:
REMARK  status: ('A' for Active; 'I' for Inactive)
REMARK    1  A    between atoms: C_4  and  O_7
REMARK    2  A    between atoms: O_7  and  S_8
REMARK    3  A    between atoms: S_8  and  C_11
REMARK                            x       y       z     vdW  Elec       q    Type
REMARK                         _______ _______ _______ _____ _____    ______ ____
ROOT
ATOM      1  C   UNL     1       3.192  -2.273   2.002  0.00  0.00    +0.142 A 
ATOM      2  C   UNL     1       2.051  -2.016   2.736  0.00  0.00    +0.035 A 
ATOM      3  C   UNL     1       1.302  -3.061   3.254  0.00  0.00    -0.039 A 
ATOM      4  C   UNL     1       1.695  -4.365   3.038  0.00  0.00    -0.022 A 
ATOM      5  C   UNL     1       2.842  -4.622   2.300  0.00  0.00    +0.023 A 
ATOM      6  C   UNL     1       3.585  -3.581   1.778  0.00  0.00    +0.046 A 
ATOM      7 BR   UNL     1       5.141  -3.942   0.766  0.00  0.00    -0.048 Br
ATOM      8  C   UNL     1       0.919  -5.535   3.580  0.00  0.00    +0.130 C 
ATOM      9  C   UNL     1       0.834  -6.620   2.503  0.00  0.00    +0.196 C 
ATOM     10  O   UNL     1       0.193  -7.782   3.067  0.00  0.00    -0.292 OA
ATOM     11  P   UNL     1      -1.212  -7.578   3.861  0.00  0.00    +0.448 P 
ATOM     12  O   UNL     1      -1.440  -8.742   4.851  0.00  0.00    -0.236 OA
ATOM     13  N   UNL     1      -1.056  -6.152   4.682  0.00  0.00    -0.154 NA
ATOM     14  N   UNL     1      -0.422  -5.131   4.003  0.00  0.00    -0.224 NA
ATOM     15  C   UNL     1      -0.365  -3.940   4.865  0.00  0.00    +0.108 C 
ATOM     16  C   UNL     1       0.063  -2.735   4.048  0.00  0.00    +0.052 C 
ATOM     17  O   UNL     1      -2.384  -7.494   2.858  0.00  0.00    -0.126 OA
ATOM     18  H   UNL     1      -1.399  -6.042   5.583  0.00  0.00    +0.153 HD
ENDROOT
BRANCH   1  19
ATOM     19  S   UNL     1       4.140  -0.941   1.346  0.00  0.00    +0.152 S 
ATOM     20  O   UNL     1       5.458  -1.436   1.154  0.00  0.00    -0.131 OA
ATOM     21  O   UNL     1       3.863   0.192   2.158  0.00  0.00    -0.131 OA
BRANCH  19  22
ATOM     22  O   UNL     1       3.586  -0.632  -0.037  0.00  0.00    -0.342 OA
BRANCH  22  26
ATOM     23  C   UNL     1      -0.017   1.378   0.010  0.00  0.00    +0.000 A 
ATOM     24  C   UNL     1       1.170   2.088   0.002  0.00  0.00    +0.004 A 
ATOM     25  C   UNL     1       2.377   1.417  -0.013  0.00  0.00    +0.048 A 
ATOM     26  C   UNL     1       2.399   0.030  -0.021  0.00  0.00    +0.157 A 
ATOM     27  C   UNL     1       1.207  -0.680  -0.013  0.00  0.00    +0.048 A 
ATOM     28  C   UNL     1       0.002  -0.004   0.002  0.00  0.00    +0.004 A 
ENDBRANCH  22  26
ENDBRANCH  19  22
ENDBRANCH   1  19
TORSDOF 3
