REMARK  Name = ZINC18899467
REMARK  3 active torsions:
REMARK  status: ('A' for Active; 'I' for Inactive)
REMARK    1  A    between atoms: C_1  and  C_2
REMARK    2  A    between atoms: C_11  and  N_15
REMARK    3  A    between atoms: N_15  and  C_16
REMARK                            x       y       z     vdW  Elec       q    Type
REMARK                         _______ _______ _______ _____ _____    ______ ____
ROOT
ATOM      1  C   UNL     1       7.780   3.362  -0.051  0.00  0.00    +0.008 C 
ATOM      2  C   UNL     1       6.355   2.905   0.269  0.00  0.00    -0.009 C 
ATOM      3  C   UNL     1       5.355   3.734  -0.542  0.00  0.00    +0.008 C 
ATOM      4  C   UNL     1       3.933   3.458  -0.050  0.00  0.00    +0.037 C 
ATOM      5  C   UNL     1       3.695   1.950  -0.053  0.00  0.00    -0.025 A 
ATOM      6  C   UNL     1       4.732   1.089  -0.081  0.00  0.00    -0.004 A 
ATOM      7  S   UNL     1       3.995  -0.523  -0.075  0.00  0.00    -0.073 S 
ATOM      8  C   UNL     1       2.289  -0.037  -0.034  0.00  0.00    +0.114 A 
ATOM      9  C   UNL     1       2.351   1.371  -0.028  0.00  0.00    +0.051 A 
ATOM     10  C   UNL     1       1.095   2.037   0.003  0.00  0.00    +0.131 A 
ATOM     11  N   UNL     1      -0.016   1.317   0.023  0.00  0.00    -0.220 NA
ATOM     12  C   UNL     1       0.002  -0.004   0.016  0.00  0.00    +0.224 A 
ATOM     13  N   UNL     1       1.137  -0.677  -0.012  0.00  0.00    -0.228 NA
ATOM     14  C   UNL     1       6.192   1.426  -0.111  0.00  0.00    +0.046 C 
ENDROOT
BRANCH  10  15
ATOM     15  N   UNL     1       1.034   3.419   0.010  0.00  0.00    -0.324 N 
ATOM     16  H   UNL     1       1.849   3.940   0.078  0.00  0.00    +0.148 HD
BRANCH  15  17
ATOM     17  C   UNL     1      -0.262   4.095  -0.085  0.00  0.00    +0.094 C 
ATOM     18  C   UNL     1      -0.061   5.503  -0.671  0.00  0.00    +0.046 C 
ATOM     19  C   UNL     1      -1.380   6.303  -0.471  0.00  0.00    +0.168 C 
ATOM     20  S   UNL     1      -1.844   5.768   1.230  0.00  0.00    -0.029 S 
ATOM     21  O   UNL     1      -1.306   6.691   2.168  0.00  0.00    -0.174 OA
ATOM     22  O   UNL     1      -3.233   5.471   1.258  0.00  0.00    -0.174 OA
ATOM     23  C   UNL     1      -0.893   4.197   1.325  0.00  0.00    +0.188 C 
ENDBRANCH  15  17
ENDBRANCH  10  15
TORSDOF 2
