REMARK  Name = ZINC65021781
REMARK  4 active torsions:
REMARK  status: ('A' for Active; 'I' for Inactive)
REMARK    1  A    between atoms: C_5  and  N_7
REMARK    2  A    between atoms: N_7  and  S_8
REMARK    3  A    between atoms: S_8  and  C_11
REMARK    4  A    between atoms: C_20  and  C_23
REMARK                            x       y       z     vdW  Elec       q    Type
REMARK                         _______ _______ _______ _____ _____    ______ ____
ROOT
ATOM      1  C   UNL     1       0.214  -4.630   0.003  0.00  0.00    +0.112 A 
ATOM      2  C   UNL     1       0.365  -5.280  -1.208  0.00  0.00    +0.030 A 
ATOM      3  C   UNL     1       0.701  -6.621  -1.233  0.00  0.00    +0.018 A 
ATOM      4  C   UNL     1       0.880  -7.309  -0.044  0.00  0.00    +0.030 A 
ATOM      5  C   UNL     1       0.722  -6.663   1.181  0.00  0.00    +0.049 A 
ATOM      6  C   UNL     1       0.396  -5.310   1.190  0.00  0.00    +0.053 A 
ATOM      7  N   UNL     1       0.874  -7.333   2.392  0.00  0.00    -0.283 N 
ATOM      8  C   UNL     1       0.877  -8.649   2.575  0.00  0.00    +0.240 C 
ATOM      9  O   UNL     1       1.132  -9.077   3.681  0.00  0.00    -0.274 OA
ATOM     10  C   UNL     1       0.580  -9.636   1.476  0.00  0.00    +0.223 C 
ATOM     11  S   UNL     1       1.319  -9.020  -0.068  0.00  0.00    -0.101 S 
ATOM     12  H   UNL     1       0.988  -6.783   3.182  0.00  0.00    +0.155 HD
ENDROOT
BRANCH  10  13
ATOM     13  C   UNL     1      -0.911  -9.775   1.309  0.00  0.00    +0.238 C 
ATOM     14  O   UNL     1      -1.638  -8.835   1.554  0.00  0.00    -0.274 OA
ATOM     15  N   UNL     1      -1.437 -10.942   0.887  0.00  0.00    -0.300 N 
ATOM     16  C   UNL     1      -0.558 -12.078   0.721  0.00  0.00    +0.108 C 
ATOM     17  C   UNL     1       0.016 -12.085  -0.717  0.00  0.00    +0.019 C 
ATOM     18  C   UNL     1      -1.033 -12.443  -1.684  0.00  0.00    +0.002 C 
ATOM     19  C   UNL     1      -2.194 -11.455  -1.745  0.00  0.00    +0.002 C 
ATOM     20  C   UNL     1      -3.198 -11.795  -0.672  0.00  0.00    +0.019 C 
ATOM     21  C   UNL     1      -2.886 -11.009   0.619  0.00  0.00    +0.108 C 
ENDBRANCH  10  13
BRANCH   1  22
ATOM     22  S   UNL     1      -0.208  -2.919   0.030  0.00  0.00    +0.092 S 
ATOM     23  O   UNL     1      -0.821  -2.672   1.288  0.00  0.00    -0.148 OA
ATOM     24  O   UNL     1      -0.858  -2.641  -1.202  0.00  0.00    -0.148 OA
BRANCH  22  25
ATOM     25  N   UNL     1       1.211  -2.065   0.019  0.00  0.00    -0.095 NA
BRANCH  25  30
ATOM     26  C   UNL     1      -0.050   1.388   0.081  0.00  0.00    +0.002 A 
ATOM     27  C   UNL     1       1.135   2.101   0.072  0.00  0.00    +0.003 A 
ATOM     28  C   UNL     1       2.347   1.434   0.045  0.00  0.00    +0.040 A 
ATOM     29  C   UNL     1       2.376   0.052   0.028  0.00  0.00    +0.148 A 
ATOM     30  C   UNL     1       1.186  -0.667   0.037  0.00  0.00    +0.109 A 
ATOM     31  C   UNL     1      -0.028   0.007   0.064  0.00  0.00    +0.029 A 
ATOM     32  F   UNL     1       3.560  -0.599   0.002  0.00  0.00    -0.203 F 
ENDBRANCH  25  30
ENDBRANCH  22  25
ENDBRANCH   1  22
TORSDOF 4
