REMARK  Name = ZINC08843668
REMARK  6 active torsions:
REMARK  status: ('A' for Active; 'I' for Inactive)
REMARK    1  A    between atoms: C_3  and  S_23
REMARK    2  A    between atoms: C_6  and  N_7
REMARK    3  A    between atoms: C_8  and  C_10
REMARK    4  A    between atoms: C_10  and  C_11
REMARK    5  A    between atoms: C_11  and  N_12
REMARK    6  A    between atoms: S_23  and  N_26
REMARK                            x       y       z     vdW  Elec       q    Type
REMARK                         _______ _______ _______ _____ _____    ______ ____
ROOT
ATOM      1  N   UNL     1       0.062  -2.709   2.597  0.00  0.00    -0.285 N 
ATOM      2  C   UNL     1       0.041  -2.029   1.433  0.00  0.00    +0.219 C 
ATOM      3  O   UNL     1       0.031  -2.629   0.380  0.00  0.00    -0.275 OA
ATOM      4  H   UNL     1       0.138  -2.230   3.437  0.00  0.00    +0.155 HD
ENDROOT
BRANCH   1  10
ATOM      5  C   UNL     1      -0.698  -4.764   3.613  0.00  0.00    +0.025 A 
ATOM      6  C   UNL     1      -0.786  -6.142   3.603  0.00  0.00    +0.030 A 
ATOM      7  C   UNL     1      -0.196  -6.867   2.584  0.00  0.00    +0.109 A 
ATOM      8  C   UNL     1       0.480  -6.214   1.569  0.00  0.00    +0.030 A 
ATOM      9  C   UNL     1       0.568  -4.836   1.571  0.00  0.00    +0.025 A 
ATOM     10  C   UNL     1      -0.024  -4.105   2.592  0.00  0.00    +0.033 A 
BRANCH   7  11
ATOM     11  S   UNL     1      -0.305  -8.625   2.578  0.00  0.00    +0.074 S 
ATOM     12  O   UNL     1      -1.455  -8.963   3.342  0.00  0.00    -0.150 OA
ATOM     13  O   UNL     1      -0.138  -9.038   1.229  0.00  0.00    -0.150 OA
BRANCH  11  14
ATOM     14  N   UNL     1       1.004  -9.200   3.414  0.00  0.00    -0.194 N 
ATOM     15  C   UNL     1       1.134  -8.932   4.768  0.00  0.00    +0.177 A 
ATOM     16  N   UNL     1       0.333  -8.241   5.556  0.00  0.00    -0.232 NA
ATOM     17  C   UNL     1       0.607  -8.084   6.838  0.00  0.00    +0.120 A 
ATOM     18  C   UNL     1       1.739  -8.640   7.330  0.00  0.00    +0.068 A 
ATOM     19  S   UNL     1       2.396  -9.413   5.859  0.00  0.00    -0.059 S 
ATOM     20  H   UNL     1       1.680  -9.724   2.956  0.00  0.00    +0.176 HD
ENDBRANCH  11  14
ENDBRANCH   7  11
ENDBRANCH   1  10
BRANCH   2  21
ATOM     21  C   UNL     1       0.029  -0.522   1.442  0.00  0.00    +0.118 C 
BRANCH  21  22
ATOM     22  C   UNL     1       0.005  -0.004   0.002  0.00  0.00    +0.138 C 
BRANCH  22  23
ATOM     23  N   UNL     1      -0.007   1.461   0.010  0.00  0.00    -0.274 N 
ATOM     24  C   UNL     1      -1.138   2.277   0.025  0.00  0.00    +0.092 A 
ATOM     25  C   UNL     1      -2.499   2.016   0.049  0.00  0.00    +0.049 A 
ATOM     26  C   UNL     1      -3.399   3.064   0.067  0.00  0.00    +0.043 A 
ATOM     27  C   UNL     1      -2.945   4.373   0.067  0.00  0.00    +0.024 A 
ATOM     28  C   UNL     1      -1.589   4.639   0.049  0.00  0.00    +0.050 A 
ATOM     29  C   UNL     1      -0.679   3.594   0.031  0.00  0.00    +0.157 A 
ATOM     30  O   UNL     1       0.676   3.549   0.011  0.00  0.00    -0.407 OA
ATOM     31  C   UNL     1       1.074   2.267  -0.001  0.00  0.00    +0.421 A 
ATOM     32  O   UNL     1       2.230   1.891  -0.019  0.00  0.00    -0.223 OA
ATOM     33 CL   UNL     1      -5.105   2.741   0.089  0.00  0.00    -0.083 Cl
ENDBRANCH  22  23
ENDBRANCH  21  22
ENDBRANCH   2  21
TORSDOF 6
