REMARK  Name = ZINC00683641
REMARK  6 active torsions:
REMARK  status: ('A' for Active; 'I' for Inactive)
REMARK    1  A    between atoms: C_1  and  C_2
REMARK    2  A    between atoms: C_3  and  C_18
REMARK    3  A    between atoms: C_4  and  C_10
REMARK    4  A    between atoms: C_13  and  O_17
REMARK    5  A    between atoms: C_18  and  O_20
REMARK    6  A    between atoms: O_20  and  C_21
REMARK                            x       y       z     vdW  Elec       q    Type
REMARK                         _______ _______ _______ _____ _____    ______ ____
ROOT
ATOM      1  C   UNL     1       2.467   0.836  -0.018  0.00  0.00    +0.061 C 
ATOM      2  C   UNL     1       1.183   1.626  -0.001  0.00  0.00    +0.019 C 
ATOM      3  C   UNL     1       1.234   2.976   0.006  0.00  0.00    +0.078 C 
ATOM      4  C   UNL     1      -0.080   3.731   0.023  0.00  0.00    +0.141 C 
ATOM      5  N   UNL     1      -1.312   2.924   0.030  0.00  0.00    -0.315 N 
ATOM      6  C   UNL     1      -1.200   1.581   0.017  0.00  0.00    +0.135 C 
ATOM      7  S   UNL     1      -2.624   0.631   0.018  0.00  0.00    -0.019 S 
ATOM      8  N   UNL     1      -0.011   0.966   0.007  0.00  0.00    -0.300 N 
ATOM      9  H   UNL     1      -2.184   3.350   0.041  0.00  0.00    +0.149 HD
ATOM     10  H   UNL     1       0.002  -0.004   0.002  0.00  0.00    +0.154 HD
ENDROOT
BRANCH   4  11
ATOM     11  C   UNL     1      -0.094   4.612   1.245  0.00  0.00    -0.021 A 
ATOM     12  C   UNL     1      -0.410   4.075   2.480  0.00  0.00    +0.009 A 
ATOM     13  C   UNL     1      -0.419   4.880   3.603  0.00  0.00    +0.047 A 
ATOM     14  C   UNL     1      -0.121   6.230   3.490  0.00  0.00    +0.131 A 
ATOM     15  C   UNL     1       0.191   6.768   2.249  0.00  0.00    +0.060 A 
ATOM     16  C   UNL     1       0.203   5.957   1.129  0.00  0.00    +0.024 A 
ATOM     17 BR   UNL     1       0.598   8.607   2.090  0.00  0.00    -0.047 Br
BRANCH  14  18
ATOM     18  O   UNL     1      -0.134   7.024   4.593  0.00  0.00    -0.506 OA
ATOM     19  H   UNL     1      -0.992   7.431   4.774  0.00  0.00    +0.292 HD
ENDBRANCH  14  18
ENDBRANCH   4  11
BRANCH   3  20
ATOM     20  C   UNL     1       2.471   3.661  -0.001  0.00  0.00    +0.338 C 
ATOM     21  O   UNL     1       3.514   3.034  -0.014  0.00  0.00    -0.245 OA
BRANCH  20  22
ATOM     22  O   UNL     1       2.494   5.011   0.006  0.00  0.00    -0.465 OA
ATOM     23  C   UNL     1       3.779   5.637  -0.003  0.00  0.00    +0.280 C 
ENDBRANCH  20  22
ENDBRANCH   3  20
TORSDOF 4
