REMARK  Name = ZINC40282950
REMARK  4 active torsions:
REMARK  status: ('A' for Active; 'I' for Inactive)
REMARK    1  A    between atoms: C_3  and  C_26
REMARK    2  A    between atoms: C_6  and  C_7
REMARK    3  A    between atoms: C_10  and  O_25
REMARK    4  A    between atoms: N_16  and  C_17
REMARK                            x       y       z     vdW  Elec       q    Type
REMARK                         _______ _______ _______ _____ _____    ______ ____
ROOT
ATOM      1  C   UNL     1      -1.295  -0.772   0.011  0.00  0.00    +0.080 C 
ATOM      2  C   UNL     1      -1.378  -1.665  -1.232  0.00  0.00    +0.110 C 
ATOM      3  C   UNL     1      -0.535  -2.898  -1.081  0.00  0.00    +0.190 C 
ATOM      4  N   UNL     1      -0.333  -3.489   0.059  0.00  0.00    -0.197 NA
ATOM      5  C   UNL     1      -0.881  -2.954   1.188  0.00  0.00    +0.165 A 
ATOM      6  C   UNL     1      -1.352  -1.664   1.226  0.00  0.00    +0.094 A 
ATOM      7  N   UNL     1      -1.815  -1.426   2.446  0.00  0.00    -0.237 NA
ATOM      8  C   UNL     1      -1.667  -2.498   3.185  0.00  0.00    +0.206 A 
ATOM      9  N   UNL     1      -1.086  -3.482   2.429  0.00  0.00    -0.283 N 
ENDROOT
BRANCH   9  10
ATOM     10  C   UNL     1      -0.764  -4.779   2.849  0.00  0.00    +0.055 A 
ATOM     11  C   UNL     1      -1.155  -5.873   2.090  0.00  0.00    +0.064 A 
ATOM     12  C   UNL     1      -0.835  -7.153   2.506  0.00  0.00    +0.128 A 
ATOM     13  C   UNL     1      -0.125  -7.344   3.679  0.00  0.00    +0.076 A 
ATOM     14  C   UNL     1       0.266  -6.254   4.439  0.00  0.00    +0.128 A 
ATOM     15  C   UNL     1      -0.047  -4.972   4.022  0.00  0.00    +0.064 A 
ATOM     16  F   UNL     1       0.958  -6.442   5.583  0.00  0.00    -0.205 F 
ATOM     17  F   UNL     1      -1.216  -8.218   1.767  0.00  0.00    -0.205 F 
ENDBRANCH   9  10
BRANCH   1  23
ATOM     18  C   UNL     1      -0.017   1.380   0.010  0.00  0.00    +0.005 A 
ATOM     19  C   UNL     1       1.166   2.089   0.002  0.00  0.00    +0.015 A 
ATOM     20  C   UNL     1       2.385   1.407  -0.013  0.00  0.00    +0.063 A 
ATOM     21  C   UNL     1       2.397   0.009  -0.021  0.00  0.00    +0.015 A 
ATOM     22  C   UNL     1       1.206  -0.686  -0.013  0.00  0.00    +0.005 A 
ATOM     23  C   UNL     1       0.002  -0.004   0.002  0.00  0.00    -0.038 A 
BRANCH  20  24
ATOM     24  C   UNL     1       3.655   2.158  -0.022  0.00  0.00    +0.387 C 
ATOM     25  O   UNL     1       3.642   3.381  -0.015  0.00  0.00    -0.241 OA
ATOM     26  O   UNL     1       4.721   1.558  -0.035  0.00  0.00    -0.241 OA
ENDBRANCH  20  24
ENDBRANCH   1  23
BRANCH   3  27
ATOM     27  O   UNL     1       0.042  -3.419  -2.184  0.00  0.00    -0.495 OA
ATOM     28  H   UNL     1       0.570  -4.211  -2.015  0.00  0.00    +0.293 HD
ENDBRANCH   3  27
TORSDOF 4
