REMARK  Name = ZINC00106077
REMARK  5 active torsions:
REMARK  status: ('A' for Active; 'I' for Inactive)
REMARK    1  A    between atoms: C_1  and  C_2
REMARK    2  A    between atoms: C_7  and  C_16
REMARK    3  A    between atoms: N_8  and  C_10
REMARK    4  A    between atoms: C_19  and  O_22
REMARK    5  A    between atoms: C_25  and  C_27
REMARK                            x       y       z     vdW  Elec       q    Type
REMARK                         _______ _______ _______ _____ _____    ______ ____
ROOT
ATOM      1  C   UNL     1       3.710   2.173  -0.368  0.00  0.00    +0.008 C 
ATOM      2  C   UNL     1       2.403   1.392  -0.515  0.00  0.00    +0.002 C 
ATOM      3  C   UNL     1       1.243   2.248   0.002  0.00  0.00    +0.062 C 
ATOM      4  C   UNL     1      -0.017   1.420   0.010  0.00  0.00    +0.075 A 
ATOM      5  C   UNL     1       0.002  -0.004   0.002  0.00  0.00    +0.067 A 
ATOM      6  C   UNL     1      -1.310  -0.441   0.005  0.00  0.00    +0.085 A 
ATOM      7  N   UNL     1      -2.091   0.677   0.017  0.00  0.00    -0.231 N 
ATOM      8  N   UNL     1      -1.254   1.803   0.018  0.00  0.00    -0.170 NA
ATOM      9  C   UNL     1       1.265  -0.751  -0.004  0.00  0.00    +0.170 C 
ATOM     10  O   UNL     1       1.315  -1.945  -0.216  0.00  0.00    -0.292 OA
ATOM     11  C   UNL     1       2.507   0.083   0.273  0.00  0.00    +0.060 C 
ATOM     12  C   UNL     1       2.595   0.390   1.770  0.00  0.00    +0.016 C 
ENDROOT
BRANCH   7  13
ATOM     13  C   UNL     1      -3.491   0.699   0.025  0.00  0.00    +0.066 A 
ATOM     14  C   UNL     1      -4.205  -0.267  -0.671  0.00  0.00    +0.028 A 
ATOM     15  C   UNL     1      -5.586  -0.247  -0.657  0.00  0.00    +0.002 A 
ATOM     16  C   UNL     1      -6.258   0.740   0.041  0.00  0.00    +0.000 A 
ATOM     17  C   UNL     1      -5.549   1.706   0.731  0.00  0.00    +0.002 A 
ATOM     18  C   UNL     1      -4.168   1.689   0.726  0.00  0.00    +0.028 A 
ENDBRANCH   7  13
BRANCH   6  19
ATOM     19  C   UNL     1      -1.774  -1.841  -0.004  0.00  0.00    +0.001 A 
ATOM     20  C   UNL     1      -1.191  -2.767  -0.873  0.00  0.00    +0.013 A 
ATOM     21  C   UNL     1      -1.623  -4.075  -0.874  0.00  0.00    +0.046 A 
ATOM     22  C   UNL     1      -2.645  -4.472  -0.020  0.00  0.00    +0.117 A 
ATOM     23  C   UNL     1      -3.232  -3.553   0.842  0.00  0.00    +0.046 A 
ATOM     24  C   UNL     1      -2.802  -2.244   0.853  0.00  0.00    +0.013 A 
BRANCH  22  25
ATOM     25  O   UNL     1      -3.072  -5.761  -0.028  0.00  0.00    -0.507 OA
ATOM     26  H   UNL     1      -3.792  -5.933  -0.650  0.00  0.00    +0.292 HD
ENDBRANCH  22  25
ENDBRANCH   6  19
TORSDOF 3
