REMARK  Name = ZINC64774137
REMARK  7 active torsions:
REMARK  status: ('A' for Active; 'I' for Inactive)
REMARK    1  A    between atoms: C_5  and  C_7
REMARK    2  A    between atoms: C_7  and  S_8
REMARK    3  A    between atoms: S_8  and  C_9
REMARK    4  A    between atoms: C_15  and  C_23
REMARK    5  A    between atoms: C_26  and  O_29
REMARK    6  A    between atoms: O_29  and  C_30
REMARK    7  A    between atoms: C_30  and  C_31
REMARK                            x       y       z     vdW  Elec       q    Type
REMARK                         _______ _______ _______ _____ _____    ______ ____
ROOT
ATOM      1  C   UNL     1       1.287  -4.875   2.723  0.00  0.00    +0.182 C 
ATOM      2  N   UNL     1       1.469  -4.986   1.419  0.00  0.00    -0.154 NA
ATOM      3  C   UNL     1       1.561  -6.172   0.813  0.00  0.00    +0.249 C 
ATOM      4  O   UNL     1       1.702  -6.264  -0.391  0.00  0.00    -0.273 OA
ATOM      5  C   UNL     1       1.482  -7.397   1.700  0.00  0.00    +0.148 C 
ATOM      6  C   UNL     1       0.362  -8.297   1.176  0.00  0.00    +0.047 C 
ATOM      7  C   UNL     1       0.387  -9.614   1.957  0.00  0.00    +0.105 C 
ATOM      8  C   UNL     1       0.447  -9.361   3.436  0.00  0.00    +0.219 C 
ATOM      9  O   UNL     1       0.127 -10.255   4.189  0.00  0.00    -0.275 OA
ATOM     10  N   UNL     1       0.841  -8.190   3.961  0.00  0.00    -0.273 N 
ATOM     11  C   UNL     1       1.167  -7.137   3.162  0.00  0.00    +0.117 C 
ATOM     12  N   UNL     1       1.118  -5.900   3.567  0.00  0.00    -0.212 NA
ATOM     13  H   UNL     1       0.908  -8.093   4.924  0.00  0.00    +0.156 HD
ENDROOT
BRANCH   6  14
ATOM     14  C   UNL     1      -0.968  -7.615   1.370  0.00  0.00    -0.042 A 
ATOM     15  C   UNL     1      -1.618  -7.051   0.288  0.00  0.00    +0.007 A 
ATOM     16  C   UNL     1      -2.837  -6.425   0.463  0.00  0.00    +0.046 A 
ATOM     17  C   UNL     1      -3.408  -6.362   1.726  0.00  0.00    +0.121 A 
ATOM     18  C   UNL     1      -2.753  -6.929   2.810  0.00  0.00    +0.046 A 
ATOM     19  C   UNL     1      -1.537  -7.559   2.628  0.00  0.00    +0.007 A 
BRANCH  17  20
ATOM     20  O   UNL     1      -4.607  -5.746   1.901  0.00  0.00    -0.483 OA
BRANCH  20  21
ATOM     21  C   UNL     1      -5.135  -5.719   3.228  0.00  0.00    +0.324 C 
BRANCH  21  22
ATOM     22  C   UNL     1      -6.459  -5.000   3.228  0.00  0.00    +0.248 C 
ATOM     23  O   UNL     1      -6.907  -4.555   2.192  0.00  0.00    -0.272 OA
ATOM     24  N   UNL     1      -7.146  -4.853   4.378  0.00  0.00    -0.327 N 
ATOM     25  H   UNL     1      -6.788  -5.209   5.206  0.00  0.00    +0.145 HD
ATOM     26  H   UNL     1      -7.999  -4.390   4.377  0.00  0.00    +0.145 HD
ENDBRANCH  21  22
ENDBRANCH  20  21
ENDBRANCH  17  20
ENDBRANCH   6  14
BRANCH   1  27
ATOM     27  S   UNL     1       1.273  -3.251   3.405  0.00  0.00    -0.084 S 
BRANCH  27  28
ATOM     28  C   UNL     1       1.527  -2.170   1.971  0.00  0.00    +0.115 C 
BRANCH  28  33
ATOM     29  C   UNL     1       0.364   1.306   2.874  0.00  0.00    +0.000 A 
ATOM     30  C   UNL     1       1.552   1.909   3.246  0.00  0.00    +0.003 A 
ATOM     31  C   UNL     1       2.732   1.192   3.206  0.00  0.00    +0.038 A 
ATOM     32  C   UNL     1       2.726  -0.130   2.793  0.00  0.00    +0.127 A 
ATOM     33  C   UNL     1       1.536  -0.732   2.421  0.00  0.00    -0.002 A 
ATOM     34  C   UNL     1       0.356  -0.013   2.462  0.00  0.00    +0.007 A 
ATOM     35  F   UNL     1       3.880  -0.832   2.753  0.00  0.00    -0.205 F 
ENDBRANCH  28  33
ENDBRANCH  27  28
ENDBRANCH   1  27
TORSDOF 7
