REMARK  Name = ZINC12890738
REMARK  9 active torsions:
REMARK  status: ('A' for Active; 'I' for Inactive)
REMARK    1  A    between atoms: CB_1  and  CA_2
REMARK    2  A    between atoms: CA_2  and  C_4
REMARK    3  A    between atoms: CA_2  and  N_6
REMARK    4  A    between atoms: C_7  and  C_9
REMARK    5  A    between atoms: C_9  and  O_10
REMARK    6  A    between atoms: O_10  and  C_11
REMARK    7  A    between atoms: C_17  and  C_22
REMARK    8  A    between atoms: C_30  and  C_32
REMARK    9  A    between atoms: C_30  and  C_33
REMARK                            x       y       z     vdW  Elec       q    Type
REMARK                         _______ _______ _______ _____ _____    ______ ____
ROOT
ATOM      1  C   UNK A   0       1.859   5.000  -2.174  0.00  0.00    +0.136 A 
ATOM      2  C   UNK A   0       2.072   6.124  -2.946  0.00  0.00    +0.092 A 
ATOM      3  C   UNK A   0       3.292   6.800  -2.893  0.00  0.00    +0.131 A 
ATOM      4  C   UNK A   0       4.299   6.356  -2.054  0.00  0.00    +0.038 A 
ATOM      5  C   UNK A   0       4.106   5.221  -1.276  0.00  0.00    +0.150 A 
ATOM      6  C   UNK A   0       2.881   4.537  -1.333  0.00  0.00    +0.067 A 
ATOM      7  C   UNK A   0       2.691   3.344  -0.496  0.00  0.00    +0.003 A 
ATOM      8  C   UNK A   0       3.745   2.942   0.305  0.00  0.00    +0.101 A 
ATOM      9  C   UNK A   0       4.940   3.680   0.296  0.00  0.00    +0.338 A 
ATOM     10  O   UNK A   0       5.864   3.320   1.005  0.00  0.00    -0.245 OA
ATOM     11  O   UNK A   0       5.093   4.771  -0.470  0.00  0.00    -0.422 OA
ATOM     12  C   UNK A   0       5.627   7.067  -1.975  0.00  0.00    +0.046 C 
ATOM     13  C   UNK A   0       5.800   7.982  -3.189  0.00  0.00    +0.052 C 
ATOM     14  C   UNK A   0       4.512   8.798  -3.363  0.00  0.00    +0.105 C 
ATOM     15  O   UNK A   0       3.449   7.898  -3.677  0.00  0.00    -0.486 OA
ATOM     16  C   UNK A   0       4.689   9.804  -4.502  0.00  0.00    +0.055 C 
ATOM     17  C   UNK A   0       4.192   9.540  -2.064  0.00  0.00    +0.055 C 
ENDROOT
BRANCH   7  18
ATOM     18  C   UNK A   0       1.417   2.592  -0.514  0.00  0.00    -0.017 A 
ATOM     19  C   UNK A   0       0.676   2.439   0.658  0.00  0.00    +0.008 A 
ATOM     20  C   UNK A   0      -0.511   1.737   0.634  0.00  0.00    +0.001 A 
ATOM     21  C   UNK A   0      -0.966   1.180  -0.548  0.00  0.00    +0.000 A 
ATOM     22  C   UNK A   0      -0.238   1.332  -1.715  0.00  0.00    +0.001 A 
ATOM     23  C   UNK A   0       0.950   2.032  -1.705  0.00  0.00    +0.008 A 
ENDBRANCH   7  18
BRANCH   1  24
ATOM     24  O   UNK A   0       0.670   4.348  -2.229  0.00  0.00    -0.482 OA
BRANCH  24  25
ATOM     25  C   UNK A   0      -0.277   4.805  -3.197  0.00  0.00    +0.324 C 
BRANCH  25  27
ATOM     26  N   ALA A   1      -2.584   4.247  -3.891  0.00  0.00    -0.300 N 
ATOM     27  C   UNK A   0      -1.581   4.075  -3.008  0.00  0.00    +0.251 C 
ATOM     28  O   UNK A   0      -1.728   3.332  -2.061  0.00  0.00    -0.272 OA
ATOM     29  H   ALA A   1      -2.467   4.842  -4.649  0.00  0.00    +0.150 HD
BRANCH  26  31
ATOM     30  CB  ALA A   1      -4.750   4.333  -2.756  0.00  0.00    +0.040 C 
ATOM     31  CA  ALA A   1      -3.853   3.537  -3.707  0.00  0.00    +0.183 C 
BRANCH  31  32
ATOM     32  C   ALA A   1      -4.542   3.386  -5.039  0.00  0.00    +0.376 C 
ATOM     33  O   ALA A   1      -4.026   3.827  -6.039  0.00  0.00    -0.244 OA
ATOM     34  OXT ALA A   1      -5.728   2.763  -5.114  0.00  0.00    -0.244 OA
ENDBRANCH  31  32
ENDBRANCH  26  31
ENDBRANCH  25  27
ENDBRANCH  24  25
ENDBRANCH   1  24
TORSDOF 6
