REMARK  Name = ZINC13402436
REMARK  4 active torsions:
REMARK  status: ('A' for Active; 'I' for Inactive)
REMARK    1  A    between atoms: C_1  and  C_2
REMARK    2  A    between atoms: C_5  and  N_26
REMARK    3  A    between atoms: C_9  and  C_18
REMARK    4  A    between atoms: C_21  and  C_24
REMARK                            x       y       z     vdW  Elec       q    Type
REMARK                         _______ _______ _______ _____ _____    ______ ____
ROOT
ATOM      1  C   UNL     1      -3.070   3.870   4.672  0.00  0.00    +0.045 C 
ATOM      2  C   UNL     1      -3.010   3.982   3.171  0.00  0.00    -0.029 A 
ATOM      3  C   UNL     1      -4.088   4.492   2.483  0.00  0.00    +0.007 A 
ATOM      4  C   UNL     1      -4.047   4.601   1.105  0.00  0.00    +0.033 A 
ATOM      5  C   UNL     1      -2.914   4.201   0.421  0.00  0.00    +0.132 A 
ATOM      6  C   UNL     1      -1.828   3.695   1.103  0.00  0.00    +0.011 A 
ATOM      7  C   UNL     1      -1.861   3.567   2.494  0.00  0.00    +0.037 A 
ATOM      8  N   UNL     1      -0.825   3.029   3.254  0.00  0.00    -0.336 N 
ATOM      9  C   UNL     1       0.409   2.675   2.535  0.00  0.00    +0.105 C 
ATOM     10  C   UNL     1      -0.029   2.066   1.211  0.00  0.00    +0.029 C 
ATOM     11  C   UNL     1      -0.597   3.273   0.401  0.00  0.00    +0.051 C 
ATOM     12  C   UNL     1      -0.599   2.771  -0.995  0.00  0.00    -0.023 C 
ATOM     13  C   UNL     1       0.367   1.867  -1.120  0.00  0.00    -0.030 C 
ATOM     14  C   UNL     1       1.074   1.670   0.223  0.00  0.00    +0.033 C 
ATOM     15  H   UNL     1      -0.624   3.610   4.054  0.00  0.00    +0.147 HD
ENDROOT
BRANCH   9  16
ATOM     16  C   UNL     1       1.241   3.910   2.304  0.00  0.00    -0.027 A 
ATOM     17  C   UNL     1       0.635   5.153   2.273  0.00  0.00    +0.006 A 
ATOM     18  C   UNL     1       1.392   6.288   2.068  0.00  0.00    +0.015 A 
ATOM     19  C   UNL     1       2.771   6.179   1.881  0.00  0.00    +0.063 A 
ATOM     20  C   UNL     1       3.376   4.921   1.907  0.00  0.00    +0.015 A 
ATOM     21  C   UNL     1       2.607   3.795   2.119  0.00  0.00    +0.006 A 
BRANCH  19  22
ATOM     22  C   UNL     1       3.587   7.390   1.654  0.00  0.00    +0.387 C 
ATOM     23  O   UNL     1       4.787   7.292   1.491  0.00  0.00    -0.241 OA
ATOM     24  O   UNL     1       3.001   8.602   1.629  0.00  0.00    -0.241 OA
ENDBRANCH  19  22
ENDBRANCH   9  16
BRANCH   5  25
ATOM     25  N   UNL     1      -2.867   4.317  -1.053  0.00  0.00    +0.057 N 
ATOM     26  O   UNL     1      -1.928   4.876  -1.591  0.00  0.00    -0.126 OA
ATOM     27  O   UNL     1      -3.768   3.855  -1.730  0.00  0.00    -0.126 OA
ENDBRANCH   5  25
TORSDOF 3
