REMARK  Name = ZINC04736621
REMARK  5 active torsions:
REMARK  status: ('A' for Active; 'I' for Inactive)
REMARK    1  A    between atoms: C_1  and  C_2
REMARK    2  A    between atoms: C_7  and  C_24
REMARK    3  A    between atoms: C_13  and  C_18
REMARK    4  A    between atoms: C_27  and  O_30
REMARK    5  A    between atoms: O_30  and  C_31
REMARK                            x       y       z     vdW  Elec       q    Type
REMARK                         _______ _______ _______ _____ _____    ______ ____
ROOT
ATOM      1  C   UNL     1      -0.018   1.503   0.010  0.00  0.00    +0.090 C 
ATOM      2  C   UNL     1       0.002  -0.004   0.002  0.00  0.00    +0.150 A 
ATOM      3  N   UNL     1       0.008  -0.773  -1.092  0.00  0.00    -0.198 NA
ATOM      4  C   UNL     1       0.029  -2.029  -0.742  0.00  0.00    +0.219 A 
ATOM      5  N   UNL     1       0.032  -2.087   0.613  0.00  0.00    -0.221 N 
ATOM      6  N   UNL     1       0.023  -0.769   1.066  0.00  0.00    -0.153 NA
ATOM      7  C   UNL     1       0.044  -3.337   1.362  0.00  0.00    +0.175 C 
ATOM      8  C   UNL     1       0.395  -4.487   0.444  0.00  0.00    +0.041 C 
ATOM      9  C   UNL     1       0.374  -4.364  -0.901  0.00  0.00    +0.020 C 
ATOM     10  N   UNL     1       0.049  -3.179  -1.515  0.00  0.00    -0.287 N 
ATOM     11  C   UNL     1       0.705  -5.538  -1.792  0.00  0.00    +0.060 C 
ATOM     12  C   UNL     1       1.729  -6.438  -1.097  0.00  0.00    +0.032 C 
ATOM     13  C   UNL     1       1.133  -6.908   0.234  0.00  0.00    +0.088 C 
ATOM     14  C   UNL     1       0.751  -5.705   1.051  0.00  0.00    +0.164 C 
ATOM     15  O   UNL     1       0.751  -5.786   2.264  0.00  0.00    -0.292 OA
ATOM     16  H   UNL     1      -0.160  -3.147  -2.462  0.00  0.00    +0.155 HD
ENDROOT
BRANCH  12  17
ATOM     17  C   UNL     1       2.031  -7.630  -1.968  0.00  0.00    -0.044 A 
ATOM     18  C   UNL     1       1.016  -8.496  -2.331  0.00  0.00    +0.004 A 
ATOM     19  C   UNL     1       1.293  -9.589  -3.130  0.00  0.00    +0.000 A 
ATOM     20  C   UNL     1       2.585  -9.818  -3.566  0.00  0.00    +0.000 A 
ATOM     21  C   UNL     1       3.599  -8.952  -3.203  0.00  0.00    +0.000 A 
ATOM     22  C   UNL     1       3.322  -7.856  -2.408  0.00  0.00    +0.004 A 
ENDBRANCH  12  17
BRANCH   7  23
ATOM     23  C   UNL     1      -1.318  -3.575   1.960  0.00  0.00    -0.018 A 
ATOM     24  C   UNL     1      -2.422  -3.693   1.137  0.00  0.00    +0.009 A 
ATOM     25  C   UNL     1      -3.672  -3.911   1.682  0.00  0.00    +0.046 A 
ATOM     26  C   UNL     1      -3.819  -4.011   3.058  0.00  0.00    +0.120 A 
ATOM     27  C   UNL     1      -2.710  -3.893   3.882  0.00  0.00    +0.046 A 
ATOM     28  C   UNL     1      -1.461  -3.680   3.331  0.00  0.00    +0.009 A 
BRANCH  26  29
ATOM     29  O   UNL     1      -5.048  -4.225   3.598  0.00  0.00    -0.495 OA
ATOM     30  C   UNL     1      -5.125  -4.318   5.022  0.00  0.00    +0.277 C 
ENDBRANCH  26  29
ENDBRANCH   7  23
TORSDOF 3
