REMARK  Name = ZINC36502278
REMARK  15 active torsions:
REMARK  status: ('A' for Active; 'I' for Inactive)
REMARK    1  A    between atoms: C_1  and  C_2
REMARK    2  A    between atoms: C_2  and  C_3
REMARK    3  A    between atoms: C_2  and  C_4
REMARK    4  A    between atoms: C_2  and  N_5
REMARK    5  A    between atoms: C_6  and  C_8
REMARK    6  A    between atoms: C_8  and  C_10
REMARK    7  A    between atoms: C_8  and  N_18
REMARK    8  A    between atoms: C_13  and  O_16
REMARK    9  A    between atoms: O_16  and  C_17
REMARK   10  A    between atoms: N_18  and  C_19
REMARK   11  A    between atoms: C_19  and  C_20
REMARK   12  A    between atoms: C_25  and  C_27
REMARK   13  A    between atoms: C_27  and  C_28
REMARK   14  A    between atoms: C_27  and  C_34
REMARK   15  A    between atoms: C_27  and  O_40
REMARK                            x       y       z     vdW  Elec       q    Type
REMARK                         _______ _______ _______ _____ _____    ______ ____
ROOT
ATOM      1  N   UNL     1       3.492  -0.294  -2.643  0.00  0.00    -0.276 N 
ATOM      2  C   UNL     1       3.652  -1.608  -2.897  0.00  0.00    +0.258 C 
ATOM      3  O   UNL     1       3.025  -2.134  -3.792  0.00  0.00    -0.272 OA
ENDROOT
BRANCH   1   4
ATOM      4  C   UNL     1       2.550   0.496  -3.439  0.00  0.00    +0.193 C 
BRANCH   4   5
ATOM      5  C   UNL     1       3.075   0.638  -4.844  0.00  0.00    -0.018 A 
ATOM      6  C   UNL     1       4.430   0.806  -5.061  0.00  0.00    +0.009 A 
ATOM      7  C   UNL     1       4.915   0.937  -6.348  0.00  0.00    +0.046 A 
ATOM      8  C   UNL     1       4.040   0.900  -7.424  0.00  0.00    +0.120 A 
ATOM      9  C   UNL     1       2.680   0.731  -7.204  0.00  0.00    +0.046 A 
ATOM     10  C   UNL     1       2.202   0.595  -5.915  0.00  0.00    +0.009 A 
BRANCH   8  11
ATOM     11  O   UNL     1       4.514   1.029  -8.691  0.00  0.00    -0.495 OA
ATOM     12  C   UNL     1       3.555   0.981  -9.750  0.00  0.00    +0.277 C 
ENDBRANCH   8  11
ENDBRANCH   4   5
BRANCH   4  14
ATOM     13  N   UNL     1       1.760   2.840  -3.500  0.00  0.00    -0.309 N 
ATOM     14  C   UNL     1       2.392   1.862  -2.821  0.00  0.00    +0.238 C 
ATOM     15  O   UNL     1       2.834   2.080  -1.713  0.00  0.00    -0.273 OA
ATOM     16  H   UNL     1       1.407   2.665  -4.386  0.00  0.00    +0.149 HD
BRANCH  13  18
ATOM     17  C   UNL     1       2.988   4.755  -2.603  0.00  0.00    +0.031 C 
ATOM     18  C   UNL     1       1.607   4.167  -2.899  0.00  0.00    +0.026 C 
ATOM     19  C   UNL     1       0.813   4.049  -1.597  0.00  0.00    +0.031 C 
ATOM     20  C   UNL     1       0.860   5.083  -3.871  0.00  0.00    +0.031 C 
ENDBRANCH  13  18
ENDBRANCH   4  14
ENDBRANCH   1   4
BRANCH   1  21
ATOM     21  C   UNL     1       4.260   0.344  -1.570  0.00  0.00    +0.183 C 
BRANCH  21  22
ATOM     22  C   UNL     1       3.523   0.189  -0.265  0.00  0.00    +0.122 A 
ATOM     23  C   UNL     1       4.049  -0.269   0.885  0.00  0.00    +0.046 A 
ATOM     24  C   UNL     1       3.012  -0.248   1.847  0.00  0.00    +0.041 A 
ATOM     25  C   UNL     1       1.915   0.222   1.226  0.00  0.00    +0.195 A 
ATOM     26  O   UNL     1       2.232   0.490  -0.051  0.00  0.00    -0.466 OA
ENDBRANCH  21  22
ENDBRANCH   1  21
BRANCH   2  27
ATOM     27  C   UNL     1       4.612  -2.424  -2.070  0.00  0.00    +0.192 C 
BRANCH  27  28
ATOM     28  C   UNL     1       3.978  -2.751  -0.742  0.00  0.00    -0.003 A 
ATOM     29  C   UNL     1       2.602  -2.725  -0.608  0.00  0.00    +0.007 A 
ATOM     30  C   UNL     1       2.021  -3.026   0.609  0.00  0.00    +0.000 A 
ATOM     31  C   UNL     1       2.814  -3.353   1.692  0.00  0.00    +0.000 A 
ATOM     32  C   UNL     1       4.190  -3.380   1.558  0.00  0.00    +0.000 A 
ATOM     33  C   UNL     1       4.771  -3.084   0.340  0.00  0.00    +0.007 A 
ENDBRANCH  27  28
BRANCH  27  34
ATOM     34  C   UNL     1       4.942  -3.701  -2.797  0.00  0.00    -0.003 A 
ATOM     35  C   UNL     1       3.930  -4.563  -3.175  0.00  0.00    +0.007 A 
ATOM     36  C   UNL     1       4.233  -5.735  -3.843  0.00  0.00    +0.000 A 
ATOM     37  C   UNL     1       5.548  -6.045  -4.133  0.00  0.00    +0.000 A 
ATOM     38  C   UNL     1       6.561  -5.183  -3.756  0.00  0.00    +0.000 A 
ATOM     39  C   UNL     1       6.257  -4.009  -3.092  0.00  0.00    +0.007 A 
ENDBRANCH  27  34
BRANCH  27  40
ATOM     40  O   UNL     1       5.810  -1.675  -1.853  0.00  0.00    -0.371 OA
ATOM     41  H   UNL     1       6.272  -1.429  -2.666  0.00  0.00    +0.212 HD
ENDBRANCH  27  40
ENDBRANCH   2  27
TORSDOF 11
