REMARK  Name = ZINC14996324
REMARK  7 active torsions:
REMARK  status: ('A' for Active; 'I' for Inactive)
REMARK    1  A    between atoms: C_1  and  C_2
REMARK    2  A    between atoms: C_5  and  C_11
REMARK    3  A    between atoms: C_25  and  N_33
REMARK    4  A    between atoms: C_27  and  O_29
REMARK    5  A    between atoms: O_29  and  C_30
REMARK    6  A    between atoms: C_30  and  C_31
REMARK    7  A    between atoms: C_34  and  C_36
REMARK                            x       y       z     vdW  Elec       q    Type
REMARK                         _______ _______ _______ _____ _____    ______ ____
ROOT
ATOM      1  C   UNL     1      -0.018   1.503   0.010  0.00  0.00    +0.236 C 
ATOM      2  O   UNL     1      -1.077   2.095   0.018  0.00  0.00    -0.274 OA
ATOM      3  N   UNL     1       1.139   2.192   0.003  0.00  0.00    -0.300 N 
ATOM      4  C   UNL     1       2.429   1.489  -0.007  0.00  0.00    +0.109 C 
ATOM      5  C   UNL     1       3.259   2.007  -1.193  0.00  0.00    +0.033 C 
ATOM      6  C   UNL     1       3.360   3.527  -1.113  0.00  0.00    +0.027 C 
ATOM      7  C   UNL     1       1.974   4.163  -1.170  0.00  0.00    +0.033 C 
ATOM      8  C   UNL     1       1.135   3.662   0.011  0.00  0.00    +0.109 C 
ATOM      9  C   UNL     1       4.225   4.055  -2.233  0.00  0.00    -0.034 A 
ATOM     10  C   UNL     1       4.254   3.728  -3.579  0.00  0.00    +0.004 A 
ATOM     11  C   UNL     1       5.147   4.353  -4.427  0.00  0.00    +0.000 A 
ATOM     12  C   UNL     1       6.016   5.308  -3.933  0.00  0.00    +0.000 A 
ATOM     13  C   UNL     1       5.988   5.635  -2.591  0.00  0.00    +0.006 A 
ATOM     14  C   UNL     1       5.094   5.010  -1.739  0.00  0.00    -0.021 A 
ATOM     15  C   UNL     1       4.867   5.188  -0.252  0.00  0.00    +0.133 C 
ATOM     16  C   UNL     1       4.074   3.938   0.188  0.00  0.00    +0.154 C 
ENDROOT
BRANCH   1  20
ATOM     17  C   UNL     1       1.270  -2.621  -0.575  0.00  0.00    +0.028 C 
ATOM     18  C   UNL     1       0.144  -2.034  -1.429  0.00  0.00    +0.071 C 
ATOM     19  C   UNL     1       0.243  -0.505  -1.426  0.00  0.00    +0.053 C 
ATOM     20  C   UNL     1       0.002  -0.004   0.002  0.00  0.00    +0.160 C 
ATOM     21  N   UNL     1      -1.284  -0.513   0.480  0.00  0.00    -0.315 N 
ATOM     22  C   UNL     1      -1.783  -1.676   0.033  0.00  0.00    +0.131 C 
ATOM     23  S   UNL     1      -3.287  -2.215   0.649  0.00  0.00    -0.019 S 
ATOM     24  N   UNL     1      -1.150  -2.433  -0.875  0.00  0.00    -0.324 N 
ATOM     25  H   UNL     1      -1.786   0.000   1.133  0.00  0.00    +0.148 HD
ATOM     26  H   UNL     1      -1.558  -3.263  -1.170  0.00  0.00    +0.148 HD
ENDBRANCH   1  20
BRANCH  15  27
ATOM     27  N   UNL     1       4.089   6.403   0.002  0.00  0.00    -0.306 N 
ATOM     28  C   UNL     1       4.714   7.590   0.124  0.00  0.00    +0.217 C 
ATOM     29  O   UNL     1       5.921   7.653   0.024  0.00  0.00    -0.275 OA
ATOM     30  H   UNL     1       3.124   6.352   0.082  0.00  0.00    +0.149 HD
BRANCH  28  31
ATOM     31  C   UNL     1       3.913   8.840   0.385  0.00  0.00    +0.075 C 
ATOM     32  C   UNL     1       3.842   9.880  -0.735  0.00  0.00    +0.013 C 
ATOM     33  C   UNL     1       4.681  10.157   0.514  0.00  0.00    +0.013 C 
ENDBRANCH  28  31
ENDBRANCH  15  27
BRANCH  16  34
ATOM     34  O   UNL     1       4.956   2.906   0.632  0.00  0.00    -0.370 OA
BRANCH  34  35
ATOM     35  C   UNL     1       5.126   2.856   2.051  0.00  0.00    +0.187 C 
BRANCH  35  36
ATOM     36  C   UNL     1       6.071   1.737   2.405  0.00  0.00    -0.007 C 
ATOM     37  C   UNL     1       7.024   1.938   3.280  0.00  0.00    +0.006 C 
ENDBRANCH  35  36
ENDBRANCH  34  35
ENDBRANCH  16  34
TORSDOF 6
