REMARK  Name = ZINC63896914
REMARK  5 active torsions:
REMARK  status: ('A' for Active; 'I' for Inactive)
REMARK    1  A    between atoms: C_8  and  C_16
REMARK    2  A    between atoms: C_18  and  O_35
REMARK    3  A    between atoms: C_21  and  S_34
REMARK    4  A    between atoms: N_23  and  C_26
REMARK    5  A    between atoms: C_26  and  C_27
REMARK                            x       y       z     vdW  Elec       q    Type
REMARK                         _______ _______ _______ _____ _____    ______ ____
ROOT
ATOM      1  C   UNL     1       3.425  -2.225   2.342  0.00  0.00    +0.138 C 
ATOM      2  C   UNL     1       3.948  -3.107   3.479  0.00  0.00    +0.198 C 
ATOM      3  N   UNL     1       3.451  -2.565   4.754  0.00  0.00    -0.264 NA
ATOM      4  C   UNL     1       2.000  -2.755   4.862  0.00  0.00    +0.203 C 
ATOM      5  N   UNL     1       1.325  -2.231   3.680  0.00  0.00    -0.272 N 
ATOM      6  C   UNL     1       1.949  -1.999   2.521  0.00  0.00    +0.226 C 
ATOM      7  O   UNL     1       1.302  -1.592   1.579  0.00  0.00    -0.275 OA
ATOM      8  H   UNL     1       3.930  -2.985   5.537  0.00  0.00    +0.127 HD
ENDROOT
BRANCH   1  15
ATOM      9  C   UNL     1       8.596  -0.416   2.536  0.00  0.00    +0.001 A 
ATOM     10  C   UNL     1       8.709  -1.573   3.318  0.00  0.00    +0.002 A 
ATOM     11  C   UNL     1       7.887  -2.634   3.171  0.00  0.00    +0.026 A 
ATOM     12  C   UNL     1       6.854  -2.615   2.196  0.00  0.00    +0.043 A 
ATOM     13  N   UNL     1       5.930  -3.498   1.885  0.00  0.00    -0.376 N 
ATOM     14  C   UNL     1       5.182  -2.998   0.736  0.00  0.00    +0.124 C 
ATOM     15  C   UNL     1       3.676  -2.919   1.001  0.00  0.00    +0.096 C 
ATOM     16  N   UNL     1       3.055  -2.143  -0.084  0.00  0.00    -0.310 NA
ATOM     17  C   UNL     1       3.455  -0.733  -0.088  0.00  0.00    +0.085 C 
ATOM     18  C   UNL     1       4.959  -0.611  -0.395  0.00  0.00    +0.048 C 
ATOM     19  C   UNL     1       5.676  -1.576   0.523  0.00  0.00    -0.036 C 
ATOM     20  C   UNL     1       6.705  -1.398   1.360  0.00  0.00    -0.001 A 
ATOM     21  C   UNL     1       7.645  -0.291   1.583  0.00  0.00    +0.010 A 
ATOM     22  H   UNL     1       3.230  -2.571  -0.980  0.00  0.00    +0.122 HD
ATOM     23  H   UNL     1       5.772  -4.338   2.342  0.00  0.00    +0.160 HD
ENDBRANCH   1  15
BRANCH   4  24
ATOM     24  S   UNL     1       1.639  -4.526   5.019  0.00  0.00    -0.140 S 
ATOM     25  H   UNL     1       2.285  -4.891   6.141  0.00  0.00    +0.105 HD
ENDBRANCH   4  24
BRANCH   2  26
ATOM     26  O   UNL     1       3.476  -4.445   3.305  0.00  0.00    -0.377 OA
ATOM     27  H   UNL     1       3.771  -5.058   3.992  0.00  0.00    +0.211 HD
ENDBRANCH   2  26
BRANCH   5  28
ATOM     28  C   UNL     1      -0.109  -1.944   3.768  0.00  0.00    +0.145 C 
BRANCH  28  29
ATOM     29  C   UNL     1      -0.310  -0.520   4.220  0.00  0.00    -0.030 A 
ATOM     30  C   UNL     1      -0.399  -0.230   5.569  0.00  0.00    +0.008 A 
ATOM     31  C   UNL     1      -0.583   1.075   5.985  0.00  0.00    +0.038 A 
ATOM     32  C   UNL     1      -0.677   2.092   5.050  0.00  0.00    +0.123 A 
ATOM     33  C   UNL     1      -0.588   1.800   3.699  0.00  0.00    +0.038 A 
ATOM     34  C   UNL     1      -0.399   0.495   3.286  0.00  0.00    +0.008 A 
ATOM     35  F   UNL     1      -0.857   3.368   5.455  0.00  0.00    -0.205 F 
ENDBRANCH  28  29
ENDBRANCH   5  28
TORSDOF 5
