REMARK  Name = ZINC26183966
REMARK  4 active torsions:
REMARK  status: ('A' for Active; 'I' for Inactive)
REMARK    1  A    between atoms: C_1  and  C_2
REMARK    2  A    between atoms: C_13  and  C_14
REMARK    3  A    between atoms: C_13  and  O_15
REMARK    4  A    between atoms: C_20  and  C_29
REMARK                            x       y       z     vdW  Elec       q    Type
REMARK                         _______ _______ _______ _____ _____    ______ ____
ROOT
ATOM      1  C   UNL     1      -0.019   1.532   0.011  0.00  0.00    +0.014 C 
ATOM      2  C   UNL     1       0.002  -0.004   0.002  0.00  0.00    -0.000 C 
ATOM      3  C   UNL     1      -1.395  -0.554   0.033  0.00  0.00    +0.010 C 
ATOM      4  C   UNL     1      -2.006  -0.473   1.439  0.00  0.00    +0.005 C 
ATOM      5  C   UNL     1      -1.146   0.279   2.434  0.00  0.00    -0.001 C 
ATOM      6  C   UNL     1       0.277  -0.264   2.511  0.00  0.00    -0.004 C 
ATOM      7  C   UNL     1       0.839  -0.583   1.159  0.00  0.00    +0.001 C 
ATOM      8  C   UNL     1       2.242  -0.048   0.837  0.00  0.00    +0.007 C 
ATOM      9  C   UNL     1       2.320  -0.153  -0.710  0.00  0.00    +0.035 C 
ATOM     10  C   UNL     1       0.871  -0.394  -1.210  0.00  0.00    +0.069 C 
ATOM     11  C   UNL     1       0.685  -1.854  -1.606  0.00  0.00    +0.042 C 
ATOM     12  C   UNL     1       1.137   0.725   3.299  0.00  0.00    +0.004 C 
ATOM     13  C   UNL     1       0.518   0.917   4.686  0.00  0.00    +0.005 C 
ATOM     14  C   UNL     1      -0.682  -0.010   4.881  0.00  0.00    +0.001 C 
ATOM     15  C   UNL     1      -1.766   0.260   3.840  0.00  0.00    -0.022 C 
ATOM     16  C   UNL     1      -2.821  -0.856   3.906  0.00  0.00    +0.045 C 
ATOM     17  C   UNL     1      -3.323  -0.921   5.328  0.00  0.00    -0.006 A 
ATOM     18  C   UNL     1      -4.490  -1.407   5.785  0.00  0.00    +0.108 A 
ATOM     19  N   UNL     1      -4.499  -1.248   7.129  0.00  0.00    -0.284 N 
ATOM     20  H   UNL     1      -5.217  -1.506   7.727  0.00  0.00    +0.188 HD
ATOM     21  N   UNL     1      -3.289  -0.644   7.502  0.00  0.00    -0.179 NA
ATOM     22  C   UNL     1      -2.585  -0.444   6.424  0.00  0.00    +0.066 A 
ATOM     23  C   UNL     1      -1.223   0.188   6.304  0.00  0.00    +0.061 C 
ATOM     24  C   UNL     1      -2.437   1.613   4.095  0.00  0.00    +0.012 C 
ENDROOT
BRANCH  10  25
ATOM     25  O   UNL     1       0.577   0.469  -2.308  0.00  0.00    -0.388 OA
ATOM     26  H   UNL     1       1.090   0.278  -3.106  0.00  0.00    +0.210 HD
ENDBRANCH  10  25
TORSDOF 1
