REMARK  Name = ZINC35326651
REMARK  5 active torsions:
REMARK  status: ('A' for Active; 'I' for Inactive)
REMARK    1  A    between atoms: C_1  and  N_2
REMARK    2  A    between atoms: C_5  and  C_10
REMARK    3  A    between atoms: N_19  and  C_21
REMARK    4  A    between atoms: C_24  and  S_27
REMARK    5  A    between atoms: S_27  and  N_30
REMARK                            x       y       z     vdW  Elec       q    Type
REMARK                         _______ _______ _______ _____ _____    ______ ____
ROOT
ATOM      1  C   UNL     1      -0.018   1.461   0.010  0.00  0.00    +0.139 C 
ATOM      2  N   UNL     1       0.002  -0.004   0.002  0.00  0.00    -0.260 N 
ATOM      3  C   UNL     1      -1.193  -0.666   0.004  0.00  0.00    +0.042 C 
ATOM      4  C   UNL     1      -1.245  -2.014  -0.003  0.00  0.00    +0.058 C 
ATOM      5  C   UNL     1       0.068  -2.770  -0.013  0.00  0.00    +0.142 C 
ATOM      6  N   UNL     1       1.301  -1.964  -0.015  0.00  0.00    -0.288 N 
ATOM      7  C   UNL     1       1.191  -0.621  -0.013  0.00  0.00    +0.307 C 
ATOM      8  O   UNL     1       2.203   0.052  -0.019  0.00  0.00    -0.252 OA
ATOM      9  C   UNL     1      -2.585  -2.452   0.002  0.00  0.00    +0.251 C 
ATOM     10  O   UNL     1      -2.926  -3.621  -0.003  0.00  0.00    -0.270 OA
ATOM     11  N   UNL     1      -3.437  -1.411   0.011  0.00  0.00    -0.262 N 
ATOM     12  C   UNL     1      -2.626  -0.184   0.014  0.00  0.00    +0.165 C 
ATOM     13  H   UNL     1       2.172  -2.391  -0.021  0.00  0.00    +0.151 HD
ENDROOT
BRANCH   5  14
ATOM     14  C   UNL     1       0.100  -3.663   1.200  0.00  0.00    -0.022 A 
ATOM     15  C   UNL     1       0.423  -3.138   2.437  0.00  0.00    +0.007 A 
ATOM     16  C   UNL     1       0.452  -3.958   3.549  0.00  0.00    +0.020 A 
ATOM     17  C   UNL     1       0.157  -5.303   3.425  0.00  0.00    +0.041 A 
ATOM     18  C   UNL     1      -0.167  -5.829   2.187  0.00  0.00    +0.020 A 
ATOM     19  C   UNL     1      -0.201  -5.007   1.076  0.00  0.00    +0.007 A 
ATOM     20 CL   UNL     1       0.194  -6.333   4.822  0.00  0.00    -0.084 Cl
ENDBRANCH   5  14
BRANCH  11  21
ATOM     21  C   UNL     1      -4.833  -1.482   0.017  0.00  0.00    +0.037 A 
ATOM     22  C   UNL     1      -5.590  -0.318   0.021  0.00  0.00    +0.025 A 
ATOM     23  C   UNL     1      -6.969  -0.392   0.027  0.00  0.00    +0.030 A 
ATOM     24  C   UNL     1      -7.597  -1.624   0.029  0.00  0.00    +0.105 A 
ATOM     25  C   UNL     1      -6.847  -2.785   0.025  0.00  0.00    +0.030 A 
ATOM     26  C   UNL     1      -5.467  -2.718   0.013  0.00  0.00    +0.025 A 
BRANCH  24  27
ATOM     27  S   UNL     1      -9.357  -1.714   0.038  0.00  0.00    +0.056 S 
ATOM     28  O   UNL     1      -9.696  -2.978   0.590  0.00  0.00    -0.153 OA
ATOM     29  O   UNL     1      -9.823  -0.491   0.592  0.00  0.00    -0.153 OA
BRANCH  27  30
ATOM     30  N   UNL     1      -9.853  -1.738  -1.542  0.00  0.00    -0.204 NA
ATOM     31  H   UNL     1      -9.198  -1.704  -2.256  0.00  0.00    +0.144 HD
ATOM     32  H   UNL     1     -10.799  -1.786  -1.752  0.00  0.00    +0.144 HD
ENDBRANCH  27  30
ENDBRANCH  24  27
ENDBRANCH  11  21
TORSDOF 4
