REMARK  Name = ZINC63229011
REMARK  11 active torsions:
REMARK  status: ('A' for Active; 'I' for Inactive)
REMARK    1  A    between atoms: C_4  and  C_7
REMARK    2  A    between atoms: C_7  and  C_9
REMARK    3  A    between atoms: C_7  and  C_25
REMARK    4  A    between atoms: C_9  and  N_10
REMARK    5  A    between atoms: N_10  and  C_11
REMARK    6  A    between atoms: C_11  and  C_12
REMARK    7  A    between atoms: C_12  and  C_14
REMARK    8  A    between atoms: C_12  and  O_24
REMARK    9  A    between atoms: C_14  and  O_15
REMARK   10  A    between atoms: O_15  and  C_16
REMARK   11  A    between atoms: C_19  and  C_22
REMARK                            x       y       z     vdW  Elec       q    Type
REMARK                         _______ _______ _______ _____ _____    ______ ____
ROOT
ATOM      1  C   UNL     1       3.791  -1.579  -1.292  0.00  0.00    -0.070 C 
ENDROOT
BRANCH   1   2
ATOM      2  N   UNL     1       3.810  -0.722  -2.485  0.00  0.00    +0.381 N 
ATOM      3  H   UNL     1       2.967  -0.167  -2.513  0.00  0.00    -0.086 HD
ATOM      4  H   UNL     1       4.612  -0.111  -2.447  0.00  0.00    -0.086 HD
BRANCH   2   5
ATOM      5  C   UNL     1       3.886  -1.559  -3.689  0.00  0.00    -0.047 C 
BRANCH   5   6
ATOM      6  C   UNL     1       3.906  -0.665  -4.931  0.00  0.00    +0.135 C 
BRANCH   6   7
ATOM      7  O   UNL     1       5.102   0.116  -4.937  0.00  0.00    -0.390 OA
ATOM      8  H   UNL     1       5.915  -0.409  -4.950  0.00  0.00    +0.210 HD
ENDBRANCH   6   7
BRANCH   6   9
ATOM      9  C   UNL     1       3.860  -1.538  -6.187  0.00  0.00    +0.258 C 
BRANCH   9  10
ATOM     10  O   UNL     1       3.761  -0.703  -7.343  0.00  0.00    -0.489 OA
BRANCH  10  11
ATOM     11  C   UNL     1       3.709  -1.324  -8.549  0.00  0.00    +0.121 A 
ATOM     12  C   UNL     1       3.747  -2.711  -8.616  0.00  0.00    +0.047 A 
ATOM     13  C   UNL     1       3.695  -3.346  -9.838  0.00  0.00    +0.022 A 
ATOM     14  C   UNL     1       3.603  -2.591 -11.011  0.00  0.00    +0.052 A 
ATOM     15  C   UNL     1       3.564  -1.196 -10.939  0.00  0.00    +0.022 A 
ATOM     16  C   UNL     1       3.612  -0.571  -9.713  0.00  0.00    +0.047 A 
BRANCH  14  17
ATOM     17  C   UNL     1       3.548  -3.247 -12.283  0.00  0.00    +0.099 C 
ATOM     18  N   UNL     1       3.505  -3.766 -13.292  0.00  0.00    -0.191 NA
ENDBRANCH  14  17
ENDBRANCH  10  11
ENDBRANCH   9  10
ENDBRANCH   6   9
ENDBRANCH   5   6
ENDBRANCH   2   5
ENDBRANCH   1   2
BRANCH   1  19
ATOM     19  C   UNL     1       3.711  -0.707  -0.038  0.00  0.00    +0.030 C 
BRANCH  19  20
ATOM     20  C   UNL     1       3.816  -1.579   1.188  0.00  0.00    -0.036 C 
ATOM     21  C   UNL     1       4.756  -1.509   2.157  0.00  0.00    -0.001 A 
ATOM     22  C   UNL     1       5.920  -0.636   2.352  0.00  0.00    +0.010 A 
ATOM     23  C   UNL     1       6.696  -0.812   3.446  0.00  0.00    +0.001 A 
ATOM     24  C   UNL     1       6.417  -1.805   4.396  0.00  0.00    +0.002 A 
ATOM     25  C   UNL     1       5.366  -2.646   4.285  0.00  0.00    +0.026 A 
ATOM     26  C   UNL     1       4.483  -2.550   3.174  0.00  0.00    +0.043 A 
ATOM     27  N   UNL     1       3.415  -3.236   2.846  0.00  0.00    -0.380 N 
ATOM     28  C   UNL     1       2.886  -2.703   1.585  0.00  0.00    +0.145 C 
ATOM     29  H   UNL     1       3.036  -3.970   3.354  0.00  0.00    +0.160 HD
ENDBRANCH  19  20
BRANCH  19  33
ATOM     30  C   UNL     1      -0.017   1.378   0.010  0.00  0.00    +0.000 A 
ATOM     31  C   UNL     1       1.171   2.086   0.002  0.00  0.00    +0.000 A 
ATOM     32  C   UNL     1       2.377   1.411  -0.013  0.00  0.00    +0.004 A 
ATOM     33  C   UNL     1       2.396   0.029  -0.020  0.00  0.00    -0.042 A 
ATOM     34  C   UNL     1       1.208  -0.679  -0.012  0.00  0.00    +0.004 A 
ATOM     35  C   UNL     1       0.002  -0.004   0.002  0.00  0.00    +0.000 A 
ENDBRANCH  19  33
ENDBRANCH   1  19
TORSDOF 11
