REMARK  Name = ZINC64468121
REMARK  10 active torsions:
REMARK  status: ('A' for Active; 'I' for Inactive)
REMARK    1  A    between atoms: C_1  and  C_2
REMARK    2  A    between atoms: C_2  and  N_3
REMARK    3  A    between atoms: N_3  and  C_4
REMARK    4  A    between atoms: C_4  and  C_5
REMARK    5  A    between atoms: C_14  and  C_16
REMARK    6  A    between atoms: C_16  and  C_17
REMARK    7  A    between atoms: C_16  and  N_24
REMARK    8  A    between atoms: C_17  and  C_18
REMARK    9  A    between atoms: C_25  and  O_27
REMARK   10  A    between atoms: O_27  and  C_28
REMARK                            x       y       z     vdW  Elec       q    Type
REMARK                         _______ _______ _______ _____ _____    ______ ____
ROOT
ATOM      1  N   UNL     1       0.716  -0.252  -1.371  0.00  0.00    -0.286 N 
ATOM      2  C   UNL     1      -0.079  -0.386  -2.451  0.00  0.00    +0.305 C 
ATOM      3  O   UNL     1      -1.286  -0.311  -2.330  0.00  0.00    -0.252 OA
ATOM      4  N   UNL     1       0.465  -0.603  -3.665  0.00  0.00    -0.282 N 
ATOM      5  C   UNL     1       1.843  -1.098  -3.789  0.00  0.00    +0.128 C 
ATOM      6  C   UNL     1       1.831  -2.377  -4.635  0.00  0.00    +0.127 C 
ATOM      7  N   UNL     1       1.056  -2.124  -5.858  0.00  0.00    -0.297 N 
ATOM      8  C   UNL     1      -0.323  -1.630  -5.733  0.00  0.00    +0.127 C 
ATOM      9  C   UNL     1      -0.312  -0.356  -4.888  0.00  0.00    +0.128 C 
ATOM     10  C   UNL     1       1.599  -2.341  -7.072  0.00  0.00    +0.236 C 
ATOM     11  O   UNL     1       2.738  -2.749  -7.162  0.00  0.00    -0.274 OA
ENDROOT
BRANCH   1  13
ATOM     12  C   UNL     1      -0.245   1.141   0.395  0.00  0.00    +0.024 C 
ATOM     13  C   UNL     1       0.136  -0.280  -0.026  0.00  0.00    +0.106 C 
ENDBRANCH   1  13
BRANCH   1  14
ATOM     14  C   UNL     1       2.161  -0.077  -1.542  0.00  0.00    +0.106 C 
ATOM     15  C   UNL     1       2.886  -1.342  -1.079  0.00  0.00    +0.024 C 
ENDBRANCH   1  14
BRANCH  10  16
ATOM     16  C   UNL     1       0.793  -2.078  -8.317  0.00  0.00    +0.166 C 
BRANCH  16  17
ATOM     17  N   UNL     1       1.696  -1.920  -9.460  0.00  0.00    -0.270 N 
ATOM     18  C   UNL     1       2.518  -2.927  -9.812  0.00  0.00    +0.401 C 
ATOM     19  O   UNL     1       2.511  -3.966  -9.182  0.00  0.00    -0.226 OA
ATOM     20  H   UNL     1       1.701  -1.091  -9.963  0.00  0.00    +0.153 HD
BRANCH  18  21
ATOM     21  O   UNL     1       3.348  -2.783 -10.863  0.00  0.00    -0.454 OA
ATOM     22  C   UNL     1       4.193  -3.891 -11.180  0.00  0.00    +0.282 C 
ENDBRANCH  18  21
ENDBRANCH  16  17
BRANCH  16  23
ATOM     23  C   UNL     1      -0.152  -3.254  -8.572  0.00  0.00    +0.067 C 
BRANCH  23  24
ATOM     24  C   UNL     1      -1.044  -2.938  -9.744  0.00  0.00    -0.045 A 
ATOM     25  C   UNL     1      -2.255  -2.303  -9.540  0.00  0.00    +0.004 A 
ATOM     26  C   UNL     1      -3.073  -2.013 -10.615  0.00  0.00    +0.000 A 
ATOM     27  C   UNL     1      -2.681  -2.357 -11.895  0.00  0.00    +0.000 A 
ATOM     28  C   UNL     1      -1.469  -2.991 -12.100  0.00  0.00    +0.000 A 
ATOM     29  C   UNL     1      -0.649  -3.277 -11.025  0.00  0.00    +0.004 A 
ENDBRANCH  23  24
ENDBRANCH  16  23
ENDBRANCH  10  16
TORSDOF 7
