REMARK  Name = ZINC08745059
REMARK  5 active torsions:
REMARK  status: ('A' for Active; 'I' for Inactive)
REMARK    1  A    between atoms: C_1  and  C_2
REMARK    2  A    between atoms: C_2  and  C_3
REMARK    3  A    between atoms: C_12  and  C_13
REMARK    4  A    between atoms: C_16  and  C_29
REMARK    5  A    between atoms: C_21  and  C_23
REMARK                            x       y       z     vdW  Elec       q    Type
REMARK                         _______ _______ _______ _____ _____    ______ ____
ROOT
ATOM      1  C   UNL     1      -1.058   5.552  -4.221  0.00  0.00    +0.089 C 
ATOM      2  N   UNL     1      -1.954   5.112  -5.035  0.00  0.00    -0.166 NA
ATOM      3  N   UNL     1      -2.479   5.886  -6.066  0.00  0.00    -0.188 N 
ATOM      4  C   UNL     1      -3.148   5.540  -7.195  0.00  0.00    +0.184 A 
ATOM      5  N   UNL     1      -3.410   6.646  -7.843  0.00  0.00    -0.129 NA
ATOM      6  N   UNL     1      -2.952   7.664  -7.194  0.00  0.00    -0.121 NA
ATOM      7  C   UNL     1      -2.378   7.257  -6.104  0.00  0.00    +0.213 A 
ATOM      8  S   UNL     1      -1.581   8.166  -4.820  0.00  0.00    -0.070 S 
ATOM      9  C   UNL     1      -0.395   6.896  -4.299  0.00  0.00    +0.135 C 
ENDROOT
BRANCH   1  19
ATOM     10  C   UNL     1      -0.742   1.585  -1.213  0.00  0.00    -0.024 A 
ATOM     11  C   UNL     1      -1.675   0.784  -1.835  0.00  0.00    +0.005 A 
ATOM     12  C   UNL     1      -2.358   1.234  -2.955  0.00  0.00    +0.001 A 
ATOM     13  C   UNL     1      -2.102   2.486  -3.470  0.00  0.00    +0.010 A 
ATOM     14  C   UNL     1      -1.157   3.304  -2.855  0.00  0.00    +0.009 A 
ATOM     15  C   UNL     1      -0.469   2.853  -1.717  0.00  0.00    +0.050 A 
ATOM     16  N   UNL     1       0.392   3.857  -1.328  0.00  0.00    -0.360 N 
ATOM     17  H   UNL     1       0.990   3.811  -0.566  0.00  0.00    +0.165 HD
ATOM     18  C   UNL     1       0.282   4.924  -2.167  0.00  0.00    +0.093 A 
ATOM     19  C   UNL     1      -0.646   4.660  -3.127  0.00  0.00    +0.024 A 
BRANCH  10  21
ATOM     20  C   UNL     1      -0.729   1.579   1.267  0.00  0.00    +0.009 C 
ATOM     21  C   UNL     1      -0.013   1.086   0.008  0.00  0.00    +0.034 C 
ENDBRANCH  10  21
ENDBRANCH   1  19
BRANCH   9  22
ATOM     22  C   UNL     1       0.736   6.835  -5.293  0.00  0.00    -0.028 A 
ATOM     23  C   UNL     1       0.481   6.503  -6.610  0.00  0.00    +0.005 A 
ATOM     24  C   UNL     1       1.517   6.451  -7.523  0.00  0.00    +0.000 A 
ATOM     25  C   UNL     1       2.810   6.723  -7.117  0.00  0.00    +0.000 A 
ATOM     26  C   UNL     1       3.066   7.049  -5.798  0.00  0.00    +0.000 A 
ATOM     27  C   UNL     1       2.029   7.105  -4.886  0.00  0.00    +0.005 A 
ENDBRANCH   9  22
BRANCH   4  28
ATOM     28  C   UNL     1      -3.518   4.143  -7.623  0.00  0.00    +0.188 C 
ATOM     29  C   UNL     1      -5.043   3.919  -7.464  0.00  0.00    +0.042 C 
ATOM     30  C   UNL     1      -5.284   2.787  -8.500  0.00  0.00    +0.031 C 
ATOM     31  C   UNL     1      -4.268   3.136  -9.609  0.00  0.00    +0.161 C 
ATOM     32  O   UNL     1      -3.256   3.964  -9.024  0.00  0.00    -0.369 OA
ENDBRANCH   4  28
TORSDOF 4
