REMARK  Name = ZINC31654385
REMARK  6 active torsions:
REMARK  status: ('A' for Active; 'I' for Inactive)
REMARK    1  A    between atoms: C_1  and  C_2
REMARK    2  A    between atoms: C_2  and  C_4
REMARK    3  A    between atoms: C_2  and  N_19
REMARK    4  A    between atoms: N_6  and  C_7
REMARK    5  A    between atoms: C_7  and  C_8
REMARK    6  A    between atoms: C_21  and  C_24
REMARK                            x       y       z     vdW  Elec       q    Type
REMARK                         _______ _______ _______ _____ _____    ______ ____
ROOT
ATOM      1  C   UNL     1      -0.121   5.436  -0.498  0.00  0.00    +0.239 C 
ATOM      2  O   UNL     1       0.336   6.086   0.418  0.00  0.00    -0.273 OA
ATOM      3  N   UNL     1       0.185   4.129  -0.616  0.00  0.00    -0.310 N 
ATOM      4  H   UNL     1      -0.229   3.540  -1.448  0.00  0.00    +0.149 HD
ENDROOT
BRANCH   1   6
ATOM      5  C   UNL     1      -0.412   5.981  -2.900  0.00  0.00    +0.044 C 
ATOM      6  C   UNL     1      -1.032   6.091  -1.505  0.00  0.00    +0.212 C 
BRANCH   6   7
ATOM      7  N   UNL     1      -1.207   7.504  -1.159  0.00  0.00    -0.151 N 
ATOM      8  N   UNL     1      -2.333   8.071  -0.892  0.00  0.00    -0.130 NA
ATOM      9  C   UNL     1      -2.092   9.339  -0.626  0.00  0.00    +0.205 A 
ATOM     10  N   UNL     1      -0.769   9.514  -0.753  0.00  0.00    -0.108 NA
ATOM     11  N   UNL     1      -0.262   8.374  -1.079  0.00  0.00    -0.045 NA
BRANCH   9  12
ATOM     12  C   UNL     1      -3.092  10.374  -0.262  0.00  0.00    +0.023 A 
ATOM     13  C   UNL     1      -4.442  10.041  -0.173  0.00  0.00    +0.013 A 
ATOM     14  C   UNL     1      -5.367  11.005   0.173  0.00  0.00    +0.021 A 
ATOM     15  C   UNL     1      -4.957  12.305   0.418  0.00  0.00    +0.041 A 
ATOM     16  C   UNL     1      -3.618  12.642   0.325  0.00  0.00    +0.021 A 
ATOM     17  C   UNL     1      -2.685  11.683  -0.013  0.00  0.00    +0.013 A 
ATOM     18 CL   UNL     1      -6.127  13.515   0.844  0.00  0.00    -0.084 Cl
ENDBRANCH   9  12
ENDBRANCH   6   7
ENDBRANCH   1   6
BRANCH   3  19
ATOM     19  C   UNL     1       1.070   3.493   0.363  0.00  0.00    +0.152 C 
BRANCH  19  20
ATOM     20  C   UNL     1       1.254   2.018   0.001  0.00  0.00    +0.228 C 
ATOM     21  C   UNL     1       2.156   1.338   1.040  0.00  0.00    +0.275 C 
ATOM     22  O   UNL     1       2.296  -0.040   0.679  0.00  0.00    -0.485 OA
ATOM     23  C   UNL     1       1.156  -0.702   0.339  0.00  0.00    +0.162 A 
ATOM     24  C   UNL     1       1.151  -2.089   0.328  0.00  0.00    +0.049 A 
ATOM     25  C   UNL     1       0.003  -2.775  -0.018  0.00  0.00    +0.004 A 
ATOM     26  C   UNL     1      -1.144  -2.081  -0.356  0.00  0.00    +0.004 A 
ATOM     27  C   UNL     1      -1.147  -0.699  -0.346  0.00  0.00    +0.049 A 
ATOM     28  C   UNL     1       0.002  -0.004   0.002  0.00  0.00    +0.163 A 
ATOM     29  O   UNL     1      -0.016   1.357   0.009  0.00  0.00    -0.480 OA
ENDBRANCH  19  20
ENDBRANCH   3  19
TORSDOF 5
