REMARK  Name = ZINC12851373
REMARK  9 active torsions:
REMARK  status: ('A' for Active; 'I' for Inactive)
REMARK    1  A    between atoms: C_1  and  C_2
REMARK    2  A    between atoms: C_2  and  N_3
REMARK    3  A    between atoms: C_4  and  C_22
REMARK    4  A    between atoms: C_7  and  S_8
REMARK    5  A    between atoms: S_8  and  C_9
REMARK    6  A    between atoms: C_9  and  C_10
REMARK    7  A    between atoms: C_22  and  C_24
REMARK    8  A    between atoms: C_22  and  N_25
REMARK    9  A    between atoms: C_26  and  C_28
REMARK                            x       y       z     vdW  Elec       q    Type
REMARK                         _______ _______ _______ _____ _____    ______ ____
ROOT
ATOM      1  N   UNL     1      -2.517  -3.696   1.522  0.00  0.00    -0.305 N 
ATOM      2  C   UNL     1      -2.411  -2.682   0.611  0.00  0.00    +0.154 A 
ATOM      3  N   UNL     1      -3.617  -2.255   0.364  0.00  0.00    -0.132 NA
ATOM      4  N   UNL     1      -4.471  -2.922   1.055  0.00  0.00    -0.122 NA
ATOM      5  C   UNL     1      -3.851  -3.818   1.786  0.00  0.00    +0.192 A 
ENDROOT
BRANCH   1   7
ATOM      6  C   UNL     1      -0.923  -3.809   3.373  0.00  0.00    +0.027 C 
ATOM      7  C   UNL     1      -1.425  -4.487   2.097  0.00  0.00    +0.122 C 
ENDBRANCH   1   7
BRANCH   2   8
ATOM      8  C   UNL     1      -1.136  -2.159   0.001  0.00  0.00    +0.138 C 
ATOM      9  C   UNL     1      -1.017  -2.659  -1.440  0.00  0.00    +0.036 C 
BRANCH   8  10
ATOM     10  N   UNL     1      -1.156  -0.694   0.009  0.00  0.00    -0.299 N 
ATOM     11  C   UNL     1       0.002  -0.004   0.002  0.00  0.00    +0.280 C 
ATOM     12  O   UNL     1       1.064  -0.598  -0.011  0.00  0.00    -0.267 OA
ATOM     13  H   UNL     1      -2.002  -0.220   0.020  0.00  0.00    +0.150 HD
BRANCH  11  14
ATOM     14  C   UNL     1      -0.018   1.462   0.010  0.00  0.00    +0.189 A 
ATOM     15  C   UNL     1       1.076   2.280   0.004  0.00  0.00    +0.054 A 
ATOM     16  C   UNL     1       0.595   3.598   0.016  0.00  0.00    +0.042 A 
ATOM     17  C   UNL     1      -0.755   3.529   0.028  0.00  0.00    +0.196 A 
ATOM     18  O   UNL     1      -1.120   2.240   0.019  0.00  0.00    -0.458 OA
ENDBRANCH  11  14
ENDBRANCH   8  10
ENDBRANCH   2   8
BRANCH   5  19
ATOM     19  S   UNL     1      -4.599  -4.966   2.894  0.00  0.00    -0.078 S 
BRANCH  19  20
ATOM     20  C   UNL     1      -6.340  -4.516   2.685  0.00  0.00    +0.151 C 
BRANCH  20  21
ATOM     21  C   UNL     1      -7.194  -5.393   3.563  0.00  0.00    +0.121 A 
ATOM     22  N   UNL     1      -8.539  -5.203   3.550  0.00  0.00    -0.310 N 
ATOM     23  H   UNL     1      -8.922  -4.516   2.983  0.00  0.00    +0.170 HD
ATOM     24  C   UNL     1      -9.351  -5.968   4.317  0.00  0.00    +0.259 A 
ATOM     25  O   UNL     1     -10.558  -5.812   4.312  0.00  0.00    -0.267 OA
ATOM     26  C   UNL     1      -8.717  -6.992   5.161  0.00  0.00    +0.065 A 
ATOM     27  C   UNL     1      -9.462  -7.828   5.990  0.00  0.00    +0.015 A 
ATOM     28  C   UNL     1      -8.816  -8.770   6.761  0.00  0.00    +0.001 A 
ATOM     29  C   UNL     1      -7.433  -8.892   6.716  0.00  0.00    +0.002 A 
ATOM     30  C   UNL     1      -6.679  -8.076   5.903  0.00  0.00    +0.028 A 
ATOM     31  C   UNL     1      -7.311  -7.113   5.113  0.00  0.00    +0.078 A 
ATOM     32  N   UNL     1      -6.607  -6.289   4.298  0.00  0.00    -0.233 NA
ENDBRANCH  20  21
ENDBRANCH  19  20
ENDBRANCH   5  19
TORSDOF 7
