REMARK  Name = ZINC08970027
REMARK  11 active torsions:
REMARK  status: ('A' for Active; 'I' for Inactive)
REMARK    1  A    between atoms: C_1  and  O_2
REMARK    2  A    between atoms: O_2  and  C_3
REMARK    3  A    between atoms: C_7  and  C_9
REMARK    4  A    between atoms: C_9  and  C_10
REMARK    5  A    between atoms: C_10  and  N_11
REMARK    6  A    between atoms: C_12  and  C_14
REMARK    7  A    between atoms: N_16  and  C_17
REMARK    8  A    between atoms: C_17  and  C_18
REMARK    9  A    between atoms: C_18  and  C_20
REMARK   10  A    between atoms: C_18  and  S_29
REMARK   11  A    between atoms: S_29  and  C_32
REMARK                            x       y       z     vdW  Elec       q    Type
REMARK                         _______ _______ _______ _____ _____    ______ ____
ROOT
ATOM      1  C   UNL     1      -3.251   3.206   2.481  0.00  0.00    +0.136 C 
ENDROOT
BRANCH   1   4
ATOM      2  C   UNL     1      -4.939   1.461   2.271  0.00  0.00    +0.299 C 
ATOM      3  O   UNL     1      -4.406   0.876   3.191  0.00  0.00    -0.265 OA
ATOM      4  N   UNL     1      -4.438   2.636   1.840  0.00  0.00    -0.305 N 
ATOM      5  H   UNL     1      -4.864   3.104   1.104  0.00  0.00    +0.149 HD
BRANCH   2   7
ATOM      6  N   UNL     1      -6.651  -0.295   2.048  0.00  0.00    -0.307 N 
ATOM      7  C   UNL     1      -6.150   0.880   1.617  0.00  0.00    +0.299 C 
ATOM      8  O   UNL     1      -6.683   1.465   0.697  0.00  0.00    -0.265 OA
ATOM      9  H   UNL     1      -6.225  -0.762   2.784  0.00  0.00    +0.149 HD
BRANCH   6  10
ATOM     10  C   UNL     1      -7.838  -0.865   1.407  0.00  0.00    +0.109 C 
BRANCH  10  11
ATOM     11  C   UNL     1      -8.195  -2.191   2.082  0.00  0.00    +0.054 C 
BRANCH  11  16
ATOM     12  C   UNL     1     -10.401  -4.169  -0.263  0.00  0.00    +0.120 A 
ATOM     13  C   UNL     1     -11.664  -3.851   0.215  0.00  0.00    +0.045 A 
ATOM     14  C   UNL     1     -11.799  -2.999   1.293  0.00  0.00    +0.004 A 
ATOM     15  C   UNL     1     -10.676  -2.466   1.900  0.00  0.00    +0.004 A 
ATOM     16  C   UNL     1      -9.417  -2.777   1.422  0.00  0.00    -0.042 A 
ATOM     17  C   UNL     1      -9.277  -3.629   0.343  0.00  0.00    +0.049 A 
BRANCH  12  19
ATOM     18  C   UNL     1     -11.467  -5.526  -1.899  0.00  0.00    +0.277 C 
ATOM     19  O   UNL     1     -10.266  -5.008  -1.324  0.00  0.00    -0.495 OA
ENDBRANCH  12  19
ENDBRANCH  11  16
ENDBRANCH  10  11
ENDBRANCH   6  10
ENDBRANCH   2   7
ENDBRANCH   1   4
BRANCH   1  20
ATOM     20  C   UNL     1      -2.893   4.532   1.806  0.00  0.00    +0.183 C 
BRANCH  20  21
ATOM     21  C   UNL     1      -1.672   5.118   2.466  0.00  0.00    -0.018 A 
ATOM     22  C   UNL     1      -0.483   4.412   2.468  0.00  0.00    +0.009 A 
ATOM     23  C   UNL     1       0.640   4.946   3.072  0.00  0.00    +0.050 A 
ATOM     24  C   UNL     1       0.576   6.191   3.677  0.00  0.00    +0.166 A 
ATOM     25  C   UNL     1      -0.621   6.902   3.675  0.00  0.00    +0.167 A 
ATOM     26  C   UNL     1      -1.741   6.363   3.063  0.00  0.00    +0.055 A 
ATOM     27  O   UNL     1      -0.427   8.086   4.326  0.00  0.00    -0.453 OA
ATOM     28  C   UNL     1       1.001   8.271   4.368  0.00  0.00    +0.466 C 
ATOM     29  O   UNL     1       1.521   6.929   4.330  0.00  0.00    -0.453 OA
ENDBRANCH  20  21
BRANCH  20  30
ATOM     30  S   UNL     1      -2.551   4.243   0.049  0.00  0.00    +0.011 S 
ATOM     31  O   UNL     1      -2.046   5.427  -0.553  0.00  0.00    -0.168 OA
ATOM     32  O   UNL     1      -3.625   3.528  -0.548  0.00  0.00    -0.168 OA
BRANCH  30  33
ATOM     33  C   UNL     1      -1.196   3.116   0.030  0.00  0.00    +0.126 A 
ATOM     34  C   UNL     1      -1.213   1.761   0.017  0.00  0.00    +0.035 A 
ATOM     35  C   UNL     1      -0.013   1.076   0.008  0.00  0.00    +0.009 A 
ATOM     36  C   UNL     1       1.146   1.780   0.001  0.00  0.00    +0.047 A 
ATOM     37  S   UNL     1       0.555   3.464   0.015  0.00  0.00    -0.078 S 
ENDBRANCH  30  33
ENDBRANCH  20  30
ENDBRANCH   1  20
TORSDOF 10
