REMARK  Name = ZINC39686558
REMARK  11 active torsions:
REMARK  status: ('A' for Active; 'I' for Inactive)
REMARK    1  A    between atoms: C_1  and  C_2
REMARK    2  A    between atoms: C_2  and  O_3
REMARK    3  A    between atoms: O_3  and  C_4
REMARK    4  A    between atoms: C_9  and  C_10
REMARK    5  A    between atoms: C_14  and  C_23
REMARK    6  A    between atoms: N_25  and  C_26
REMARK    7  A    between atoms: C_26  and  C_28
REMARK    8  A    between atoms: C_26  and  C_29
REMARK    9  A    between atoms: C_29  and  C_30
REMARK   10  A    between atoms: C_35  and  O_36
REMARK   11  A    between atoms: O_36  and  C_37
REMARK                            x       y       z     vdW  Elec       q    Type
REMARK                         _______ _______ _______ _____ _____    ______ ____
ROOT
ATOM      1  C   UNL     1      -3.806  -1.743   0.135  0.00  0.00    +0.250 C 
ATOM      2  O   UNL     1      -3.612  -0.543   0.142  0.00  0.00    -0.270 OA
ATOM      3  N   UNL     1      -5.054  -2.224  -0.027  0.00  0.00    -0.296 N 
ATOM      4  C   UNL     1      -5.501  -3.635   0.043  0.00  0.00    +0.121 C 
ATOM      5  C   UNL     1      -6.862  -3.579   0.772  0.00  0.00    +0.100 C 
ATOM      6  C   UNL     1      -7.377  -2.150   0.532  0.00  0.00    -0.004 C 
ATOM      7  C   UNL     1      -6.293  -1.459  -0.309  0.00  0.00    +0.115 C 
ATOM      8  C   UNL     1      -8.697  -2.185  -0.231  0.00  0.00    -0.010 C 
ATOM      9  C   UNL     1      -9.218  -0.756  -0.407  0.00  0.00    -0.082 C 
ATOM     10  N   UNL     1      -9.408  -0.137   0.910  0.00  0.00    +0.379 N 
ATOM     11  C   UNL     1      -8.117  -0.022   1.600  0.00  0.00    -0.082 C 
ATOM     12  C   UNL     1      -7.550  -1.420   1.861  0.00  0.00    -0.010 C 
ATOM     13  H   UNL     1      -9.808   0.782   0.794  0.00  0.00    -0.086 HD
ATOM     14  H   UNL     1     -10.033  -0.706   1.461  0.00  0.00    -0.086 HD
ENDROOT
BRANCH   1  20
ATOM     15  C   UNL     1      -1.593  -2.328   1.127  0.00  0.00    +0.133 A 
ATOM     16  C   UNL     1      -0.537  -3.213   1.283  0.00  0.00    +0.046 A 
ATOM     17  C   UNL     1      -0.548  -4.426   0.625  0.00  0.00    +0.004 A 
ATOM     18  C   UNL     1      -1.611  -4.770  -0.194  0.00  0.00    +0.001 A 
ATOM     19  C   UNL     1      -2.669  -3.903  -0.360  0.00  0.00    +0.017 A 
ATOM     20  C   UNL     1      -2.673  -2.674   0.304  0.00  0.00    +0.078 A 
BRANCH  15  21
ATOM     21  O   UNL     1      -1.583  -1.134   1.772  0.00  0.00    -0.491 OA
BRANCH  21  23
ATOM     22  C   UNL     1      -0.616   0.529   3.234  0.00  0.00    +0.048 C 
ATOM     23  C   UNL     1      -0.449  -0.850   2.594  0.00  0.00    +0.226 C 
ENDBRANCH  21  23
ENDBRANCH  15  21
ENDBRANCH   1  20
BRANCH   5  24
ATOM     24  C   UNL     1      -7.814  -4.588   0.185  0.00  0.00    +0.218 C 
ATOM     25  O   UNL     1      -7.758  -4.859  -0.996  0.00  0.00    -0.275 OA
ATOM     26  N   UNL     1      -8.729  -5.189   0.971  0.00  0.00    -0.312 N 
ATOM     27  H   UNL     1      -8.773  -4.973   1.916  0.00  0.00    +0.149 HD
BRANCH  26  28
ATOM     28  C   UNL     1      -9.655  -6.170   0.400  0.00  0.00    +0.074 C 
ATOM     29  C   UNL     1      -8.987  -7.547   0.374  0.00  0.00    +0.028 C 
BRANCH  28  30
ATOM     30  C   UNL     1     -10.921  -6.234   1.256  0.00  0.00    +0.060 C 
BRANCH  30  31
ATOM     31  C   UNL     1     -11.644  -4.914   1.182  0.00  0.00    -0.004 A 
ATOM     32  C   UNL     1     -11.429  -3.953   2.151  0.00  0.00    +0.007 A 
ATOM     33  C   UNL     1     -12.092  -2.742   2.085  0.00  0.00    +0.000 A 
ATOM     34  C   UNL     1     -12.972  -2.489   1.049  0.00  0.00    +0.004 A 
ATOM     35  C   UNL     1     -13.190  -3.446   0.077  0.00  0.00    +0.046 A 
ATOM     36  C   UNL     1     -12.522  -4.660   0.139  0.00  0.00    +0.123 A 
BRANCH  36  37
ATOM     37  O   UNL     1     -12.731  -5.601  -0.819  0.00  0.00    -0.495 OA
ATOM     38  C   UNL     1     -13.648  -5.271  -1.864  0.00  0.00    +0.277 C 
ENDBRANCH  36  37
ENDBRANCH  30  31
ENDBRANCH  28  30
ENDBRANCH  26  28
ENDBRANCH   5  24
TORSDOF 8
