REMARK  Name = ZINC35577409
REMARK  3 active torsions:
REMARK  status: ('A' for Active; 'I' for Inactive)
REMARK    1  A    between atoms: C_3  and  C_18
REMARK    2  A    between atoms: N_7  and  S_8
REMARK    3  A    between atoms: S_8  and  C_11
REMARK                            x       y       z     vdW  Elec       q    Type
REMARK                         _______ _______ _______ _____ _____    ______ ____
ROOT
ATOM      1  C   UNL     1      -0.016   1.353   0.009  0.00  0.00    +0.018 A 
ATOM      2  C   UNL     1       1.165   2.092   0.002  0.00  0.00    +0.020 A 
ATOM      3  C   UNL     1       2.385   1.428  -0.138  0.00  0.00    +0.107 A 
ATOM      4  C   UNL     1       2.333  -0.035  -0.344  0.00  0.00    +0.167 A 
ATOM      5  N   UNL     1       1.183  -0.680   0.082  0.00  0.00    -0.344 N 
ATOM      6  C   UNL     1       0.002  -0.004   0.002  0.00  0.00    +0.084 A 
ATOM      7  N   UNL     1       3.323  -0.689  -0.901  0.00  0.00    -0.110 NA
ATOM      8  H   UNL     1       1.217  -1.587   0.426  0.00  0.00    +0.167 HD
ENDROOT
BRANCH   7   9
ATOM      9  S   UNL     1       3.220  -2.328  -1.111  0.00  0.00    +0.101 S 
ATOM     10  O   UNL     1       3.209  -2.904   0.188  0.00  0.00    -0.146 OA
ATOM     11  O   UNL     1       2.180  -2.552  -2.053  0.00  0.00    -0.146 OA
BRANCH   9  12
ATOM     12  C   UNL     1       4.717  -2.850  -1.880  0.00  0.00    +0.113 A 
ATOM     13  C   UNL     1       4.811  -2.881  -3.259  0.00  0.00    +0.030 A 
ATOM     14  C   UNL     1       5.985  -3.290  -3.863  0.00  0.00    +0.017 A 
ATOM     15  C   UNL     1       7.066  -3.669  -3.087  0.00  0.00    +0.018 A 
ATOM     16  C   UNL     1       6.971  -3.639  -1.707  0.00  0.00    +0.017 A 
ATOM     17  C   UNL     1       5.798  -3.224  -1.105  0.00  0.00    +0.030 A 
ATOM     18 BR   UNL     1       8.672  -4.229  -3.913  0.00  0.00    -0.050 Br
ENDBRANCH   9  12
ENDBRANCH   7   9
BRANCH   3  19
ATOM     19  C   UNL     1       3.658   2.148  -0.085  0.00  0.00    +0.390 C 
ATOM     20  O   UNL     1       3.669   3.361   0.086  0.00  0.00    -0.240 OA
ATOM     21  O   UNL     1       4.712   1.538  -0.212  0.00  0.00    -0.240 OA
ENDBRANCH   3  19
TORSDOF 3
