REMARK  Name = ZINC15861244
REMARK  8 active torsions:
REMARK  status: ('A' for Active; 'I' for Inactive)
REMARK    1  A    between atoms: C_1  and  C_2
REMARK    2  A    between atoms: C_3  and  C_13
REMARK    3  A    between atoms: C_4  and  C_7
REMARK    4  A    between atoms: N_15  and  C_16
REMARK    5  A    between atoms: C_16  and  C_17
REMARK    6  A    between atoms: C_17  and  C_18
REMARK    7  A    between atoms: C_18  and  N_19
REMARK    8  A    between atoms: C_22  and  N_25
REMARK                            x       y       z     vdW  Elec       q    Type
REMARK                         _______ _______ _______ _____ _____    ______ ____
ROOT
ATOM      1  C   UNL     1      -0.014   1.212   0.009  0.00  0.00    +0.250 C 
ATOM      2  O   UNL     1       0.002  -0.004   0.002  0.00  0.00    -0.270 OA
ATOM      3  N   UNL     1       1.143   1.902   0.001  0.00  0.00    -0.311 N 
ATOM      4  H   UNL     1       1.129   3.002   0.007  0.00  0.00    +0.149 HD
ENDROOT
BRANCH   1   7
ATOM      5  C   UNL     1      -1.716   2.187  -2.508  0.00  0.00    +0.090 C 
ATOM      6  C   UNL     1      -2.048   2.360  -1.048  0.00  0.00    +0.147 A 
ATOM      7  C   UNL     1      -1.299   1.931   0.019  0.00  0.00    +0.106 A 
ATOM      8  C   UNL     1      -2.099   2.375   1.182  0.00  0.00    +0.132 A 
ATOM      9  N   UNL     1      -3.151   2.966   0.666  0.00  0.00    -0.077 NA
ATOM     10  O   UNL     1      -3.128   2.957  -0.540  0.00  0.00    -0.359 OA
BRANCH   8  11
ATOM     11  C   UNL     1      -1.782   2.192   2.611  0.00  0.00    +0.043 A 
ATOM     12  C   UNL     1      -2.036   3.031   3.666  0.00  0.00    +0.019 A 
ATOM     13  C   UNL     1      -1.644   2.645   4.927  0.00  0.00    +0.023 A 
ATOM     14  C   UNL     1      -1.019   1.448   5.089  0.00  0.00    +0.056 A 
ATOM     15  S   UNL     1      -0.977   0.819   3.419  0.00  0.00    -0.080 S 
ATOM     16 BR   UNL     1      -0.371   0.651   6.676  0.00  0.00    -0.043 Br
ENDBRANCH   8  11
ENDBRANCH   1   7
BRANCH   3  17
ATOM     17  C   UNL     1       2.422   1.187  -0.015  0.00  0.00    +0.106 C 
BRANCH  17  18
ATOM     18  C   UNL     1       3.571   2.197  -0.020  0.00  0.00    +0.034 C 
BRANCH  18  19
ATOM     19  C   UNL     1       4.907   1.450  -0.037  0.00  0.00    +0.086 C 
BRANCH  19  20
ATOM     20  N   UNL     1       6.010   2.419  -0.042  0.00  0.00    -0.302 NA
ATOM     21  C   UNL     1       6.022   3.196  -1.289  0.00  0.00    +0.083 C 
ATOM     22  C   UNL     1       7.089   4.290  -1.199  0.00  0.00    +0.000 C 
ATOM     23  C   UNL     1       8.457   3.644  -0.965  0.00  0.00    -0.066 C 
ATOM     24  C   UNL     1       8.403   2.802   0.313  0.00  0.00    +0.000 C 
ATOM     25  C   UNL     1       7.299   1.751   0.180  0.00  0.00    +0.083 C 
BRANCH  23  26
ATOM     26  N   UNL     1       9.476   4.692  -0.820  0.00  0.00    +0.382 N 
ATOM     27  C   UNL     1       9.156   5.586   0.300  0.00  0.00    -0.078 C 
ATOM     28  C   UNL     1      10.307   6.572   0.513  0.00  0.00    -0.019 C 
ATOM     29  C   UNL     1      10.520   7.384  -0.768  0.00  0.00    -0.004 C 
ATOM     30  C   UNL     1      10.804   6.426  -1.929  0.00  0.00    -0.019 C 
ATOM     31  C   UNL     1       9.639   5.444  -2.070  0.00  0.00    -0.078 C 
ATOM     32  H   UNL     1      10.436   4.204  -0.595  0.00  0.00    -0.081 HD
ENDBRANCH  23  26
ENDBRANCH  19  20
ENDBRANCH  18  19
ENDBRANCH  17  18
ENDBRANCH   3  17
TORSDOF 7
