REMARK  Name = ZINC12470537
REMARK  14 active torsions:
REMARK  status: ('A' for Active; 'I' for Inactive)
REMARK    1  A    between atoms: C_1  and  C_2
REMARK    2  A    between atoms: C_3  and  C_14
REMARK    3  A    between atoms: C_4  and  O_13
REMARK    4  A    between atoms: N_5  and  C_7
REMARK    5  A    between atoms: C_14  and  C_15
REMARK    6  A    between atoms: C_14  and  C_27
REMARK    7  A    between atoms: C_17  and  O_25
REMARK    8  A    between atoms: C_18  and  O_23
REMARK    9  A    between atoms: C_19  and  O_21
REMARK   10  A    between atoms: O_21  and  C_22
REMARK   11  A    between atoms: O_23  and  C_24
REMARK   12  A    between atoms: O_25  and  C_26
REMARK   13  A    between atoms: C_28  and  C_39
REMARK   14  A    between atoms: N_30  and  C_33
REMARK                            x       y       z     vdW  Elec       q    Type
REMARK                         _______ _______ _______ _____ _____    ______ ____
ROOT
ATOM      1  C   UNL     1      -0.287  -0.327  -2.470  0.00  0.00    +0.093 C 
ENDROOT
BRANCH   1   2
ATOM      2  C   UNL     1       0.905  -0.650  -3.333  0.00  0.00    +0.051 A 
ATOM      3  C   UNL     1       1.668   0.243  -3.996  0.00  0.00    +0.039 A 
ATOM      4  N   UNL     1       2.647  -0.436  -4.663  0.00  0.00    -0.294 N 
ATOM      5  N   UNL     1       2.486  -1.803  -4.403  0.00  0.00    -0.219 N 
ATOM      6  C   UNL     1       1.424  -1.942  -3.583  0.00  0.00    +0.276 A 
ATOM      7  O   UNL     1       0.988  -2.989  -3.142  0.00  0.00    -0.266 OA
ATOM      8  C   UNL     1       1.472   1.737  -4.001  0.00  0.00    +0.065 C 
ATOM      9  H   UNL     1       3.336  -0.040  -5.220  0.00  0.00    +0.187 HD
BRANCH   5  10
ATOM     10  C   UNL     1       3.286  -2.838  -4.899  0.00  0.00    +0.067 A 
ATOM     11  C   UNL     1       3.006  -4.156  -4.563  0.00  0.00    +0.028 A 
ATOM     12  C   UNL     1       3.798  -5.175  -5.054  0.00  0.00    +0.002 A 
ATOM     13  C   UNL     1       4.869  -4.885  -5.879  0.00  0.00    +0.000 A 
ATOM     14  C   UNL     1       5.150  -3.573  -6.216  0.00  0.00    +0.002 A 
ATOM     15  C   UNL     1       4.358  -2.550  -5.733  0.00  0.00    +0.028 A 
ENDBRANCH   5  10
ENDBRANCH   1   2
BRANCH   1  18
ATOM     16  C   UNL     1       2.454  -0.744  -0.940  0.00  0.00    +0.068 C 
ATOM     17  C   UNL     1       1.092  -1.154  -0.440  0.00  0.00    +0.068 A 
ATOM     18  C   UNL     1      -0.117  -0.969  -1.117  0.00  0.00    +0.049 A 
ATOM     19  C   UNL     1      -1.113  -1.471  -0.339  0.00  0.00    +0.220 A 
ATOM     20  N   UNL     1      -0.539  -1.956   0.795  0.00  0.00    -0.200 N 
ATOM     21  N   UNL     1       0.843  -1.748   0.699  0.00  0.00    -0.168 NA
BRANCH  20  22
ATOM     22  C   UNL     1      -1.211  -2.562   1.866  0.00  0.00    +0.069 A 
ATOM     23  C   UNL     1      -2.479  -2.126   2.228  0.00  0.00    +0.028 A 
ATOM     24  C   UNL     1      -3.138  -2.724   3.283  0.00  0.00    +0.002 A 
ATOM     25  C   UNL     1      -2.537  -3.757   3.980  0.00  0.00    +0.000 A 
ATOM     26  C   UNL     1      -1.275  -4.194   3.621  0.00  0.00    +0.002 A 
ATOM     27  C   UNL     1      -0.613  -3.603   2.563  0.00  0.00    +0.028 A 
ENDBRANCH  20  22
BRANCH  19  28
ATOM     28  O   UNL     1      -2.437  -1.484  -0.638  0.00  0.00    -0.492 OA
ATOM     29  H   UNL     1      -2.743  -2.314  -1.030  0.00  0.00    +0.294 HD
ENDBRANCH  19  28
ENDBRANCH   1  18
BRANCH   1  30
ATOM     30  C   UNL     1      -1.538  -0.856  -3.123  0.00  0.00    -0.028 A 
ATOM     31  C   UNL     1      -1.742  -2.219  -3.219  0.00  0.00    +0.054 A 
ATOM     32  C   UNL     1      -2.891  -2.710  -3.820  0.00  0.00    +0.165 A 
ATOM     33  C   UNL     1      -3.839  -1.828  -4.326  0.00  0.00    +0.204 A 
ATOM     34  C   UNL     1      -3.630  -0.458  -4.227  0.00  0.00    +0.165 A 
ATOM     35  C   UNL     1      -2.481   0.025  -3.620  0.00  0.00    +0.054 A 
BRANCH  34  36
ATOM     36  O   UNL     1      -4.555   0.409  -4.721  0.00  0.00    -0.491 OA
ATOM     37  C   UNL     1      -4.274   1.804  -4.585  0.00  0.00    +0.277 C 
ENDBRANCH  34  36
BRANCH  33  38
ATOM     38  O   UNL     1      -4.968  -2.305  -4.917  0.00  0.00    -0.488 OA
ATOM     39  C   UNL     1      -6.100  -2.524  -4.072  0.00  0.00    +0.277 C 
ENDBRANCH  33  38
BRANCH  32  40
ATOM     40  O   UNL     1      -3.091  -4.052  -3.915  0.00  0.00    -0.491 OA
ATOM     41  C   UNL     1      -2.075  -4.898  -3.373  0.00  0.00    +0.277 C 
ENDBRANCH  32  40
ENDBRANCH   1  30
TORSDOF 9
