REMARK  Name = ZINC59292022
REMARK  4 active torsions:
REMARK  status: ('A' for Active; 'I' for Inactive)
REMARK    1  A    between atoms: C_7  and  C_11
REMARK    2  A    between atoms: C_11  and  C_12
REMARK    3  A    between atoms: C_12  and  N_13
REMARK    4  A    between atoms: C_20  and  N_23
REMARK                            x       y       z     vdW  Elec       q    Type
REMARK                         _______ _______ _______ _____ _____    ______ ____
ROOT
ATOM      1  N   UNL     1       2.510  -2.889   5.045  0.00  0.00    -0.299 N 
ATOM      2  C   UNL     1       2.566  -2.559   6.351  0.00  0.00    +0.302 C 
ATOM      3  O   UNL     1       2.967  -1.460   6.683  0.00  0.00    -0.253 OA
ATOM      4  N   UNL     1       2.178  -3.446   7.288  0.00  0.00    -0.287 N 
ATOM      5  C   UNL     1       1.802  -4.816   6.911  0.00  0.00    +0.109 C 
ATOM      6  C   UNL     1       0.410  -5.118   7.476  0.00  0.00    +0.017 C 
ATOM      7  C   UNL     1       0.408  -4.858   8.984  0.00  0.00    -0.012 C 
ATOM      8  C   UNL     1       0.728  -3.385   9.249  0.00  0.00    -0.051 C 
ATOM      9  C   UNL     1       2.129  -3.065   8.706  0.00  0.00    +0.094 C 
ATOM     10  H   UNL     1       2.260  -3.789   4.783  0.00  0.00    +0.150 HD
ENDROOT
BRANCH   8  11
ATOM     11  N   UNL     1       0.694  -3.129  10.695  0.00  0.00    +0.383 N 
ATOM     12  C   UNL     1       0.916  -1.685  10.965  0.00  0.00    -0.078 C 
ATOM     13  C   UNL     1       0.308  -1.490  12.377  0.00  0.00    -0.020 C 
ATOM     14  C   UNL     1      -0.934  -2.411  12.348  0.00  0.00    -0.020 C 
ATOM     15  C   UNL     1      -0.647  -3.438  11.237  0.00  0.00    -0.078 C 
ATOM     16  H   UNL     1       1.395  -3.683  11.164  0.00  0.00    -0.081 HD
ENDBRANCH   8  11
BRANCH   1  17
ATOM     17  C   UNL     1       2.825  -1.889   4.022  0.00  0.00    +0.113 C 
BRANCH  17  18
ATOM     18  C   UNL     1       2.686  -2.517   2.634  0.00  0.00    +0.095 C 
BRANCH  18  25
ATOM     19  C   UNL     1      -0.026   1.524   0.014  0.00  0.00    +0.002 C 
ATOM     20  C   UNL     1       1.395   2.079   0.002  0.00  0.00    +0.008 C 
ATOM     21  C   UNL     1       2.302   1.148  -0.808  0.00  0.00    +0.076 C 
ATOM     22  C   UNL     1       2.857   0.085   0.105  0.00  0.00    +0.133 A 
ATOM     23  N   UNL     1       4.096  -0.309   0.193  0.00  0.00    -0.134 NA
ATOM     24  N   UNL     1       4.188  -1.247   1.069  0.00  0.00    -0.134 NA
ATOM     25  C   UNL     1       3.010  -1.488   1.582  0.00  0.00    +0.135 A 
ATOM     26  N   UNL     1       2.138  -0.642   0.992  0.00  0.00    -0.315 N 
ATOM     27  C   UNL     1       0.705  -0.517   1.260  0.00  0.00    +0.125 C 
ATOM     28  C   UNL     1      -0.005  -0.004   0.005  0.00  0.00    +0.022 C 
ENDBRANCH  18  25
ENDBRANCH  17  18
ENDBRANCH   1  17
TORSDOF 4
