REMARK  Name = ZINC24892822
REMARK  11 active torsions:
REMARK  status: ('A' for Active; 'I' for Inactive)
REMARK    1  A    between atoms: C_1  and  C_2
REMARK    2  A    between atoms: C_2  and  C_4
REMARK    3  A    between atoms: C_2  and  N_10
REMARK    4  A    between atoms: C_4  and  C_5
REMARK    5  A    between atoms: N_10  and  C_11
REMARK    6  A    between atoms: N_10  and  C_20
REMARK    7  A    between atoms: C_11  and  C_12
REMARK    8  A    between atoms: C_15  and  O_18
REMARK    9  A    between atoms: O_18  and  C_19
REMARK   10  A    between atoms: C_20  and  C_21
REMARK   11  A    between atoms: N_23  and  N_24
REMARK                            x       y       z     vdW  Elec       q    Type
REMARK                         _______ _______ _______ _____ _____    ______ ____
ROOT
ATOM      1  N   UNL     1      -3.644   1.983   0.389  0.00  0.00    +0.390 N 
ATOM      2  H   UNL     1      -3.270   2.724   1.111  0.00  0.00    -0.080 HD
ENDROOT
BRANCH   1   4
ATOM      3  C   UNL     1      -4.149   4.103  -0.729  0.00  0.00    -0.013 C 
ATOM      4  C   UNL     1      -3.744   2.640  -0.921  0.00  0.00    -0.066 C 
BRANCH   4   5
ATOM      5  C   UNL     1      -4.797   1.926  -1.771  0.00  0.00    +0.027 C 
BRANCH   5   6
ATOM      6  C   UNL     1      -4.325   0.531  -2.089  0.00  0.00    -0.012 A 
ATOM      7  C   UNL     1      -4.637  -0.637  -1.475  0.00  0.00    +0.011 A 
ATOM      8  C   UNL     1      -4.079  -1.811  -1.944  0.00  0.00    +0.008 A 
ATOM      9  C   UNL     1      -3.235  -1.760  -3.003  0.00  0.00    +0.045 A 
ATOM     10  S   UNL     1      -3.215  -0.015  -3.376  0.00  0.00    -0.102 S 
ENDBRANCH   5   6
ENDBRANCH   4   5
ENDBRANCH   1   4
BRANCH   1  11
ATOM     11  C   UNL     1      -4.963   1.529   0.852  0.00  0.00    -0.042 C 
BRANCH  11  12
ATOM     12  C   UNL     1      -5.785   2.720   1.271  0.00  0.00    -0.064 A 
ATOM     13  C   UNL     1      -5.581   3.300   2.509  0.00  0.00    +0.005 A 
ATOM     14  C   UNL     1      -6.330   4.395   2.893  0.00  0.00    +0.046 A 
ATOM     15  C   UNL     1      -7.296   4.907   2.039  0.00  0.00    +0.120 A 
ATOM     16  C   UNL     1      -7.504   4.320   0.799  0.00  0.00    +0.046 A 
ATOM     17  C   UNL     1      -6.748   3.229   0.418  0.00  0.00    +0.005 A 
BRANCH  15  18
ATOM     18  O   UNL     1      -8.038   5.981   2.417  0.00  0.00    -0.495 OA
ATOM     19  C   UNL     1      -7.769   6.534   3.707  0.00  0.00    +0.277 C 
ENDBRANCH  15  18
ENDBRANCH  11  12
ENDBRANCH   1  11
BRANCH   1  20
ATOM     20  C   UNL     1      -2.688   0.869   0.349  0.00  0.00    +0.021 C 
BRANCH  20  21
ATOM     21  C   UNL     1      -1.284   1.413   0.300  0.00  0.00    +0.213 C 
ATOM     22  O   UNL     1      -1.100   2.609   0.218  0.00  0.00    -0.276 OA
ATOM     23  N   UNL     1      -0.233   0.571   0.348  0.00  0.00    -0.225 N 
ATOM     24  H   UNL     1      -0.400  -0.514   0.428  0.00  0.00    +0.173 HD
BRANCH  23  25
ATOM     25  N   UNL     1       1.073   1.076   0.298  0.00  0.00    -0.137 N 
ATOM     26  C   UNL     1       1.898   1.153   1.362  0.00  0.00    +0.263 C 
ATOM     27  O   UNL     1       1.661   0.811   2.501  0.00  0.00    -0.271 OA
ATOM     28  C   UNL     1       3.181   1.755   0.836  0.00  0.00    +0.114 C 
ATOM     29  C   UNL     1       4.340   0.783   1.023  0.00  0.00    +0.035 C 
ATOM     30  C   UNL     1       5.623   1.399   0.459  0.00  0.00    +0.003 C 
ATOM     31  C   UNL     1       5.917   2.714   1.183  0.00  0.00    +0.000 C 
ATOM     32  C   UNL     1       4.756   3.688   0.966  0.00  0.00    +0.003 C 
ATOM     33  C   UNL     1       3.470   3.081   1.532  0.00  0.00    +0.035 C 
ATOM     34  N   UNL     1       2.914   1.970  -0.592  0.00  0.00    -0.284 N 
ATOM     35  C   UNL     1       1.658   1.538  -0.814  0.00  0.00    +0.326 C 
ATOM     36  O   UNL     1       1.116   1.566  -1.902  0.00  0.00    -0.251 OA
ATOM     37  H   UNL     1       3.689   2.411  -1.236  0.00  0.00    +0.151 HD
ENDBRANCH  23  25
ENDBRANCH  20  21
ENDBRANCH   1  20
TORSDOF 9
