REMARK  Name = ZINC40684940
REMARK  6 active torsions:
REMARK  status: ('A' for Active; 'I' for Inactive)
REMARK    1  A    between atoms: C_1  and  C_2
REMARK    2  A    between atoms: C_5  and  C_8
REMARK    3  A    between atoms: C_8  and  N_9
REMARK    4  A    between atoms: C_11  and  N_26
REMARK    5  A    between atoms: C_12  and  N_16
REMARK    6  A    between atoms: N_16  and  C_17
REMARK                            x       y       z     vdW  Elec       q    Type
REMARK                         _______ _______ _______ _____ _____    ______ ____
ROOT
ATOM      1  N   UNL     1       1.430  -4.779  -0.441  0.00  0.00    -0.323 N 
ATOM      2  C   UNL     1       1.710  -6.125  -0.232  0.00  0.00    +0.145 A 
ATOM      3  C   UNL     1       3.028  -6.587  -0.258  0.00  0.00    +0.105 A 
ATOM      4  C   UNL     1       3.254  -7.947  -0.042  0.00  0.00    +0.149 A 
ATOM      5  N   UNL     1       2.212  -8.746   0.178  0.00  0.00    -0.219 NA
ATOM      6  C   UNL     1       0.984  -8.270   0.194  0.00  0.00    +0.225 A 
ATOM      7  N   UNL     1       0.728  -6.992   0.000  0.00  0.00    -0.219 NA
ATOM      8  H   UNL     1       2.152  -4.154  -0.610  0.00  0.00    +0.148 HD
ENDROOT
BRANCH   3   9
ATOM      9  N   UNL     1       4.096  -5.707  -0.495  0.00  0.00    -0.353 N 
ATOM     10  H   UNL     1       3.924  -4.764  -0.644  0.00  0.00    +0.143 HD
ATOM     11  H   UNL     1       5.006  -6.042  -0.510  0.00  0.00    +0.143 HD
ENDBRANCH   3   9
BRANCH   4  12
ATOM     12  N   UNL     1       4.546  -8.459  -0.058  0.00  0.00    -0.298 N 
ATOM     13  H   UNL     1       5.304  -7.860  -0.136  0.00  0.00    +0.154 HD
BRANCH  12  14
ATOM     14  C   UNL     1       4.753  -9.840   0.039  0.00  0.00    +0.036 A 
ATOM     15  C   UNL     1       5.849 -10.331   0.737  0.00  0.00    +0.027 A 
ATOM     16  C   UNL     1       6.053 -11.694   0.834  0.00  0.00    +0.051 A 
ATOM     17  C   UNL     1       5.167 -12.575   0.236  0.00  0.00    +0.166 A 
ATOM     18  C   UNL     1       4.066 -12.086  -0.464  0.00  0.00    +0.168 A 
ATOM     19  C   UNL     1       3.859 -10.720  -0.556  0.00  0.00    +0.072 A 
ATOM     20  O   UNL     1       3.355 -13.143  -0.952  0.00  0.00    -0.453 OA
ATOM     21  C   UNL     1       4.250 -14.270  -0.894  0.00  0.00    +0.466 C 
ATOM     22  O   UNL     1       5.144 -13.940   0.186  0.00  0.00    -0.453 OA
ENDBRANCH  12  14
ENDBRANCH   4  12
BRANCH   1  23
ATOM     23  C   UNL     1       0.044  -4.306  -0.405  0.00  0.00    +0.138 C 
BRANCH  23  28
ATOM     24  C   UNL     1      -0.075   1.389  -1.378  0.00  0.00    +0.044 C 
ATOM     25  C   UNL     1      -0.043  -0.096  -1.124  0.00  0.00    -0.050 A 
ATOM     26  C   UNL     1      -0.128  -0.980  -2.183  0.00  0.00    +0.003 A 
ATOM     27  C   UNL     1      -0.099  -2.342  -1.951  0.00  0.00    +0.005 A 
ATOM     28  C   UNL     1       0.014  -2.821  -0.659  0.00  0.00    -0.030 A 
ATOM     29  C   UNL     1       0.099  -1.937   0.401  0.00  0.00    +0.005 A 
ATOM     30  C   UNL     1       0.075  -0.575   0.168  0.00  0.00    +0.003 A 
ENDBRANCH  23  28
ENDBRANCH   1  23
TORSDOF 5
