REMARK  Name = ZINC63222004
REMARK  4 active torsions:
REMARK  status: ('A' for Active; 'I' for Inactive)
REMARK    1  A    between atoms: C_1  and  C_2
REMARK    2  A    between atoms: C_2  and  C_35
REMARK    3  A    between atoms: C_6  and  C_18
REMARK    4  A    between atoms: C_21  and  C_23
REMARK                            x       y       z     vdW  Elec       q    Type
REMARK                         _______ _______ _______ _____ _____    ______ ____
ROOT
ATOM      1  C   UNL     1      -0.019   1.526   0.010  0.00  0.00    +0.011 C 
ATOM      2  C   UNL     1       0.002  -0.004   0.002  0.00  0.00    -0.023 C 
ATOM      3  C   UNL     1      -1.431  -0.539   0.041  0.00  0.00    +0.058 C 
ATOM      4  C   UNL     1      -1.408  -2.049   0.074  0.00  0.00    +0.017 C 
ATOM      5  C   UNL     1      -0.403  -2.715   0.675  0.00  0.00    +0.024 C 
ATOM      6  C   UNL     1      -0.366  -4.223   0.748  0.00  0.00    +0.109 C 
ATOM      7  C   UNL     1      -1.238  -4.830  -0.354  0.00  0.00    +0.151 C 
ATOM      8  C   UNL     1      -2.541  -4.066  -0.374  0.00  0.00    +0.106 C 
ATOM      9  N   UNL     1      -3.690  -4.649  -0.227  0.00  0.00    -0.151 NA
ATOM     10  C   UNL     1      -3.808  -5.969  -0.022  0.00  0.00    +0.331 C 
ATOM     11  O   UNL     1      -4.918  -6.456   0.081  0.00  0.00    -0.250 OA
ATOM     12  N   UNL     1      -2.732  -6.766   0.070  0.00  0.00    -0.238 N 
ATOM     13  C   UNL     1      -1.482  -6.284  -0.075  0.00  0.00    +0.231 C 
ATOM     14  O   UNL     1      -0.536  -7.036   0.022  0.00  0.00    -0.275 OA
ATOM     15  N   UNL     1      -2.447  -2.712  -0.541  0.00  0.00    -0.307 N 
ATOM     16  C   UNL     1       0.671  -2.018   1.267  0.00  0.00    +0.162 C 
ATOM     17  O   UNL     1       1.559  -2.646   1.809  0.00  0.00    -0.292 OA
ATOM     18  C   UNL     1       0.742  -0.517   1.242  0.00  0.00    +0.086 C 
ATOM     19  C   UNL     1       0.705  -0.503  -1.262  0.00  0.00    +0.011 C 
ATOM     20  H   UNL     1      -2.856  -7.712   0.244  0.00  0.00    +0.159 HD
ATOM     21  H   UNL     1      -3.096  -2.230  -1.078  0.00  0.00    +0.153 HD
ENDROOT
BRANCH   6  22
ATOM     22  C   UNL     1       1.054  -4.697   0.573  0.00  0.00    +0.114 A 
ATOM     23  C   UNL     1       1.757  -5.420   1.469  0.00  0.00    +0.046 A 
ATOM     24  C   UNL     1       3.029  -5.645   0.911  0.00  0.00    +0.052 A 
ATOM     25  C   UNL     1       3.034  -5.040  -0.311  0.00  0.00    +0.160 A 
ATOM     26  O   UNL     1       1.825  -4.474  -0.502  0.00  0.00    -0.457 OA
BRANCH  25  27
ATOM     27  C   UNL     1       4.159  -5.014  -1.257  0.00  0.00    +0.144 A 
ATOM     28  N   UNL     1       5.355  -5.554  -1.135  0.00  0.00    -0.236 NA
ATOM     29  C   UNL     1       6.296  -5.450  -2.092  0.00  0.00    +0.079 A 
ATOM     30  C   UNL     1       7.610  -5.977  -2.087  0.00  0.00    +0.029 A 
ATOM     31  C   UNL     1       8.444  -5.780  -3.143  0.00  0.00    +0.002 A 
ATOM     32  C   UNL     1       8.047  -5.059  -4.260  0.00  0.00    +0.001 A 
ATOM     33  C   UNL     1       6.772  -4.527  -4.306  0.00  0.00    +0.017 A 
ATOM     34  C   UNL     1       5.921  -4.721  -3.245  0.00  0.00    +0.040 A 
ATOM     35  S   UNL     1       4.250  -4.250  -2.870  0.00  0.00    -0.064 S 
ENDBRANCH  25  27
ENDBRANCH   6  22
TORSDOF 2
