REMARK  Name = ZINC39277065
REMARK  7 active torsions:
REMARK  status: ('A' for Active; 'I' for Inactive)
REMARK    1  A    between atoms: C_1  and  C_2
REMARK    2  A    between atoms: C_4  and  C_9
REMARK    3  A    between atoms: C_5  and  C_8
REMARK    4  A    between atoms: C_9  and  C_10
REMARK    5  A    between atoms: C_11  and  C_25
REMARK    6  A    between atoms: N_13  and  C_18
REMARK    7  A    between atoms: C_21  and  C_24
REMARK                            x       y       z     vdW  Elec       q    Type
REMARK                         _______ _______ _______ _____ _____    ______ ____
ROOT
ATOM      1  C   UNL     1      -2.308   0.305  -2.033  0.00  0.00    +0.076 C 
ATOM      2  C   UNL     1      -0.937   0.723  -2.511  0.00  0.00    +0.147 C 
ATOM      3  N   UNL     1      -1.139   1.386  -3.804  0.00  0.00    -0.262 N 
ATOM      4  C   UNL     1      -2.457   1.373  -4.074  0.00  0.00    +0.289 C 
ATOM      5  O   UNL     1      -2.969   1.842  -5.072  0.00  0.00    -0.266 OA
ATOM      6  C   UNL     1      -3.190   0.700  -2.982  0.00  0.00    +0.249 C 
ATOM      7  O   UNL     1      -4.528   0.509  -2.937  0.00  0.00    -0.282 OA
ENDROOT
BRANCH   3   8
ATOM      8  C   UNL     1      -0.091   1.961  -4.651  0.00  0.00    +0.208 C 
ATOM      9  C   UNL     1      -0.143   3.477  -4.617  0.00  0.00    +0.057 C 
ATOM     10  C   UNL     1      -0.717   3.887  -5.728  0.00  0.00    +0.121 C 
ATOM     11  O   UNL     1      -1.080   2.857  -6.530  0.00  0.00    -0.409 OA
ATOM     12  N   UNL     1      -0.343   1.655  -6.083  0.00  0.00    -0.131 NA
ATOM     13  C   UNL     1      -0.944   5.337  -6.070  0.00  0.00    +0.088 C 
ATOM     14  H   UNL     1       0.524   1.552  -6.589  0.00  0.00    +0.170 HD
ENDBRANCH   3   8
BRANCH   2  15
ATOM     15  C   UNL     1      -0.057  -0.489  -2.681  0.00  0.00    -0.022 A 
ATOM     16  C   UNL     1      -0.249  -1.338  -3.754  0.00  0.00    +0.006 A 
ATOM     17  C   UNL     1       0.559  -2.449  -3.910  0.00  0.00    +0.000 A 
ATOM     18  C   UNL     1       1.559  -2.710  -2.992  0.00  0.00    +0.000 A 
ATOM     19  C   UNL     1       1.751  -1.861  -1.919  0.00  0.00    +0.000 A 
ATOM     20  C   UNL     1       0.947  -0.748  -1.766  0.00  0.00    +0.006 A 
ENDBRANCH   2  15
BRANCH   1  21
ATOM     21  C   UNL     1      -2.623  -0.397  -0.784  0.00  0.00    +0.193 C 
ATOM     22  O   UNL     1      -3.076  -1.527  -0.819  0.00  0.00    -0.287 OA
BRANCH  21  25
ATOM     23  C   UNL     1      -2.977   2.665   0.159  0.00  0.00    +0.035 C 
ATOM     24  C   UNL     1      -1.950   1.692   0.740  0.00  0.00    +0.110 C 
ATOM     25  C   UNL     1      -2.392   0.263   0.509  0.00  0.00    +0.026 C 
ATOM     26  C   UNL     1      -2.532  -0.279   1.738  0.00  0.00    -0.026 C 
ATOM     27  C   UNL     1      -2.201   0.729   2.747  0.00  0.00    +0.082 C 
ATOM     28  N   UNL     1      -1.869   1.849   2.197  0.00  0.00    -0.383 N 
ATOM     29  C   UNL     1      -2.960  -1.695   2.025  0.00  0.00    +0.046 C 
ATOM     30  H   UNL     1      -1.610   2.658   2.666  0.00  0.00    +0.160 HD
ENDBRANCH  21  25
ENDBRANCH   1  21
TORSDOF 4
