REMARK  Name = ZINC17082202
REMARK  7 active torsions:
REMARK  status: ('A' for Active; 'I' for Inactive)
REMARK    1  A    between atoms: C_1  and  C_2
REMARK    2  A    between atoms: C_5  and  S_7
REMARK    3  A    between atoms: S_7  and  C_8
REMARK    4  A    between atoms: C_8  and  C_9
REMARK    5  A    between atoms: N_19  and  C_22
REMARK    6  A    between atoms: C_25  and  O_28
REMARK    7  A    between atoms: O_28  and  C_29
REMARK                            x       y       z     vdW  Elec       q    Type
REMARK                         _______ _______ _______ _____ _____    ______ ____
ROOT
ATOM      1  C   UNL     1      -0.783   3.610   0.029  0.00  0.00    +0.031 A 
ATOM      2  C   UNL     1       0.464   4.117   0.020  0.00  0.00    +0.073 A 
ATOM      3  C   UNL     1       1.579   3.236   0.004  0.00  0.00    +0.196 A 
ATOM      4  O   UNL     1       2.722   3.665  -0.004  0.00  0.00    -0.287 OA
ATOM      5  C   UNL     1       1.310   1.801  -0.001  0.00  0.00    +0.129 A 
ATOM      6  C   UNL     1      -0.016   1.361   0.009  0.00  0.00    +0.140 A 
ATOM      7  N   UNL     1      -1.023   2.272   0.029  0.00  0.00    -0.342 N 
ATOM      8  H   UNL     1      -1.941   1.959   0.040  0.00  0.00    +0.167 HD
ATOM      9  N   UNL     1       0.002  -0.004   0.002  0.00  0.00    -0.274 N 
ATOM     10  H   UNL     1      -0.783  -0.573   0.006  0.00  0.00    +0.189 HD
ATOM     11  N   UNL     1       1.325  -0.458  -0.013  0.00  0.00    -0.217 N 
ATOM     12  C   UNL     1       2.155   0.606  -0.015  0.00  0.00    +0.285 A 
ATOM     13  O   UNL     1       3.372   0.578  -0.027  0.00  0.00    -0.265 OA
ENDROOT
BRANCH  11  14
ATOM     14  C   UNL     1       1.724  -1.801  -0.025  0.00  0.00    +0.067 A 
ATOM     15  C   UNL     1       0.769  -2.809  -0.016  0.00  0.00    +0.031 A 
ATOM     16  C   UNL     1       1.163  -4.133  -0.034  0.00  0.00    +0.048 A 
ATOM     17  C   UNL     1       2.512  -4.455  -0.048  0.00  0.00    +0.120 A 
ATOM     18  C   UNL     1       3.466  -3.448  -0.051  0.00  0.00    +0.048 A 
ATOM     19  C   UNL     1       3.074  -2.124  -0.039  0.00  0.00    +0.031 A 
BRANCH  17  20
ATOM     20  O   UNL     1       2.899  -5.758  -0.059  0.00  0.00    -0.495 OA
ATOM     21  C   UNL     1       1.863  -6.743  -0.055  0.00  0.00    +0.277 C 
ENDBRANCH  17  20
ENDBRANCH  11  14
BRANCH   1  22
ATOM     22  C   UNL     1      -1.953   4.559   0.045  0.00  0.00    +0.129 C 
BRANCH  22  23
ATOM     23  S   UNL     1      -2.406   4.930   1.757  0.00  0.00    -0.091 S 
BRANCH  23  28
ATOM     24  C   UNL     1      -6.988   8.644   1.632  0.00  0.00    +0.075 C 
ATOM     25  C   UNL     1      -5.827   7.702   1.444  0.00  0.00    +0.100 A 
ATOM     26  N   UNL     1      -5.274   7.251   0.337  0.00  0.00    -0.146 NA
ATOM     27  N   UNL     1      -4.294   6.457   0.350  0.00  0.00    -0.135 NA
ATOM     28  C   UNL     1      -3.759   6.026   1.486  0.00  0.00    +0.159 A 
ATOM     29  S   UNL     1      -4.811   6.872   2.662  0.00  0.00    -0.044 S 
ENDBRANCH  23  28
ENDBRANCH  22  23
ENDBRANCH   1  22
TORSDOF 5
