REMARK  Name = ZINC14904543
REMARK  3 active torsions:
REMARK  status: ('A' for Active; 'I' for Inactive)
REMARK    1  A    between atoms: C_4  and  C_7
REMARK    2  A    between atoms: C_25  and  C_26
REMARK    3  A    between atoms: C_29  and  O_32
REMARK                            x       y       z     vdW  Elec       q    Type
REMARK                         _______ _______ _______ _____ _____    ______ ____
ROOT
ATOM      1  C   UNL     1       1.378  -4.295   1.712  0.00  0.00    +0.069 C 
ATOM      2  N   UNL     1       0.170  -4.089   1.300  0.00  0.00    -0.183 NA
ATOM      3  N   UNL     1       0.072  -3.088   0.350  0.00  0.00    -0.181 N 
ATOM      4  C   UNL     1       1.438  -2.710  -0.084  0.00  0.00    +0.138 C 
ATOM      5  C   UNL     1       2.327  -3.373   0.975  0.00  0.00    +0.086 C 
ATOM      6  C   UNL     1       1.508  -1.207  -0.022  0.00  0.00    +0.017 A 
ATOM      7  C   UNL     1       2.746  -0.590  -0.021  0.00  0.00    +0.009 A 
ATOM      8  C   UNL     1       2.840   0.788   0.011  0.00  0.00    +0.001 A 
ATOM      9  C   UNL     1       1.689   1.554   0.041  0.00  0.00    +0.004 A 
ATOM     10  C   UNL     1       0.454   0.944   0.046  0.00  0.00    +0.046 A 
ATOM     11  C   UNL     1       0.349  -0.446   0.023  0.00  0.00    +0.131 A 
ATOM     12  O   UNL     1      -0.901  -0.979   0.078  0.00  0.00    -0.442 OA
ATOM     13  C   UNL     1      -1.091  -2.366  -0.151  0.00  0.00    +0.325 C 
ATOM     14  N   UNL     1      -1.369  -2.670  -1.552  0.00  0.00    -0.247 N 
ATOM     15  C   UNL     1      -2.532  -3.235  -1.843  0.00  0.00    +0.255 C 
ATOM     16  O   UNL     1      -2.813  -3.508  -2.995  0.00  0.00    -0.269 OA
ATOM     17  C   UNL     1      -3.483  -3.530  -0.754  0.00  0.00    +0.077 C 
ATOM     18  C   UNL     1      -4.710  -4.098  -0.832  0.00  0.00    +0.028 C 
ATOM     19  S   UNL     1      -2.608  -2.950   0.694  0.00  0.00    -0.030 S 
ATOM     20  H   UNL     1      -0.725  -2.464  -2.247  0.00  0.00    +0.155 HD
ENDROOT
BRANCH   1  24
ATOM     21  C   UNL     1       2.508  -7.119   4.673  0.00  0.00    +0.000 A 
ATOM     22  C   UNL     1       1.177  -6.991   4.316  0.00  0.00    +0.001 A 
ATOM     23  C   UNL     1       0.803  -6.075   3.355  0.00  0.00    +0.010 A 
ATOM     24  C   UNL     1       1.770  -5.276   2.741  0.00  0.00    -0.002 A 
ATOM     25  C   UNL     1       3.112  -5.415   3.103  0.00  0.00    +0.010 A 
ATOM     26  C   UNL     1       3.472  -6.330   4.070  0.00  0.00    +0.001 A 
ENDBRANCH   1  24
BRANCH  18  27
ATOM     27  C   UNL     1      -5.432  -4.457   0.397  0.00  0.00    -0.024 A 
ATOM     28  C   UNL     1      -4.738  -4.600   1.604  0.00  0.00    +0.011 A 
ATOM     29  C   UNL     1      -5.421  -4.931   2.753  0.00  0.00    +0.046 A 
ATOM     30  C   UNL     1      -6.795  -5.134   2.714  0.00  0.00    +0.117 A 
ATOM     31  C   UNL     1      -7.489  -4.998   1.517  0.00  0.00    +0.046 A 
ATOM     32  C   UNL     1      -6.816  -4.662   0.363  0.00  0.00    +0.011 A 
BRANCH  30  33
ATOM     33  O   UNL     1      -7.463  -5.465   3.849  0.00  0.00    -0.507 OA
ATOM     34  H   UNL     1      -7.525  -6.418   4.005  0.00  0.00    +0.292 HD
ENDBRANCH  30  33
ENDBRANCH  18  27
TORSDOF 3
