REMARK  Name = ZINC64921424
REMARK  6 active torsions:
REMARK  status: ('A' for Active; 'I' for Inactive)
REMARK    1  A    between atoms: C_1  and  C_2
REMARK    2  A    between atoms: C_7  and  C_8
REMARK    3  A    between atoms: C_8  and  N_9
REMARK    4  A    between atoms: C_10  and  C_12
REMARK    5  A    between atoms: N_15  and  S_18
REMARK    6  A    between atoms: S_18  and  C_21
REMARK                            x       y       z     vdW  Elec       q    Type
REMARK                         _______ _______ _______ _____ _____    ______ ____
ROOT
ATOM      1  C   UNL     1      -2.982   1.611   4.282  0.00  0.00    +0.077 C 
ATOM      2  C   UNL     1      -3.892   0.386   4.394  0.00  0.00    +0.030 C 
ATOM      3  C   UNL     1      -5.323   0.843   4.692  0.00  0.00    +0.110 C 
ATOM      4  N   UNL     1      -5.307   1.694   5.890  0.00  0.00    -0.177 NA
ATOM      5  C   UNL     1      -4.400   2.849   5.925  0.00  0.00    +0.110 C 
ATOM      6  C   UNL     1      -2.979   2.369   5.612  0.00  0.00    +0.030 C 
ENDROOT
BRANCH   1   8
ATOM      7  N   UNL     1      -1.338   0.477   2.823  0.00  0.00    -0.311 N 
ATOM      8  C   UNL     1      -1.579   1.167   3.955  0.00  0.00    +0.216 C 
ATOM      9  O   UNL     1      -0.668   1.431   4.710  0.00  0.00    -0.276 OA
ATOM     10  H   UNL     1      -2.067   0.266   2.219  0.00  0.00    +0.149 HD
BRANCH   7  11
ATOM     11  C   UNL     1       0.025   0.045   2.504  0.00  0.00    +0.139 C 
BRANCH  11  18
ATOM     12  C   UNL     1      -0.018   1.503   0.010  0.00  0.00    +0.044 C 
ATOM     13  C   UNL     1       0.002  -0.004   0.002  0.00  0.00    -0.046 A 
ATOM     14  C   UNL     1       0.006  -0.689  -1.199  0.00  0.00    +0.003 A 
ATOM     15  C   UNL     1       0.025  -2.071  -1.207  0.00  0.00    +0.000 A 
ATOM     16  C   UNL     1       0.040  -2.768  -0.013  0.00  0.00    +0.000 A 
ATOM     17  C   UNL     1       0.037  -2.084   1.188  0.00  0.00    +0.005 A 
ATOM     18  C   UNL     1       0.023  -0.702   1.195  0.00  0.00    -0.027 A 
ENDBRANCH  11  18
ENDBRANCH   7  11
ENDBRANCH   1   8
BRANCH   4  19
ATOM     19  S   UNL     1      -6.294   1.357   7.177  0.00  0.00    +0.061 S 
ATOM     20  O   UNL     1      -6.475   2.579   7.880  0.00  0.00    -0.153 OA
ATOM     21  O   UNL     1      -7.385   0.603   6.666  0.00  0.00    -0.153 OA
BRANCH  19  22
ATOM     22  C   UNL     1      -5.400   0.285   8.252  0.00  0.00    +0.107 A 
ATOM     23  C   UNL     1      -5.484  -1.085   8.085  0.00  0.00    +0.032 A 
ATOM     24  C   UNL     1      -4.785  -1.933   8.925  0.00  0.00    +0.049 A 
ATOM     25  C   UNL     1      -3.999  -1.409   9.936  0.00  0.00    +0.142 A 
ATOM     26  C   UNL     1      -3.915  -0.028  10.105  0.00  0.00    +0.078 A 
ATOM     27  C   UNL     1      -4.613   0.817   9.257  0.00  0.00    +0.055 A 
ATOM     28  N   UNL     1      -3.117   0.490  11.135  0.00  0.00    -0.280 N 
ATOM     29  C   UNL     1      -2.213  -0.318  11.731  0.00  0.00    +0.255 C 
ATOM     30  O   UNL     1      -1.534   0.100  12.646  0.00  0.00    -0.272 OA
ATOM     31  C   UNL     1      -2.052  -1.739  11.256  0.00  0.00    +0.325 C 
ATOM     32  O   UNL     1      -3.305  -2.228  10.771  0.00  0.00    -0.481 OA
ATOM     33  H   UNL     1      -3.213   1.414  11.415  0.00  0.00    +0.155 HD
ENDBRANCH  19  22
ENDBRANCH   4  19
TORSDOF 5
