REMARK  Name = ZINC04856585
REMARK  10 active torsions:
REMARK  status: ('A' for Active; 'I' for Inactive)
REMARK    1  A    between atoms: C_1  and  C_2
REMARK    2  A    between atoms: C_2  and  C_8
REMARK    3  A    between atoms: N_3  and  N_4
REMARK    4  A    between atoms: C_8  and  C_9
REMARK    5  A    between atoms: C_9  and  C_10
REMARK    6  A    between atoms: C_12  and  C_26
REMARK    7  A    between atoms: C_16  and  C_24
REMARK    8  A    between atoms: C_16  and  C_25
REMARK    9  A    between atoms: C_21  and  C_22
REMARK   10  A    between atoms: C_21  and  O_23
REMARK                            x       y       z     vdW  Elec       q    Type
REMARK                         _______ _______ _______ _____ _____    ______ ____
ROOT
ATOM      1  C   UNL     1      -2.075   3.084   1.730  0.00  0.00    +0.027 C 
ATOM      2  C   UNL     1      -1.617   3.374   0.303  0.00  0.00    -0.023 C 
ATOM      3  C   UNL     1      -2.674   2.985  -0.724  0.00  0.00    +0.007 C 
ATOM      4  C   UNL     1      -2.193   3.340  -2.135  0.00  0.00    +0.001 C 
ATOM      5  C   UNL     1      -0.921   2.561  -2.449  0.00  0.00    +0.007 C 
ATOM      6  C   UNL     1       0.183   2.868  -1.441  0.00  0.00    -0.032 C 
ATOM      7  C   UNL     1      -0.294   2.678  -0.008  0.00  0.00    +0.001 C 
ATOM      8  C   UNL     1      -0.454   1.178   0.277  0.00  0.00    +0.007 C 
ATOM      9  C   UNL     1      -0.748   0.957   1.760  0.00  0.00    +0.035 C 
ATOM     10  C   UNL     1      -2.054   1.632   2.157  0.00  0.00    +0.067 C 
ATOM     11  C   UNL     1      -3.252   0.860   1.607  0.00  0.00    +0.041 C 
ATOM     12  C   UNL     1       0.744   4.272  -1.692  0.00  0.00    +0.011 C 
ATOM     13  C   UNL     1       1.354   1.903  -1.736  0.00  0.00    +0.011 C 
ATOM     14  C   UNL     1      -1.447   4.909   0.264  0.00  0.00    +0.012 C 
ENDROOT
BRANCH  10  15
ATOM     15  O   UNL     1      -2.144   1.590   3.599  0.00  0.00    -0.389 OA
ATOM     16  H   UNL     1      -2.140   0.697   3.968  0.00  0.00    +0.210 HD
ENDBRANCH  10  15
BRANCH   1  17
ATOM     17  C   UNL     1      -3.465   3.680   1.978  0.00  0.00    +0.013 C 
BRANCH  17  18
ATOM     18  C   UNL     1      -3.849   3.486   3.446  0.00  0.00    +0.052 C 
BRANCH  18  20
ATOM     19  C   UNL     1      -6.438   3.195   3.608  0.00  0.00    +0.062 C 
ATOM     20  C   UNL     1      -5.216   4.073   3.690  0.00  0.00    +0.034 C 
ATOM     21  N   UNL     1      -5.339   5.317   3.966  0.00  0.00    -0.188 NA
BRANCH  21  22
ATOM     22  N   UNL     1      -4.218   6.156   3.930  0.00  0.00    -0.191 N 
ATOM     23  C   UNL     1      -4.327   7.443   4.315  0.00  0.00    +0.317 C 
ATOM     24  O   UNL     1      -3.354   8.172   4.284  0.00  0.00    -0.251 OA
ATOM     25  N   UNL     1      -5.515   7.922   4.735  0.00  0.00    -0.312 N 
ATOM     26  H   UNL     1      -3.363   5.812   3.628  0.00  0.00    +0.179 HD
ATOM     27  H   UNL     1      -6.291   7.341   4.760  0.00  0.00    +0.147 HD
ATOM     28  H   UNL     1      -5.594   8.849   5.012  0.00  0.00    +0.147 HD
ENDBRANCH  21  22
ENDBRANCH  18  20
ENDBRANCH  17  18
ENDBRANCH   1  17
TORSDOF 5
