REMARK  Name = ZINC45802723
REMARK  3 active torsions:
REMARK  status: ('A' for Active; 'I' for Inactive)
REMARK    1  A    between atoms: C_6  and  N_7
REMARK    2  A    between atoms: N_7  and  C_8
REMARK    3  A    between atoms: C_8  and  C_9
REMARK                            x       y       z     vdW  Elec       q    Type
REMARK                         _______ _______ _______ _____ _____    ______ ____
ROOT
ATOM      1  C   UNL     1      -0.017   1.390   0.010  0.00  0.00    +0.025 A 
ATOM      2  C   UNL     1       1.145   2.108   0.002  0.00  0.00    +0.030 A 
ATOM      3  C   UNL     1       2.374   1.444  -0.013  0.00  0.00    +0.078 A 
ATOM      4  C   UNL     1       2.399   0.031  -0.021  0.00  0.00    +0.067 A 
ATOM      5  C   UNL     1       1.206  -0.688  -0.014  0.00  0.00    +0.038 A 
ATOM      6  C   UNL     1       0.002  -0.004   0.002  0.00  0.00    +0.028 A 
ATOM      7  C   UNL     1       3.709  -0.630  -0.038  0.00  0.00    +0.262 A 
ATOM      8  O   UNL     1       3.800  -1.845  -0.047  0.00  0.00    -0.267 OA
ATOM      9  N   UNL     1       4.818   0.154  -0.045  0.00  0.00    -0.296 N 
ATOM     10  C   UNL     1       4.705   1.510  -0.031  0.00  0.00    +0.113 A 
ATOM     11  N   UNL     1       3.548   2.117  -0.018  0.00  0.00    -0.234 NA
ATOM     12  C   UNL     1       6.091   2.134  -0.032  0.00  0.00    +0.076 C 
ATOM     13  C   UNL     1       7.031   0.983   0.384  0.00  0.00    +0.029 C 
ATOM     14  C   UNL     1       6.232  -0.257  -0.066  0.00  0.00    +0.127 C 
ENDROOT
BRANCH   6  15
ATOM     15  N   UNL     1      -1.201  -0.715   0.011  0.00  0.00    -0.338 N 
ATOM     16  H   UNL     1      -1.191  -1.685   0.005  0.00  0.00    +0.146 HD
BRANCH  15  17
ATOM     17  C   UNL     1      -2.477   0.004   0.028  0.00  0.00    +0.155 C 
BRANCH  17  18
ATOM     18  C   UNL     1      -3.612  -0.987   0.034  0.00  0.00    +0.040 A 
ATOM     19  C   UNL     1      -4.463  -1.073   1.115  0.00  0.00    +0.093 A 
ATOM     20  C   UNL     1      -5.509  -1.996   1.103  0.00  0.00    +0.259 A 
ATOM     21  O   UNL     1      -6.266  -2.075   2.058  0.00  0.00    -0.267 OA
ATOM     22  N   UNL     1      -5.686  -2.811   0.020  0.00  0.00    -0.263 N 
ATOM     23  C   UNL     1      -6.662  -3.764  -0.140  0.00  0.00    +0.104 A 
ATOM     24  C   UNL     1      -6.730  -4.500  -1.250  0.00  0.00    +0.067 A 
ATOM     25  S   UNL     1      -5.351  -3.868  -2.193  0.00  0.00    -0.059 S 
ATOM     26  C   UNL     1      -4.795  -2.660  -1.010  0.00  0.00    +0.158 A 
ATOM     27  N   UNL     1      -3.815  -1.792  -1.006  0.00  0.00    -0.337 N 
ATOM     28  H   UNL     1      -3.224  -1.736  -1.774  0.00  0.00    +0.168 HD
ENDBRANCH  17  18
ENDBRANCH  15  17
ENDBRANCH   6  15
TORSDOF 3
