REMARK  Name = ZINC09394042
REMARK  11 active torsions:
REMARK  status: ('A' for Active; 'I' for Inactive)
REMARK    1  A    between atoms: C_1  and  C_2
REMARK    2  A    between atoms: C_2  and  C_3
REMARK    3  A    between atoms: C_3  and  N_4
REMARK    4  A    between atoms: C_5  and  N_35
REMARK    5  A    between atoms: C_6  and  C_13
REMARK    6  A    between atoms: C_13  and  C_15
REMARK    7  A    between atoms: C_15  and  O_16
REMARK    8  A    between atoms: O_16  and  C_17
REMARK    9  A    between atoms: C_17  and  C_19
REMARK   10  A    between atoms: C_21  and  C_29
REMARK   11  A    between atoms: C_32  and  C_34
REMARK                            x       y       z     vdW  Elec       q    Type
REMARK                         _______ _______ _______ _____ _____    ______ ____
ROOT
ATOM      1  O   UNL     1      -0.819  -4.656  -3.602  0.00  0.00    -0.453 OA
ENDROOT
BRANCH   1   2
ATOM      2  C   UNL     1      -0.911  -5.992  -3.751  0.00  0.00    +0.340 C 
ATOM      3  O   UNL     1      -0.792  -6.721  -2.786  0.00  0.00    -0.245 OA
BRANCH   2   4
ATOM      4  C   UNL     1      -1.158  -6.571  -5.088  0.00  0.00    +0.070 A 
ATOM      5  C   UNL     1      -1.188  -5.775  -6.224  0.00  0.00    +0.047 A 
ATOM      6  C   UNL     1      -1.427  -6.369  -7.476  0.00  0.00    +0.107 A 
ATOM      7  N   UNL     1      -1.624  -7.666  -7.613  0.00  0.00    -0.244 NA
ATOM      8  C   UNL     1      -1.611  -8.503  -6.574  0.00  0.00    +0.073 A 
ATOM      9  C   UNL     1      -1.373  -8.008  -5.267  0.00  0.00    +0.014 A 
ATOM     10  C   UNL     1      -1.355  -8.890  -4.182  0.00  0.00    +0.011 A 
ATOM     11  C   UNL     1      -1.560 -10.222  -4.392  0.00  0.00    +0.001 A 
ATOM     12  C   UNL     1      -1.788 -10.715  -5.675  0.00  0.00    +0.002 A 
ATOM     13  C   UNL     1      -1.824  -9.883  -6.752  0.00  0.00    +0.028 A 
BRANCH   6  14
ATOM     14  C   UNL     1      -1.456  -5.513  -8.676  0.00  0.00    +0.153 A 
ATOM     15  C   UNL     1      -1.668  -5.934  -9.954  0.00  0.00    +0.052 A 
ATOM     16  C   UNL     1      -1.616  -4.790 -10.771  0.00  0.00    +0.045 A 
ATOM     17  C   UNL     1      -1.369  -3.738  -9.965  0.00  0.00    +0.103 A 
ATOM     18  O   UNL     1      -1.273  -4.178  -8.701  0.00  0.00    -0.458 OA
ATOM     19  C   UNL     1      -1.223  -2.305 -10.409  0.00  0.00    +0.086 C 
ENDBRANCH   6  14
ENDBRANCH   2   4
ENDBRANCH   1   2
BRANCH   1  20
ATOM     20  C   UNL     1      -0.576  -4.158  -2.260  0.00  0.00    +0.312 C 
BRANCH  20  21
ATOM     21  C   UNL     1      -0.504  -2.653  -2.288  0.00  0.00    +0.209 C 
ATOM     22  O   UNL     1      -0.644  -2.058  -3.338  0.00  0.00    -0.288 OA
BRANCH  21  25
ATOM     23  N   UNL     1      -0.093   0.120   0.106  0.00  0.00    -0.281 N 
ATOM     24  C   UNL     1      -0.327  -0.531  -1.072  0.00  0.00    +0.116 A 
ATOM     25  C   UNL     1      -0.274  -1.935  -1.095  0.00  0.00    +0.123 A 
ATOM     26  C   UNL     1       0.025  -2.632   0.163  0.00  0.00    +0.266 A 
ATOM     27  O   UNL     1       0.081  -3.847   0.202  0.00  0.00    -0.267 OA
ATOM     28  N   UNL     1       0.237  -1.896   1.274  0.00  0.00    -0.274 N 
ATOM     29  H   UNL     1       0.442  -2.356   2.138  0.00  0.00    +0.173 HD
ATOM     30  C   UNL     1       0.176  -0.555   1.234  0.00  0.00    +0.331 A 
ATOM     31  O   UNL     1       0.373   0.070   2.258  0.00  0.00    -0.246 OA
BRANCH  24  32
ATOM     32  N   UNL     1      -0.604   0.169  -2.205  0.00  0.00    -0.344 N 
ATOM     33  H   UNL     1      -0.302   1.087  -2.295  0.00  0.00    +0.144 HD
ATOM     34  H   UNL     1      -1.105  -0.249  -2.923  0.00  0.00    +0.144 HD
ENDBRANCH  24  32
BRANCH  23  35
ATOM     35  C   UNL     1      -0.142   1.584   0.140  0.00  0.00    +0.128 C 
BRANCH  35  37
ATOM     36  C   UNL     1       1.198   3.676  -0.117  0.00  0.00    +0.005 C 
ATOM     37  C   UNL     1       1.249   2.148  -0.152  0.00  0.00    +0.018 C 
ENDBRANCH  35  37
ENDBRANCH  23  35
ENDBRANCH  21  25
ENDBRANCH  20  21
ENDBRANCH   1  20
TORSDOF 9
