REMARK  Name = ZINC06466142
REMARK  6 active torsions:
REMARK  status: ('A' for Active; 'I' for Inactive)
REMARK    1  A    between atoms: C_1  and  C_2
REMARK    2  A    between atoms: C_2  and  C_4
REMARK    3  A    between atoms: C_2  and  S_13
REMARK    4  A    between atoms: N_6  and  C_7
REMARK    5  A    between atoms: S_13  and  C_14
REMARK    6  A    between atoms: C_17  and  C_20
REMARK                            x       y       z     vdW  Elec       q    Type
REMARK                         _______ _______ _______ _____ _____    ______ ____
ROOT
ATOM      1  S   UNL     1       2.899  -5.704  -0.058  0.00  0.00    -0.074 S 
ENDROOT
BRANCH   1   2
ATOM      2  C   UNL     1       1.915  -4.242  -0.040  0.00  0.00    +0.185 A 
ATOM      3  N   UNL     1       2.376  -2.955  -0.043  0.00  0.00    -0.201 NA
ATOM      4  H   UNL     1      -0.139  -4.998  -0.017  0.00  0.00    +0.191 HD
ATOM      5  C   UNL     1       1.253  -2.160  -0.022  0.00  0.00    +0.185 A 
ATOM      6  N   UNL     1       0.213  -2.961  -0.007  0.00  0.00    -0.151 NA
ATOM      7  N   UNL     1       0.603  -4.186  -0.021  0.00  0.00    -0.253 N 
BRANCH   5   8
ATOM      8  C   UNL     1       1.224  -0.682  -0.017  0.00  0.00    +0.056 A 
ATOM      9  C   UNL     1       2.417   0.043  -0.024  0.00  0.00    +0.014 A 
ATOM     10  C   UNL     1       2.383   1.422  -0.021  0.00  0.00    +0.001 A 
ATOM     11  C   UNL     1       1.170   2.088  -0.009  0.00  0.00    +0.003 A 
ATOM     12  C   UNL     1      -0.017   1.378  -0.003  0.00  0.00    +0.039 A 
ATOM     13  C   UNL     1       0.002  -0.004  -0.006  0.00  0.00    +0.134 A 
ATOM     14  F   UNL     1      -1.157  -0.697   0.000  0.00  0.00    -0.205 F 
ENDBRANCH   5   8
ENDBRANCH   1   2
BRANCH   1  16
ATOM     15  C   UNL     1       0.817  -6.882   1.262  0.00  0.00    +0.029 C 
ATOM     16  C   UNL     1       1.595  -6.959  -0.053  0.00  0.00    +0.137 C 
BRANCH  16  17
ATOM     17  C   UNL     1       2.215  -8.326  -0.190  0.00  0.00    +0.226 C 
ATOM     18  O   UNL     1       3.360  -8.512   0.163  0.00  0.00    -0.275 OA
ATOM     19  N   UNL     1       1.495  -9.343  -0.706  0.00  0.00    -0.312 N 
ATOM     20  H   UNL     1       0.456  -9.175  -1.026  0.00  0.00    +0.149 HD
BRANCH  19  21
ATOM     21  C   UNL     1       2.097 -10.672  -0.840  0.00  0.00    +0.073 C 
ATOM     22  C   UNL     1       2.875 -10.750  -2.155  0.00  0.00    +0.022 C 
ATOM     23  C   UNL     1       3.504 -12.138  -2.294  0.00  0.00    +0.002 C 
ATOM     24  C   UNL     1       2.402 -13.199  -2.290  0.00  0.00    +0.000 C 
ATOM     25  C   UNL     1       1.624 -13.122  -0.975  0.00  0.00    +0.002 C 
ATOM     26  C   UNL     1       0.995 -11.734  -0.836  0.00  0.00    +0.022 C 
ENDBRANCH  19  21
ENDBRANCH  16  17
ENDBRANCH   1  16
TORSDOF 5
