REMARK  Name = ZINC43861335
REMARK  3 active torsions:
REMARK  status: ('A' for Active; 'I' for Inactive)
REMARK    1  A    between atoms: C_1  and  C_2
REMARK    2  A    between atoms: C_2  and  C_4
REMARK    3  A    between atoms: C_2  and  N_14
REMARK                            x       y       z     vdW  Elec       q    Type
REMARK                         _______ _______ _______ _____ _____    ______ ____
ROOT
ATOM      1  N   UNL     1       0.709  -0.494   1.188  0.00  0.00    -0.293 N 
ATOM      2  C   UNL     1       0.051  -0.633   2.355  0.00  0.00    +0.303 C 
ATOM      3  O   UNL     1      -1.106  -0.272   2.448  0.00  0.00    -0.253 OA
ATOM      4  N   UNL     1       0.676  -1.174   3.420  0.00  0.00    -0.285 N 
ATOM      5  C   UNL     1      -0.060  -1.444   4.663  0.00  0.00    +0.114 C 
ATOM      6  C   UNL     1       0.671  -0.768   5.827  0.00  0.00    +0.084 C 
ATOM      7  C   UNL     1       2.130  -1.229   5.843  0.00  0.00    +0.173 C 
ATOM      8  C   UNL     1       2.818  -0.829   4.537  0.00  0.00    +0.084 C 
ATOM      9  C   UNL     1       2.105  -1.511   3.359  0.00  0.00    +0.114 C 
ATOM     10  O   UNL     1       2.812  -0.625   6.950  0.00  0.00    -0.346 OA
ATOM     11  C   UNL     1       3.301  -1.693   7.786  0.00  0.00    +0.191 C 
ATOM     12  C   UNL     1       3.340  -2.904   6.821  0.00  0.00    +0.191 C 
ATOM     13  O   UNL     1       2.179  -2.657   5.992  0.00  0.00    -0.346 OA
ATOM     14  H   UNL     1       1.652  -0.715   1.133  0.00  0.00    +0.151 HD
ENDROOT
BRANCH   1  16
ATOM     15  C   UNL     1      -0.015   1.522   0.007  0.00  0.00    +0.033 C 
ATOM     16  C   UNL     1       0.000  -0.008   0.001  0.00  0.00    +0.102 C 
BRANCH  16  17
ATOM     17  C   UNL     1       0.702  -0.498  -1.239  0.00  0.00    -0.027 A 
ATOM     18  C   UNL     1       2.083  -0.525  -1.290  0.00  0.00    +0.006 A 
ATOM     19  C   UNL     1       2.718  -0.972  -2.430  0.00  0.00    +0.004 A 
ATOM     20  C   UNL     1       1.981  -1.398  -3.527  0.00  0.00    -0.044 A 
ATOM     21  C   UNL     1       0.606  -1.377  -3.475  0.00  0.00    -0.044 A 
ATOM     22  C   UNL     1      -0.032  -0.927  -2.325  0.00  0.00    +0.009 A 
ATOM     23  C   UNL     1      -0.257  -1.838  -4.620  0.00  0.00    +0.035 C 
ATOM     24  C   UNL     1       0.552  -1.888  -5.915  0.00  0.00    +0.005 C 
ATOM     25  C   UNL     1       1.833  -2.690  -5.656  0.00  0.00    +0.005 C 
ATOM     26  C   UNL     1       2.739  -1.867  -4.742  0.00  0.00    +0.035 C 
ENDBRANCH  16  17
ENDBRANCH   1  16
TORSDOF 2
