REMARK  Name = ZINC33568260
REMARK  4 active torsions:
REMARK  status: ('A' for Active; 'I' for Inactive)
REMARK    1  A    between atoms: C_3  and  S_20
REMARK    2  A    between atoms: C_6  and  C_7
REMARK    3  A    between atoms: C_10  and  C_12
REMARK    4  A    between atoms: S_20  and  N_23
REMARK                            x       y       z     vdW  Elec       q    Type
REMARK                         _______ _______ _______ _____ _____    ______ ____
ROOT
ATOM      1  C   UNL     1      -0.883   7.222   0.045  0.00  0.00    +0.136 A 
ATOM      2  C   UNL     1      -2.217   7.513   0.060  0.00  0.00    +0.050 A 
ATOM      3  C   UNL     1      -2.904   6.296   0.061  0.00  0.00    +0.050 A 
ATOM      4  C   UNL     1      -1.946   5.298   0.047  0.00  0.00    +0.130 A 
ATOM      5  O   UNL     1      -0.731   5.885   0.044  0.00  0.00    -0.455 OA
ENDROOT
BRANCH   4   6
ATOM      6  C   UNL     1      -2.196   3.908   0.043  0.00  0.00    +0.063 C 
ATOM      7  C   UNL     1      -1.153   3.027   0.028  0.00  0.00    +0.049 C 
ATOM      8  C   UNL     1      -1.170   1.601   0.016  0.00  0.00    +0.093 C 
ATOM      9  S   UNL     1      -2.648   0.738   0.019  0.00  0.00    -0.034 S 
ATOM     10  N   UNL     1      -0.011   0.966   0.007  0.00  0.00    -0.269 N 
ATOM     11  C   UNL     1       1.156   1.648  -0.000  0.00  0.00    +0.281 C 
ATOM     12  O   UNL     1       2.292   1.214  -0.013  0.00  0.00    -0.262 OA
ATOM     13  S   UNL     1       0.606   3.347   0.014  0.00  0.00    -0.029 S 
ATOM     14  H   UNL     1       0.013  -0.134   0.006  0.00  0.00    +0.156 HD
ENDBRANCH   4   6
BRANCH   1  20
ATOM     15  C   UNL     1      -0.076   9.579   0.043  0.00  0.00    +0.013 A 
ATOM     16  C   UNL     1       0.952  10.497   0.042  0.00  0.00    +0.029 A 
ATOM     17  C   UNL     1       2.268  10.068   0.028  0.00  0.00    +0.105 A 
ATOM     18  C   UNL     1       2.561   8.716   0.019  0.00  0.00    +0.029 A 
ATOM     19  C   UNL     1       1.543   7.786   0.025  0.00  0.00    +0.013 A 
ATOM     20  C   UNL     1       0.212   8.212   0.040  0.00  0.00    +0.017 A 
BRANCH  17  21
ATOM     21  S   UNL     1       3.575  11.249   0.020  0.00  0.00    +0.056 S 
ATOM     22  O   UNL     1       3.047  12.443   0.581  0.00  0.00    -0.153 OA
ATOM     23  O   UNL     1       4.717  10.595   0.557  0.00  0.00    -0.153 OA
BRANCH  21  24
ATOM     24  N   UNL     1       3.923  11.584  -1.564  0.00  0.00    -0.204 NA
ATOM     25  H   UNL     1       4.738  12.321  -1.613  0.00  0.00    +0.144 HD
ATOM     26  H   UNL     1       3.029  11.993  -2.057  0.00  0.00    +0.144 HD
ENDBRANCH  21  24
ENDBRANCH  17  21
ENDBRANCH   1  20
TORSDOF 4
