REMARK  Name = ZINC36066220
REMARK  12 active torsions:
REMARK  status: ('A' for Active; 'I' for Inactive)
REMARK    1  A    between atoms: C_1  and  C_2
REMARK    2  A    between atoms: C_2  and  C_3
REMARK    3  A    between atoms: C_3  and  C_5
REMARK    4  A    between atoms: C_3  and  N_6
REMARK    5  A    between atoms: C_7  and  C_32
REMARK    6  A    between atoms: C_15  and  C_21
REMARK    7  A    between atoms: N_23  and  C_24
REMARK    8  A    between atoms: C_28  and  S_30
REMARK    9  A    between atoms: S_30  and  C_31
REMARK   10  A    between atoms: N_34  and  C_35
REMARK   11  A    between atoms: C_40  and  C_45
REMARK   12  A    between atoms: C_42  and  C_44
REMARK                            x       y       z     vdW  Elec       q    Type
REMARK                         _______ _______ _______ _____ _____    ______ ____
ROOT
ATOM      1  N   UNL     1      -2.725  -0.386  -1.040  0.00  0.00    -0.284 N 
ATOM      2  C   UNL     1      -3.905   0.510  -1.258  0.00  0.00    +0.199 C 
ATOM      3  C   UNL     1      -4.303   0.161  -2.658  0.00  0.00    +0.127 C 
ATOM      4  C   UNL     1      -4.934  -1.215  -2.766  0.00  0.00    +0.009 C 
ATOM      5  C   UNL     1      -5.237  -1.373  -4.046  0.00  0.00    +0.004 C 
ATOM      6  C   UNL     1      -4.727  -0.100  -4.734  0.00  0.00    +0.155 C 
ATOM      7  O   UNL     1      -4.938   0.914  -3.665  0.00  0.00    -0.358 OA
ATOM      8  C   UNL     1      -3.164  -0.314  -4.712  0.00  0.00    +0.123 C 
ATOM      9  C   UNL     1      -2.848   0.099  -3.275  0.00  0.00    +0.128 C 
ATOM     10  C   UNL     1      -2.160  -0.708  -2.251  0.00  0.00    +0.224 C 
ATOM     11  O   UNL     1      -1.267  -1.505  -2.442  0.00  0.00    -0.275 OA
ENDROOT
BRANCH   8  12
ATOM     12  C   UNL     1      -2.811  -1.756  -4.970  0.00  0.00    +0.224 C 
ATOM     13  O   UNL     1      -2.218  -2.396  -4.127  0.00  0.00    -0.275 OA
ATOM     14  N   UNL     1      -3.155  -2.335  -6.138  0.00  0.00    -0.285 N 
ATOM     15  H   UNL     1      -3.695  -1.849  -6.780  0.00  0.00    +0.155 HD
BRANCH  14  16
ATOM     16  C   UNL     1      -2.732  -3.638  -6.423  0.00  0.00    +0.034 A 
ATOM     17  C   UNL     1      -3.540  -4.482  -7.177  0.00  0.00    +0.023 A 
ATOM     18  C   UNL     1      -3.124  -5.769  -7.459  0.00  0.00    +0.003 A 
ATOM     19  C   UNL     1      -1.905  -6.222  -6.994  0.00  0.00    +0.015 A 
ATOM     20  C   UNL     1      -1.092  -5.383  -6.240  0.00  0.00    +0.009 A 
ATOM     21  C   UNL     1      -1.505  -4.087  -5.960  0.00  0.00    +0.038 A 
BRANCH  20  22
ATOM     22  S   UNL     1       0.462  -5.962  -5.646  0.00  0.00    -0.129 S 
ATOM     23  C   UNL     1       0.559  -7.667  -6.258  0.00  0.00    +0.090 C 
ENDBRANCH  20  22
ENDBRANCH  14  16
ENDBRANCH   8  12
BRANCH   2  24
ATOM     24  C   UNL     1      -5.011   0.189  -0.286  0.00  0.00    +0.237 C 
ATOM     25  O   UNL     1      -5.023  -0.879   0.288  0.00  0.00    -0.274 OA
ATOM     26  N   UNL     1      -5.987   1.089  -0.056  0.00  0.00    -0.311 N 
ATOM     27  H   UNL     1      -5.978   1.944  -0.515  0.00  0.00    +0.149 HD
BRANCH  26  28
ATOM     28  C   UNL     1      -7.063   0.778   0.889  0.00  0.00    +0.076 C 
ATOM     29  C   UNL     1      -8.160  -0.010   0.170  0.00  0.00    +0.022 C 
ATOM     30  C   UNL     1      -9.284  -0.335   1.157  0.00  0.00    +0.002 C 
ATOM     31  C   UNL     1      -9.868   0.965   1.711  0.00  0.00    +0.003 C 
ATOM     32  C   UNL     1      -8.771   1.753   2.429  0.00  0.00    -0.009 C 
ATOM     33  C   UNL     1      -7.648   2.078   1.443  0.00  0.00    +0.009 C 
ATOM     34  C   UNL     1      -8.207   2.917   0.292  0.00  0.00    +0.009 C 
ATOM     35  C   UNL     1      -9.356   3.053   2.984  0.00  0.00    +0.008 C 
ENDBRANCH  26  28
ENDBRANCH   2  24
BRANCH   1  36
ATOM     36  C   UNL     1      -2.243  -0.845   0.265  0.00  0.00    +0.074 C 
ATOM     37  C   UNL     1      -2.286  -2.374   0.315  0.00  0.00    +0.028 C 
BRANCH  36  39
ATOM     38  C   UNL     1      -0.779   1.160   0.547  0.00  0.00    +0.005 C 
ATOM     39  C   UNL     1      -0.805  -0.368   0.473  0.00  0.00    +0.019 C 
ENDBRANCH  36  39
ENDBRANCH   1  36
TORSDOF 7
