REMARK  Name = ZINC09130906
REMARK  6 active torsions:
REMARK  status: ('A' for Active; 'I' for Inactive)
REMARK    1  A    between atoms: N_8  and  N_9
REMARK    2  A    between atoms: N_9  and  C_10
REMARK    3  A    between atoms: C_10  and  N_12
REMARK    4  A    between atoms: N_12  and  C_13
REMARK    5  A    between atoms: C_16  and  S_19
REMARK    6  A    between atoms: S_19  and  N_22
REMARK                            x       y       z     vdW  Elec       q    Type
REMARK                         _______ _______ _______ _____ _____    ______ ____
ROOT
ATOM      1  N   UNL     1      -1.155  -5.142  -0.017  0.00  0.00    -0.296 N 
ATOM      2  H   UNL     1      -1.243  -4.380   0.578  0.00  0.00    +0.154 HD
ENDROOT
BRANCH   1   3
ATOM      3  C   UNL     1      -2.160  -6.113  -0.064  0.00  0.00    +0.033 A 
ATOM      4  C   UNL     1      -1.828  -7.461  -0.043  0.00  0.00    +0.025 A 
ATOM      5  C   UNL     1      -2.824  -8.417  -0.089  0.00  0.00    +0.030 A 
ATOM      6  C   UNL     1      -4.150  -8.033  -0.156  0.00  0.00    +0.106 A 
ATOM      7  C   UNL     1      -4.485  -6.691  -0.177  0.00  0.00    +0.030 A 
ATOM      8  C   UNL     1      -3.494  -5.730  -0.125  0.00  0.00    +0.025 A 
BRANCH   6   9
ATOM      9  S   UNL     1      -5.418  -9.256  -0.216  0.00  0.00    +0.061 S 
ATOM     10  O   UNL     1      -6.545  -8.642  -0.825  0.00  0.00    -0.153 OA
ATOM     11  O   UNL     1      -4.819 -10.435  -0.734  0.00  0.00    -0.153 OA
BRANCH   9  12
ATOM     12  N   UNL     1      -5.848  -9.591   1.348  0.00  0.00    -0.172 NA
ATOM     13  C   UNL     1      -5.167 -10.649   2.111  0.00  0.00    +0.137 C 
ATOM     14  C   UNL     1      -4.729 -10.066   3.459  0.00  0.00    +0.177 C 
ATOM     15  O   UNL     1      -5.852  -9.450   4.093  0.00  0.00    -0.377 OA
ATOM     16  C   UNL     1      -6.400  -8.346   3.368  0.00  0.00    +0.177 C 
ATOM     17  C   UNL     1      -6.920  -8.836   2.017  0.00  0.00    +0.137 C 
ENDBRANCH   9  12
ENDBRANCH   6   9
ENDBRANCH   1   3
BRANCH   1  18
ATOM     18  C   UNL     1      -0.063  -5.265  -0.797  0.00  0.00    +0.154 C 
ATOM     19  S   UNL     1       0.145  -6.662  -1.765  0.00  0.00    -0.017 S 
BRANCH  18  20
ATOM     20  N   UNL     1       0.866  -4.288  -0.816  0.00  0.00    -0.218 N 
ATOM     21  H   UNL     1       1.652  -4.376  -1.377  0.00  0.00    +0.176 HD
BRANCH  20  29
ATOM     22  C   UNL     1       0.795   0.762   2.240  0.00  0.00    +0.001 A 
ATOM     23  C   UNL     1       1.923   1.519   1.961  0.00  0.00    +0.001 A 
ATOM     24  C   UNL     1       2.871   1.060   1.074  0.00  0.00    +0.012 A 
ATOM     25  C   UNL     1       2.701  -0.181   0.444  0.00  0.00    +0.027 A 
ATOM     26  C   UNL     1       1.555  -0.950   0.729  0.00  0.00    +0.009 A 
ATOM     27  C   UNL     1       0.607  -0.461   1.634  0.00  0.00    +0.010 A 
ATOM     28  C   UNL     1       1.591  -2.203  -0.042  0.00  0.00    +0.074 C 
ATOM     29  N   UNL     1       0.696  -3.145  -0.024  0.00  0.00    -0.185 NA
ATOM     30  C   UNL     1       2.861  -2.190  -0.858  0.00  0.00    +0.137 C 
ATOM     31  C   UNL     1       3.548  -0.886  -0.525  0.00  0.00    +0.170 C 
ATOM     32  O   UNL     1       4.603  -0.494  -0.977  0.00  0.00    -0.292 OA
ENDBRANCH  20  29
ENDBRANCH  18  20
ENDBRANCH   1  18
TORSDOF 6
