REMARK  Name = ZINC39584700
REMARK  5 active torsions:
REMARK  status: ('A' for Active; 'I' for Inactive)
REMARK    1  A    between atoms: C_3  and  C_25
REMARK    2  A    between atoms: C_6  and  C_7
REMARK    3  A    between atoms: N_8  and  N_9
REMARK    4  A    between atoms: C_10  and  C_12
REMARK    5  A    between atoms: C_15  and  C_18
REMARK                            x       y       z     vdW  Elec       q    Type
REMARK                         _______ _______ _______ _____ _____    ______ ____
ROOT
ATOM      1  N   UNL     1      -2.450  -2.773   0.011  0.00  0.00    -0.205 N 
ATOM      2  C   UNL     1      -2.431  -4.121   0.003  0.00  0.00    +0.263 C 
ATOM      3  O   UNL     1      -1.373  -4.713  -0.010  0.00  0.00    -0.271 OA
ATOM      4  H   UNL     1      -3.296  -2.299   0.021  0.00  0.00    +0.177 HD
ENDROOT
BRANCH   2   5
ATOM      5  C   UNL     1      -3.726  -4.892   0.011  0.00  0.00    +0.240 C 
ATOM      6  C   UNL     1      -4.270  -5.011   1.424  0.00  0.00    +0.041 C 
ATOM      7  C   UNL     1      -4.289  -6.338   1.652  0.00  0.00    +0.092 C 
ATOM      8  N   UNL     1      -3.829  -7.012   0.565  0.00  0.00    -0.153 NA
ATOM      9  N   UNL     1      -3.500  -6.292  -0.384  0.00  0.00    -0.170 NA
BRANCH   7  10
ATOM     10  C   UNL     1      -4.746  -6.974   2.912  0.00  0.00    +0.002 A 
ATOM     11  C   UNL     1      -5.204  -6.187   3.966  0.00  0.00    +0.011 A 
ATOM     12  C   UNL     1      -5.628  -6.783   5.136  0.00  0.00    +0.020 A 
ATOM     13  C   UNL     1      -5.598  -8.162   5.263  0.00  0.00    +0.041 A 
ATOM     14  C   UNL     1      -5.143  -8.948   4.219  0.00  0.00    +0.020 A 
ATOM     15  C   UNL     1      -4.723  -8.362   3.043  0.00  0.00    +0.011 A 
ATOM     16 CL   UNL     1      -6.131  -8.906   6.738  0.00  0.00    -0.084 Cl
ENDBRANCH   7  10
ENDBRANCH   2   5
BRANCH   1  18
ATOM     17  C   UNL     1      -1.263  -0.758   0.010  0.00  0.00    +0.138 C 
ATOM     18  N   UNL     1      -1.246  -2.056   0.003  0.00  0.00    -0.188 NA
BRANCH  17  24
ATOM     19  C   UNL     1      -0.017   1.395   0.010  0.00  0.00    +0.010 A 
ATOM     20  C   UNL     1       1.156   2.094   0.002  0.00  0.00    +0.016 A 
ATOM     21  C   UNL     1       2.377   1.411  -0.013  0.00  0.00    +0.063 A 
ATOM     22  C   UNL     1       2.396   0.011  -0.021  0.00  0.00    +0.016 A 
ATOM     23  C   UNL     1       1.223  -0.687  -0.013  0.00  0.00    +0.010 A 
ATOM     24  C   UNL     1       0.002  -0.004   0.002  0.00  0.00    -0.005 A 
BRANCH  21  25
ATOM     25  C   UNL     1       3.643   2.164  -0.021  0.00  0.00    +0.387 C 
ATOM     26  O   UNL     1       3.627   3.388  -0.015  0.00  0.00    -0.241 OA
ATOM     27  O   UNL     1       4.711   1.567  -0.035  0.00  0.00    -0.241 OA
ENDBRANCH  21  25
ENDBRANCH  17  24
ENDBRANCH   1  18
TORSDOF 5
