REMARK  Name = ZINC46586097
REMARK  9 active torsions:
REMARK  status: ('A' for Active; 'I' for Inactive)
REMARK    1  A    between atoms: C_1  and  C_2
REMARK    2  A    between atoms: C_4  and  C_33
REMARK    3  A    between atoms: C_8  and  N_32
REMARK    4  A    between atoms: C_9  and  C_11
REMARK    5  A    between atoms: C_11  and  O_13
REMARK    6  A    between atoms: O_13  and  C_14
REMARK    7  A    between atoms: C_14  and  C_15
REMARK    8  A    between atoms: N_17  and  C_18
REMARK    9  A    between atoms: N_17  and  C_24
REMARK                            x       y       z     vdW  Elec       q    Type
REMARK                         _______ _______ _______ _____ _____    ______ ____
ROOT
ATOM      1  O   UNL     1       3.832  -1.153   2.596  0.00  0.00    -0.451 OA
ENDROOT
BRANCH   1   2
ATOM      2  C   UNL     1       3.509  -0.208   1.687  0.00  0.00    +0.348 C 
ATOM      3  O   UNL     1       3.471   0.963   2.014  0.00  0.00    -0.244 OA
BRANCH   2  12
ATOM      4  C   UNL     1       2.072   1.726  -3.294  0.00  0.00    +0.044 C 
ATOM      5  C   UNL     1       2.244   0.231  -3.215  0.00  0.00    -0.037 A 
ATOM      6  C   UNL     1       2.052  -0.553  -4.329  0.00  0.00    +0.025 A 
ATOM      7  C   UNL     1       2.211  -1.929  -4.254  0.00  0.00    +0.014 A 
ATOM      8  N   UNL     1       2.547  -2.501  -3.115  0.00  0.00    -0.353 N 
ATOM      9  C   UNL     1       2.742  -1.795  -2.022  0.00  0.00    +0.088 A 
ATOM     10  C   UNL     1       2.611  -0.387  -1.995  0.00  0.00    +0.030 A 
ATOM     11  C   UNL     1       2.869   0.232  -0.704  0.00  0.00    +0.055 A 
ATOM     12  C   UNL     1       3.215  -0.581   0.354  0.00  0.00    +0.119 A 
ATOM     13  S   UNL     1       3.192  -2.215  -0.357  0.00  0.00    -0.062 S 
ATOM     14  C   UNL     1       1.997  -2.775  -5.483  0.00  0.00    +0.063 C 
ATOM     15  H   UNL     1       2.653  -3.465  -3.081  0.00  0.00    +0.166 HD
BRANCH  11  16
ATOM     16  N   UNL     1       2.769   1.606  -0.542  0.00  0.00    -0.356 N 
ATOM     17  H   UNL     1       2.993   2.199  -1.277  0.00  0.00    +0.142 HD
ATOM     18  H   UNL     1       2.475   1.974   0.306  0.00  0.00    +0.142 HD
ENDBRANCH  11  16
ENDBRANCH   2  12
ENDBRANCH   1   2
BRANCH   1  19
ATOM     19  C   UNL     1       4.117  -0.705   3.923  0.00  0.00    +0.328 C 
BRANCH  19  20
ATOM     20  C   UNL     1       4.454  -1.890   4.791  0.00  0.00    +0.258 C 
ATOM     21  O   UNL     1       4.431  -3.009   4.325  0.00  0.00    -0.271 OA
ATOM     22  N   UNL     1       4.781  -1.705   6.085  0.00  0.00    -0.260 N 
BRANCH  22  23
ATOM     23  C   UNL     1       5.057  -2.861   6.943  0.00  0.00    +0.127 C 
ATOM     24  C   UNL     1       3.757  -3.690   7.117  0.00  0.00    +0.198 C 
ATOM     25  S   UNL     1       4.502  -5.375   7.141  0.00  0.00    -0.008 S 
ATOM     26  O   UNL     1       4.847  -5.762   8.464  0.00  0.00    -0.170 OA
ATOM     27  O   UNL     1       3.805  -6.255   6.269  0.00  0.00    -0.170 OA
ATOM     28  C   UNL     1       6.042  -4.995   6.326  0.00  0.00    +0.132 C 
ATOM     29  C   UNL     1       6.132  -3.692   6.320  0.00  0.00    +0.016 C 
ENDBRANCH  22  23
BRANCH  22  30
ATOM     30  C   UNL     1       4.858  -0.410   6.610  0.00  0.00    +0.037 A 
ATOM     31  C   UNL     1       3.705   0.241   7.026  0.00  0.00    +0.023 A 
ATOM     32  C   UNL     1       3.784   1.520   7.543  0.00  0.00    +0.002 A 
ATOM     33  C   UNL     1       5.010   2.150   7.647  0.00  0.00    +0.000 A 
ATOM     34  C   UNL     1       6.160   1.504   7.233  0.00  0.00    +0.002 A 
ATOM     35  C   UNL     1       6.089   0.224   6.721  0.00  0.00    +0.023 A 
ENDBRANCH  22  30
ENDBRANCH  19  20
ENDBRANCH   1  19
TORSDOF 7
