REMARK  Name = ZINC63490343
REMARK  7 active torsions:
REMARK  status: ('A' for Active; 'I' for Inactive)
REMARK    1  A    between atoms: C_4  and  N_7
REMARK    2  A    between atoms: C_15  and  C_17
REMARK    3  A    between atoms: C_17  and  C_18
REMARK    4  A    between atoms: C_18  and  C_19
REMARK    5  A    between atoms: N_21  and  C_22
REMARK    6  A    between atoms: C_22  and  C_23
REMARK    7  A    between atoms: C_23  and  C_24
REMARK                            x       y       z     vdW  Elec       q    Type
REMARK                         _______ _______ _______ _____ _____    ______ ____
ROOT
ATOM      1  C   UNL     1       3.115  -2.799  -1.118  0.00  0.00    +0.052 C 
ENDROOT
BRANCH   1  10
ATOM      2  N   UNL     1       3.620  -0.649  -0.037  0.00  0.00    -0.266 N 
ATOM      3  C   UNL     1       4.886  -0.071  -0.139  0.00  0.00    +0.126 A 
ATOM      4  C   UNL     1       5.861  -1.068  -0.121  0.00  0.00    +0.067 A 
ATOM      5  C   UNL     1       7.200  -0.710  -0.213  0.00  0.00    +0.028 A 
ATOM      6  C   UNL     1       7.520   0.637  -0.319  0.00  0.00    +0.019 A 
ATOM      7  C   UNL     1       6.505   1.572  -0.331  0.00  0.00    +0.084 A 
ATOM      8  N   UNL     1       5.241   1.204  -0.243  0.00  0.00    -0.348 N 
ATOM      9  N   UNL     1       5.255  -2.325  -0.007  0.00  0.00    -0.323 N 
ATOM     10  C   UNL     1       3.805  -2.102   0.056  0.00  0.00    +0.165 C 
ATOM     11  H   UNL     1       5.708  -3.182   0.027  0.00  0.00    +0.148 HD
ATOM     12  H   UNL     1       4.551   1.885  -0.254  0.00  0.00    +0.167 HD
BRANCH   2  16
ATOM     13  C   UNL     1      -0.017   1.378   0.011  0.00  0.00    +0.000 A 
ATOM     14  C   UNL     1       0.760   1.383  -1.133  0.00  0.00    +0.002 A 
ATOM     15  C   UNL     1       1.967   0.711  -1.153  0.00  0.00    +0.023 A 
ATOM     16  C   UNL     1       2.400   0.031  -0.021  0.00  0.00    +0.037 A 
ATOM     17  C   UNL     1       1.617   0.029   1.126  0.00  0.00    +0.023 A 
ATOM     18  C   UNL     1       0.411   0.701   1.139  0.00  0.00    +0.002 A 
ENDBRANCH   2  16
ENDBRANCH   1  10
BRANCH   1  19
ATOM     19  C   UNL     1       3.210  -4.315  -0.939  0.00  0.00    +0.099 C 
BRANCH  19  20
ATOM     20  C   UNL     1       2.530  -5.002  -2.096  0.00  0.00    +0.213 C 
ATOM     21  O   UNL     1       2.020  -4.343  -2.977  0.00  0.00    -0.276 OA
ATOM     22  N   UNL     1       2.490  -6.348  -2.151  0.00  0.00    -0.315 N 
ATOM     23  H   UNL     1       2.898  -6.875  -1.447  0.00  0.00    +0.149 HD
BRANCH  22  24
ATOM     24  C   UNL     1       1.829  -7.015  -3.276  0.00  0.00    +0.108 C 
BRANCH  24  25
ATOM     25  C   UNL     1       1.924  -8.531  -3.097  0.00  0.00    +0.052 C 
BRANCH  25  26
ATOM     26  C   UNL     1       1.244  -9.217  -4.253  0.00  0.00    -0.040 C 
ATOM     27  C   UNL     1       1.829  -9.682  -5.381  0.00  0.00    -0.001 A 
ATOM     28  C   UNL     1       3.220  -9.686  -5.851  0.00  0.00    +0.010 A 
ATOM     29  C   UNL     1       3.505 -10.237  -7.053  0.00  0.00    +0.001 A 
ATOM     30  C   UNL     1       2.507 -10.801  -7.860  0.00  0.00    +0.002 A 
ATOM     31  C   UNL     1       1.208 -10.835  -7.497  0.00  0.00    +0.026 A 
ATOM     32  C   UNL     1       0.795 -10.285  -6.252  0.00  0.00    +0.043 A 
ATOM     33  N   UNL     1      -0.384 -10.196  -5.685  0.00  0.00    -0.380 N 
ATOM     34  C   UNL     1      -0.229  -9.532  -4.386  0.00  0.00    +0.144 C 
ATOM     35  H   UNL     1      -1.218 -10.519  -6.059  0.00  0.00    +0.160 HD
ENDBRANCH  25  26
ENDBRANCH  24  25
ENDBRANCH  22  24
ENDBRANCH  19  20
ENDBRANCH   1  19
TORSDOF 7
