REMARK  Name = ZINC65107489
REMARK  5 active torsions:
REMARK  status: ('A' for Active; 'I' for Inactive)
REMARK    1  A    between atoms: C_3  and  C_21
REMARK    2  A    between atoms: C_6  and  C_7
REMARK    3  A    between atoms: C_7  and  N_8
REMARK    4  A    between atoms: C_9  and  C_11
REMARK    5  A    between atoms: C_13  and  C_17
REMARK                            x       y       z     vdW  Elec       q    Type
REMARK                         _______ _______ _______ _____ _____    ______ ____
ROOT
ATOM      1  N   UNL     1      -1.728  -1.014  -1.368  0.00  0.00    -0.306 N 
ATOM      2  C   UNL     1      -2.870  -1.688  -1.607  0.00  0.00    +0.263 C 
ATOM      3  O   UNL     1      -3.542  -2.095  -0.678  0.00  0.00    -0.269 OA
ATOM      4  H   UNL     1      -1.192  -0.688  -2.109  0.00  0.00    +0.149 HD
ENDROOT
BRANCH   2   5
ATOM      5  C   UNL     1      -3.305  -1.930  -2.991  0.00  0.00    +0.134 A 
ATOM      6  C   UNL     1      -4.449  -2.596  -3.399  0.00  0.00    +0.071 A 
ATOM      7  C   UNL     1      -4.417  -2.565  -4.796  0.00  0.00    +0.081 A 
ATOM      8  N   UNL     1      -3.334  -1.927  -5.158  0.00  0.00    -0.177 NA
ATOM      9  N   UNL     1      -2.665  -1.538  -4.133  0.00  0.00    -0.271 N 
ATOM     10  H   UNL     1      -1.831  -1.043  -4.165  0.00  0.00    +0.189 HD
ATOM     11 BR   UNL     1      -5.772  -3.381  -2.299  0.00  0.00    -0.046 Br
BRANCH   7  12
ATOM     12  C   UNL     1      -5.447  -3.160  -5.720  0.00  0.00    +0.041 C 
ATOM     13  C   UNL     1      -5.121  -3.192  -7.215  0.00  0.00    +0.010 C 
ATOM     14  C   UNL     1      -6.167  -2.212  -6.680  0.00  0.00    +0.010 C 
ENDBRANCH   7  12
ENDBRANCH   2   5
BRANCH   1  15
ATOM     15  C   UNL     1      -1.294  -0.772   0.010  0.00  0.00    +0.140 C 
BRANCH  15  21
ATOM     16  C   UNL     1      -0.017   1.379   0.010  0.00  0.00    +0.006 A 
ATOM     17  C   UNL     1       1.167   2.088   0.002  0.00  0.00    +0.010 A 
ATOM     18  C   UNL     1       2.384   1.407  -0.013  0.00  0.00    -0.000 A 
ATOM     19  C   UNL     1       2.397   0.012  -0.021  0.00  0.00    +0.010 A 
ATOM     20  C   UNL     1       1.206  -0.685  -0.013  0.00  0.00    +0.006 A 
ATOM     21  C   UNL     1       0.002  -0.004   0.002  0.00  0.00    -0.030 A 
BRANCH  18  22
ATOM     22  C   UNL     1       3.658   2.161  -0.022  0.00  0.00    +0.066 A 
ATOM     23  C   UNL     1       4.915   1.627  -0.042  0.00  0.00    +0.049 A 
ATOM     24  C   UNL     1       5.828   2.682  -0.043  0.00  0.00    +0.135 A 
ATOM     25  N   UNL     1       5.163   3.809  -0.025  0.00  0.00    -0.182 NA
ATOM     26  N   UNL     1       3.793   3.518  -0.017  0.00  0.00    -0.277 N 
ATOM     27  H   UNL     1       3.070   4.165  -0.007  0.00  0.00    +0.189 HD
ENDBRANCH  18  22
ENDBRANCH  15  21
ENDBRANCH   1  15
TORSDOF 5
