REMARK  Name = ZINC32927111
REMARK  4 active torsions:
REMARK  status: ('A' for Active; 'I' for Inactive)
REMARK    1  A    between atoms: C_6  and  C_10
REMARK    2  A    between atoms: C_10  and  N_11
REMARK    3  A    between atoms: N_11  and  C_12
REMARK    4  A    between atoms: C_17  and  N_18
REMARK                            x       y       z     vdW  Elec       q    Type
REMARK                         _______ _______ _______ _____ _____    ______ ____
ROOT
ATOM      1  N   UNL     1       2.453   7.070  -1.361  0.00  0.00    -0.336 N 
ATOM      2  H   UNL     1       2.024   6.489  -2.191  0.00  0.00    +0.147 HD
ENDROOT
BRANCH   1   3
ATOM      3  C   UNL     1       3.079   8.293  -1.616  0.00  0.00    +0.058 A 
ATOM      4  C   UNL     1       3.515   9.085  -0.560  0.00  0.00    +0.026 A 
ATOM      5  C   UNL     1       4.133  10.293  -0.815  0.00  0.00    +0.016 A 
ATOM      6  C   UNL     1       4.319  10.715  -2.119  0.00  0.00    +0.016 A 
ATOM      7  C   UNL     1       3.885   9.930  -3.172  0.00  0.00    +0.049 A 
ATOM      8  C   UNL     1       3.272   8.717  -2.924  0.00  0.00    +0.148 A 
ATOM      9  I   UNL     1       5.258  12.549  -2.500  0.00  0.00    -0.044 I 
BRANCH   8  10
ATOM     10  N   UNL     1       2.814   7.874  -4.051  0.00  0.00    +0.058 N 
ATOM     11  O   UNL     1       3.077   8.194  -5.197  0.00  0.00    -0.126 OA
ATOM     12  O   UNL     1       2.175   6.861  -3.833  0.00  0.00    -0.126 OA
ENDBRANCH   8  10
ENDBRANCH   1   3
BRANCH   1  13
ATOM     13  C   UNL     1       2.367   6.562   0.010  0.00  0.00    +0.158 C 
BRANCH  13  19
ATOM     14  C   UNL     1      -1.135   1.696   0.032  0.00  0.00    +0.005 A 
ATOM     15  C   UNL     1       0.098   1.024  -0.008  0.00  0.00    +0.018 A 
ATOM     16  C   UNL     1       1.253   1.722  -0.030  0.00  0.00    +0.092 A 
ATOM     17  N   UNL     1       1.241   3.087  -0.010  0.00  0.00    -0.306 N 
ATOM     18  C   UNL     1       2.240   4.022  -0.025  0.00  0.00    +0.117 A 
ATOM     19  C   UNL     1       1.650   5.237   0.011  0.00  0.00    +0.077 A 
ATOM     20  N   UNL     1       0.326   5.067   0.047  0.00  0.00    -0.231 NA
ATOM     21  C   UNL     1       0.053   3.770   0.035  0.00  0.00    +0.138 A 
ATOM     22  C   UNL     1      -1.161   3.055   0.060  0.00  0.00    +0.047 A 
ENDBRANCH  13  19
ENDBRANCH   1  13
TORSDOF 4
