REMARK  Name = ZINC08156601
REMARK  2 active torsions:
REMARK  status: ('A' for Active; 'I' for Inactive)
REMARK    1  A    between atoms: C_4  and  C_7
REMARK    2  A    between atoms: C_20  and  C_22
REMARK                            x       y       z     vdW  Elec       q    Type
REMARK                         _______ _______ _______ _____ _____    ______ ____
ROOT
ATOM      1  C   UNL     1      -3.493   5.186  -2.978  0.00  0.00    +0.009 C 
ATOM      2  C   UNL     1      -3.276   3.906  -2.713  0.00  0.00    -0.049 C 
ATOM      3  C   UNL     1      -3.061   2.897  -3.824  0.00  0.00    +0.032 C 
ATOM      4  C   UNL     1      -1.786   2.100  -3.537  0.00  0.00    +0.005 C 
ATOM      5  C   UNL     1      -1.846   1.502  -2.128  0.00  0.00    +0.008 C 
ATOM      6  C   UNL     1      -1.917   2.626  -1.102  0.00  0.00    +0.038 C 
ATOM      7  C   UNL     1      -3.232   3.395  -1.294  0.00  0.00    +0.103 C 
ATOM      8  N   UNL     1      -3.274   4.490  -0.329  0.00  0.00    -0.320 N 
ATOM      9  C   UNL     1      -2.707   4.338   0.883  0.00  0.00    +0.131 C 
ATOM     10  S   UNL     1      -2.817   5.627   2.005  0.00  0.00    -0.019 S 
ATOM     11  N   UNL     1      -2.059   3.222   1.249  0.00  0.00    -0.319 N 
ATOM     12  C   UNL     1      -1.886   2.092   0.330  0.00  0.00    +0.107 C 
ATOM     13  H   UNL     1      -3.709   5.326  -0.560  0.00  0.00    +0.148 HD
ATOM     14  H   UNL     1      -1.696   3.161   2.147  0.00  0.00    +0.148 HD
ENDROOT
BRANCH   1  18
ATOM     15  C   UNL     1      -4.124   6.449  -6.984  0.00  0.00    +0.000 A 
ATOM     16  C   UNL     1      -4.605   5.221  -6.565  0.00  0.00    +0.001 A 
ATOM     17  C   UNL     1      -4.403   4.805  -5.265  0.00  0.00    +0.008 A 
ATOM     18  C   UNL     1      -3.713   5.626  -4.372  0.00  0.00    -0.025 A 
ATOM     19  C   UNL     1      -3.237   6.866  -4.800  0.00  0.00    +0.008 A 
ATOM     20  C   UNL     1      -3.440   7.267  -6.104  0.00  0.00    +0.001 A 
ENDBRANCH   1  18
BRANCH  12  21
ATOM     21  C   UNL     1      -0.563   1.422   0.593  0.00  0.00    -0.027 A 
ATOM     22  C   UNL     1       0.554   2.185   0.876  0.00  0.00    +0.005 A 
ATOM     23  C   UNL     1       1.770   1.570   1.111  0.00  0.00    +0.000 A 
ATOM     24  C   UNL     1       1.868   0.192   1.064  0.00  0.00    +0.000 A 
ATOM     25  C   UNL     1       0.751  -0.571   0.781  0.00  0.00    +0.000 A 
ATOM     26  C   UNL     1      -0.464   0.044   0.546  0.00  0.00    +0.005 A 
ENDBRANCH  12  21
TORSDOF 2
