REMARK  Name = ZINC09325636
REMARK  11 active torsions:
REMARK  status: ('A' for Active; 'I' for Inactive)
REMARK    1  A    between atoms: C_1  and  C_2
REMARK    2  A    between atoms: C_2  and  O_3
REMARK    3  A    between atoms: O_3  and  C_4
REMARK    4  A    between atoms: C_7  and  C_9
REMARK    5  A    between atoms: C_13  and  N_14
REMARK    6  A    between atoms: C_15  and  C_17
REMARK    7  A    between atoms: C_17  and  C_18
REMARK    8  A    between atoms: C_18  and  S_19
REMARK    9  A    between atoms: S_19  and  C_20
REMARK   10  A    between atoms: C_31  and  O_33
REMARK   11  A    between atoms: O_33  and  C_34
REMARK                            x       y       z     vdW  Elec       q    Type
REMARK                         _______ _______ _______ _____ _____    ______ ____
ROOT
ATOM      1  C   UNL     1      -1.295   2.059   0.019  0.00  0.00    +0.069 A 
ATOM      2  C   UNL     1      -1.958   2.433  -1.219  0.00  0.00    -0.020 A 
ATOM      3  C   UNL     1      -3.131   3.085  -1.065  0.00  0.00    +0.013 A 
ATOM      4  S   UNL     1      -3.358   3.209   0.686  0.00  0.00    -0.076 S 
ATOM      5  C   UNL     1      -1.920   2.398   1.212  0.00  0.00    +0.084 A 
ATOM      6  C   UNL     1      -4.032   3.585  -2.155  0.00  0.00    +0.153 C 
ATOM      7  N   UNL     1      -3.294   3.448  -3.426  0.00  0.00    -0.262 N 
ATOM      8  C   UNL     1      -2.522   2.213  -3.633  0.00  0.00    +0.116 C 
ATOM      9  C   UNL     1      -1.395   2.134  -2.602  0.00  0.00    +0.056 C 
ATOM     10  C   UNL     1      -3.326   4.418  -4.361  0.00  0.00    +0.403 C 
ATOM     11  O   UNL     1      -2.710   4.281  -5.399  0.00  0.00    -0.226 OA
ENDROOT
BRANCH   1  15
ATOM     12  C   UNL     1       1.178  -0.662  -0.013  0.00  0.00    +0.407 C 
ATOM     13  O   UNL     1       2.222  -0.040  -0.019  0.00  0.00    -0.226 OA
ATOM     14  N   UNL     1       0.002  -0.004   0.002  0.00  0.00    -0.217 N 
ATOM     15  C   UNL     1      -0.016   1.344   0.009  0.00  0.00    +0.255 C 
ATOM     16  O   UNL     1       1.029   1.966   0.003  0.00  0.00    -0.270 OA
ATOM     17  H   UNL     1      -0.831  -0.500   0.007  0.00  0.00    +0.161 HD
BRANCH  12  18
ATOM     18  O   UNL     1       1.196  -2.008  -0.020  0.00  0.00    -0.450 OA
BRANCH  18  20
ATOM     19  C   UNL     1       2.319  -4.169  -0.043  0.00  0.00    +0.048 C 
ATOM     20  C   UNL     1       2.499  -2.649  -0.036  0.00  0.00    +0.230 C 
ENDBRANCH  18  20
ENDBRANCH  12  18
ENDBRANCH   1  15
BRANCH   5  21
ATOM     21  N   UNL     1      -1.496   2.151   2.508  0.00  0.00    -0.279 N 
ATOM     22  C   UNL     1      -2.244   2.561   3.551  0.00  0.00    +0.218 C 
ATOM     23  O   UNL     1      -3.288   3.146   3.357  0.00  0.00    -0.275 OA
ATOM     24  H   UNL     1      -0.661   1.683   2.664  0.00  0.00    +0.155 HD
BRANCH  22  25
ATOM     25  C   UNL     1      -1.783   2.291   4.961  0.00  0.00    +0.107 C 
BRANCH  25  26
ATOM     26  C   UNL     1      -2.806   2.855   5.949  0.00  0.00    +0.083 C 
BRANCH  26  27
ATOM     27  S   UNL     1      -2.251   2.531   7.645  0.00  0.00    -0.125 S 
BRANCH  27  28
ATOM     28  C   UNL     1      -3.518   3.231   8.649  0.00  0.00    +0.008 A 
ATOM     29  C   UNL     1      -4.611   3.853   8.058  0.00  0.00    +0.017 A 
ATOM     30  C   UNL     1      -5.605   4.397   8.847  0.00  0.00    +0.039 A 
ATOM     31  C   UNL     1      -5.509   4.332  10.227  0.00  0.00    +0.123 A 
ATOM     32  C   UNL     1      -4.418   3.717  10.819  0.00  0.00    +0.039 A 
ATOM     33  C   UNL     1      -3.424   3.167  10.034  0.00  0.00    +0.017 A 
ATOM     34  F   UNL     1      -6.480   4.868  10.997  0.00  0.00    -0.205 F 
ENDBRANCH  27  28
ENDBRANCH  26  27
ENDBRANCH  25  26
ENDBRANCH  22  25
ENDBRANCH   5  21
BRANCH  10  35
ATOM     35  O   UNL     1      -4.040   5.538  -4.145  0.00  0.00    -0.454 OA
ATOM     36  C   UNL     1      -4.029   6.540  -5.195  0.00  0.00    +0.282 C 
ENDBRANCH  10  35
TORSDOF 9
