REMARK  Name = ZINC44783102
REMARK  4 active torsions:
REMARK  status: ('A' for Active; 'I' for Inactive)
REMARK    1  A    between atoms: C_6  and  N_7
REMARK    2  A    between atoms: C_8  and  C_10
REMARK    3  A    between atoms: C_10  and  C_17
REMARK    4  A    between atoms: N_18  and  O_19
REMARK                            x       y       z     vdW  Elec       q    Type
REMARK                         _______ _______ _______ _____ _____    ______ ____
ROOT
ATOM      1  C   UNL     1      -2.473  -2.626  -0.240  0.00  0.00    +0.105 C 
ATOM      2  C   UNL     1      -3.323  -2.305  -1.486  0.00  0.00    +0.024 C 
ATOM      3  C   UNL     1      -2.397  -1.936  -2.614  0.00  0.00    +0.001 C 
ATOM      4  C   UNL     1      -2.053  -3.140  -3.512  0.00  0.00    +0.000 C 
ATOM      5  C   UNL     1      -1.782  -4.426  -2.708  0.00  0.00    +0.000 C 
ATOM      6  C   UNL     1      -0.958  -4.172  -1.475  0.00  0.00    +0.001 C 
ATOM      7  C   UNL     1      -1.913  -3.969  -0.281  0.00  0.00    +0.024 C 
ENDROOT
BRANCH   1   8
ATOM      8  C   UNL     1      -3.339  -2.494   0.986  0.00  0.00    +0.147 C 
ATOM      9  N   UNL     1      -4.484  -3.090   1.035  0.00  0.00    -0.076 NA
ATOM     10  N   UNL     1      -2.909  -1.740   2.055  0.00  0.00    -0.343 N 
ATOM     11  H   UNL     1      -2.045  -1.300   2.023  0.00  0.00    +0.144 HD
ATOM     12  H   UNL     1      -3.471  -1.647   2.841  0.00  0.00    +0.144 HD
BRANCH   9  13
ATOM     13  O   UNL     1      -4.861  -3.985   0.004  0.00  0.00    -0.408 OA
ATOM     14  H   UNL     1      -5.734  -4.382   0.128  0.00  0.00    +0.328 HD
ENDBRANCH   9  13
ENDBRANCH   1   8
BRANCH   1  16
ATOM     15  N   UNL     1      -1.564  -0.334  -0.450  0.00  0.00    -0.285 N 
ATOM     16  C   UNL     1      -1.345  -1.630  -0.149  0.00  0.00    +0.231 C 
ATOM     17  O   UNL     1      -0.240  -1.994   0.195  0.00  0.00    -0.274 OA
ATOM     18  H   UNL     1      -2.464  -0.025  -0.636  0.00  0.00    +0.155 HD
BRANCH  15  24
ATOM     19  C   UNL     1      -0.549   1.675  -1.325  0.00  0.00    +0.024 A 
ATOM     20  C   UNL     1       0.510   2.560  -1.367  0.00  0.00    +0.016 A 
ATOM     21  C   UNL     1       1.627   2.342  -0.581  0.00  0.00    +0.013 A 
ATOM     22  C   UNL     1       1.687   1.236   0.249  0.00  0.00    +0.016 A 
ATOM     23  C   UNL     1       0.631   0.347   0.294  0.00  0.00    +0.024 A 
ATOM     24  C   UNL     1      -0.492   0.564  -0.494  0.00  0.00    +0.033 A 
ATOM     25  I   UNL     1       3.232   3.687  -0.647  0.00  0.00    -0.044 I 
ENDBRANCH  15  24
ENDBRANCH   1  16
TORSDOF 4
