REMARK  Name = ZINC08324287
REMARK  7 active torsions:
REMARK  status: ('A' for Active; 'I' for Inactive)
REMARK    1  A    between atoms: C_1  and  C_2
REMARK    2  A    between atoms: C_2  and  C_4
REMARK    3  A    between atoms: C_2  and  N_14
REMARK    4  A    between atoms: C_7  and  S_10
REMARK    5  A    between atoms: S_10  and  N_13
REMARK    6  A    between atoms: N_14  and  S_15
REMARK    7  A    between atoms: S_15  and  C_18
REMARK                            x       y       z     vdW  Elec       q    Type
REMARK                         _______ _______ _______ _____ _____    ______ ____
ROOT
ATOM      1  C   UNL     1       3.327  -3.794  -2.498  0.00  0.00    +0.031 C 
ATOM      2  C   UNL     1       2.361  -2.608  -2.474  0.00  0.00    +0.103 C 
ENDROOT
BRANCH   2   3
ATOM      3  C   UNL     1       1.867  -2.333  -3.870  0.00  0.00    -0.029 A 
ATOM      4  C   UNL     1       0.857  -3.107  -4.411  0.00  0.00    +0.007 A 
ATOM      5  C   UNL     1       0.400  -2.851  -5.691  0.00  0.00    +0.029 A 
ATOM      6  C   UNL     1       0.961  -1.829  -6.434  0.00  0.00    +0.105 A 
ATOM      7  C   UNL     1       1.974  -1.059  -5.895  0.00  0.00    +0.029 A 
ATOM      8  C   UNL     1       2.427  -1.311  -4.613  0.00  0.00    +0.007 A 
BRANCH   6   9
ATOM      9  S   UNL     1       0.384  -1.509  -8.067  0.00  0.00    +0.056 S 
ATOM     10  O   UNL     1      -0.942  -2.016  -8.136  0.00  0.00    -0.153 OA
ATOM     11  O   UNL     1       0.696  -0.151  -8.349  0.00  0.00    -0.153 OA
BRANCH   9  12
ATOM     12  N   UNL     1       1.296  -2.428  -9.098  0.00  0.00    -0.204 NA
ATOM     13  H   UNL     1       1.995  -3.002  -8.747  0.00  0.00    +0.144 HD
ATOM     14  H   UNL     1       1.133  -2.393 -10.054  0.00  0.00    +0.144 HD
ENDBRANCH   9  12
ENDBRANCH   6   9
ENDBRANCH   2   3
BRANCH   2  15
ATOM     15  N   UNL     1       1.223  -2.923  -1.606  0.00  0.00    -0.183 NA
ATOM     16  H   UNL     1       0.465  -3.413  -1.960  0.00  0.00    +0.149 HD
BRANCH  15  17
ATOM     17  S   UNL     1       1.231  -2.441  -0.022  0.00  0.00    +0.059 S 
ATOM     18  O   UNL     1       2.487  -2.833   0.515  0.00  0.00    -0.153 OA
ATOM     19  O   UNL     1      -0.003  -2.866   0.538  0.00  0.00    -0.153 OA
BRANCH  17  20
ATOM     20  C   UNL     1       1.208  -0.679  -0.013  0.00  0.00    +0.105 A 
ATOM     21  C   UNL     1       0.002  -0.004   0.002  0.00  0.00    +0.030 A 
ATOM     22  C   UNL     1      -0.017   1.378   0.010  0.00  0.00    +0.022 A 
ATOM     23  C   UNL     1       1.172   2.086   0.002  0.00  0.00    +0.041 A 
ATOM     24  C   UNL     1       2.379   1.409  -0.013  0.00  0.00    +0.022 A 
ATOM     25  C   UNL     1       2.397   0.027  -0.021  0.00  0.00    +0.030 A 
ATOM     26 CL   UNL     1       1.149   3.821   0.011  0.00  0.00    -0.084 Cl
ENDBRANCH  17  20
ENDBRANCH  15  17
ENDBRANCH   2  15
TORSDOF 6
