REMARK  Name = ZINC26984971
REMARK  7 active torsions:
REMARK  status: ('A' for Active; 'I' for Inactive)
REMARK    1  A    between atoms: C_1  and  C_2
REMARK    2  A    between atoms: C_2  and  C_3
REMARK    3  A    between atoms: C_3  and  N_4
REMARK    4  A    between atoms: N_4  and  C_5
REMARK    5  A    between atoms: C_6  and  C_8
REMARK    6  A    between atoms: C_10  and  N_23
REMARK    7  A    between atoms: C_13  and  C_17
REMARK                            x       y       z     vdW  Elec       q    Type
REMARK                         _______ _______ _______ _____ _____    ______ ____
ROOT
ATOM      1  C   UNL     1      -0.109   0.024  -2.466  0.00  0.00    +0.057 A 
ATOM      2  C   UNL     1       0.080   1.427  -2.475  0.00  0.00    +0.041 A 
ATOM      3  C   UNL     1       0.064   2.097  -3.662  0.00  0.00    +0.070 A 
ATOM      4  C   UNL     1      -0.152   1.381  -4.864  0.00  0.00    +0.177 A 
ATOM      5  N   UNL     1      -0.223   1.762  -6.131  0.00  0.00    -0.202 NA
ATOM      6  C   UNL     1      -0.446   0.701  -6.909  0.00  0.00    +0.218 A 
ATOM      7  N   UNL     1      -0.523  -0.383  -6.156  0.00  0.00    -0.142 NA
ATOM      8  N   UNL     1      -0.337   0.027  -4.827  0.00  0.00    -0.217 N 
ATOM      9  C   UNL     1      -0.317  -0.646  -3.650  0.00  0.00    +0.128 A 
ENDROOT
BRANCH   6  10
ATOM     10  C   UNL     1      -0.584   0.732  -8.380  0.00  0.00    +0.175 A 
ATOM     11  C   UNL     1      -0.811  -0.342  -9.182  0.00  0.00    +0.054 A 
ATOM     12  C   UNL     1      -0.872   0.144 -10.503  0.00  0.00    +0.057 A 
ATOM     13  C   UNL     1      -0.680   1.478 -10.442  0.00  0.00    +0.171 A 
ATOM     14  O   UNL     1      -0.512   1.829  -9.158  0.00  0.00    -0.445 OA
ATOM     15 BR   UNL     1      -0.659   2.657 -11.920  0.00  0.00    -0.008 Br
ENDBRANCH   6  10
BRANCH   1  18
ATOM     16  N   UNL     1      -0.579  -0.146  -0.071  0.00  0.00    -0.301 N 
ATOM     17  C   UNL     1      -1.248   1.155  -0.145  0.00  0.00    +0.132 C 
ATOM     18  C   UNL     1      -0.089  -0.717  -1.189  0.00  0.00    +0.248 C 
ATOM     19  O   UNL     1       0.370  -1.842  -1.147  0.00  0.00    -0.270 OA
BRANCH  16  20
ATOM     20  C   UNL     1      -0.444  -0.828   1.219  0.00  0.00    +0.107 C 
BRANCH  20  22
ATOM     21  C   UNL     1      -1.519  -2.438   2.798  0.00  0.00    +0.005 C 
ATOM     22  C   UNL     1      -1.660  -1.726   1.451  0.00  0.00    +0.016 C 
ENDBRANCH  20  22
ENDBRANCH  16  20
ENDBRANCH   1  18
BRANCH   3  23
ATOM     23  N   UNL     1       0.253   3.481  -3.692  0.00  0.00    -0.355 N 
ATOM     24  H   UNL     1       0.239   4.018  -4.653  0.00  0.00    +0.142 HD
ATOM     25  H   UNL     1       0.416   4.035  -2.756  0.00  0.00    +0.142 HD
ENDBRANCH   3  23
TORSDOF 5
