REMARK  Name = ZINC63203334
REMARK  7 active torsions:
REMARK  status: ('A' for Active; 'I' for Inactive)
REMARK    1  A    between atoms: C_4  and  O_7
REMARK    2  A    between atoms: O_7  and  C_8
REMARK    3  A    between atoms: N_10  and  C_11
REMARK    4  A    between atoms: C_11  and  C_13
REMARK    5  A    between atoms: C_11  and  C_23
REMARK    6  A    between atoms: C_13  and  C_14
REMARK    7  A    between atoms: N_25  and  C_26
REMARK                            x       y       z     vdW  Elec       q    Type
REMARK                         _______ _______ _______ _____ _____    ______ ____
ROOT
ATOM      1  C   UNL     1       4.689  -4.126   0.255  0.00  0.00    +0.166 C 
ENDROOT
BRANCH   1   4
ATOM      2  C   UNL     1       3.562  -1.975   0.060  0.00  0.00    +0.406 C 
ATOM      3  O   UNL     1       2.499  -2.565   0.066  0.00  0.00    -0.226 OA
ATOM      4  N   UNL     1       4.716  -2.665   0.150  0.00  0.00    -0.269 N 
ATOM      5  H   UNL     1       5.564  -2.195   0.145  0.00  0.00    +0.153 HD
BRANCH   2   6
ATOM      6  O   UNL     1       3.586  -0.632  -0.037  0.00  0.00    -0.412 OA
BRANCH   6  10
ATOM      7  C   UNL     1      -0.012   1.384   0.070  0.00  0.00    +0.000 A 
ATOM      8  C   UNL     1       0.471   0.774   1.212  0.00  0.00    +0.004 A 
ATOM      9  C   UNL     1       1.676   0.098   1.179  0.00  0.00    +0.046 A 
ATOM     10  C   UNL     1       2.400   0.032  -0.002  0.00  0.00    +0.133 A 
ATOM     11  C   UNL     1       1.913   0.644  -1.147  0.00  0.00    +0.046 A 
ATOM     12  C   UNL     1       0.708   1.319  -1.109  0.00  0.00    +0.004 A 
ENDBRANCH   6  10
ENDBRANCH   2   6
ENDBRANCH   1   4
BRANCH   1  13
ATOM     13  C   UNL     1       4.508  -4.523   1.697  0.00  0.00    +0.234 C 
ATOM     14  O   UNL     1       4.410  -3.669   2.553  0.00  0.00    -0.274 OA
ATOM     15  N   UNL     1       4.454  -5.826   2.036  0.00  0.00    -0.311 N 
ATOM     16  H   UNL     1       4.532  -6.509   1.352  0.00  0.00    +0.149 HD
BRANCH  15  17
ATOM     17  C   UNL     1       4.278  -6.212   3.438  0.00  0.00    +0.073 C 
ATOM     18  C   UNL     1       5.639  -6.238   4.136  0.00  0.00    +0.022 C 
ATOM     19  C   UNL     1       5.455  -6.640   5.600  0.00  0.00    +0.002 C 
ATOM     20  C   UNL     1       4.820  -8.030   5.671  0.00  0.00    +0.000 C 
ATOM     21  C   UNL     1       3.458  -8.004   4.974  0.00  0.00    +0.002 C 
ATOM     22  C   UNL     1       3.642  -7.602   3.509  0.00  0.00    +0.022 C 
ENDBRANCH  15  17
ENDBRANCH   1  13
BRANCH   1  23
ATOM     23  C   UNL     1       6.008  -4.699  -0.270  0.00  0.00    +0.065 C 
BRANCH  23  24
ATOM     24  C   UNL     1       6.131  -4.408  -1.743  0.00  0.00    -0.039 C 
ATOM     25  C   UNL     1       6.780  -3.367  -2.314  0.00  0.00    -0.001 A 
ATOM     26  C   UNL     1       7.534  -2.238  -1.757  0.00  0.00    +0.010 A 
ATOM     27  C   UNL     1       8.081  -1.334  -2.601  0.00  0.00    +0.001 A 
ATOM     28  C   UNL     1       7.946  -1.448  -3.991  0.00  0.00    +0.002 A 
ATOM     29  C   UNL     1       7.268  -2.457  -4.578  0.00  0.00    +0.026 A 
ATOM     30  C   UNL     1       6.652  -3.465  -3.786  0.00  0.00    +0.043 A 
ATOM     31  N   UNL     1       5.952  -4.524  -4.112  0.00  0.00    -0.380 N 
ATOM     32  C   UNL     1       5.561  -5.223  -2.882  0.00  0.00    +0.144 C 
ATOM     33  H   UNL     1       5.732  -4.802  -5.015  0.00  0.00    +0.160 HD
ENDBRANCH  23  24
ENDBRANCH   1  23
TORSDOF 7
