REMARK  Name = ZINC02967079
REMARK  10 active torsions:
REMARK  status: ('A' for Active; 'I' for Inactive)
REMARK    1  A    between atoms: C_4  and  C_7
REMARK    2  A    between atoms: C_7  and  N_8
REMARK    3  A    between atoms: C_9  and  C_11
REMARK    4  A    between atoms: C_11  and  C_12
REMARK    5  A    between atoms: C_12  and  C_13
REMARK    6  A    between atoms: C_27  and  S_28
REMARK    7  A    between atoms: S_28  and  C_29
REMARK    8  A    between atoms: C_29  and  C_30
REMARK    9  A    between atoms: N_32  and  C_33
REMARK   10  A    between atoms: C_33  and  C_34
REMARK                            x       y       z     vdW  Elec       q    Type
REMARK                         _______ _______ _______ _____ _____    ______ ____
ROOT
ATOM      1  C   UNL     1       1.417   2.055  -0.000  0.00  0.00    +0.194 C 
ATOM      2  C   UNL     1       1.424   3.568  -0.068  0.00  0.00    +0.251 C 
ATOM      3  O   UNL     1       0.973   4.265  -0.951  0.00  0.00    -0.272 OA
ATOM      4  N   UNL     1       2.041   3.974   1.068  0.00  0.00    -0.200 N 
ATOM      5  C   UNL     1       2.418   2.881   1.829  0.00  0.00    +0.139 C 
ATOM      6  N   UNL     1       2.088   1.750   1.270  0.00  0.00    -0.255 NA
ATOM      7  C   UNL     1       3.110   3.152   3.108  0.00  0.00    +0.041 A 
ATOM      8  C   UNL     1       3.527   2.119   3.941  0.00  0.00    +0.013 A 
ATOM      9  C   UNL     1       4.168   2.417   5.126  0.00  0.00    +0.001 A 
ATOM     10  C   UNL     1       4.397   3.736   5.489  0.00  0.00    +0.002 A 
ATOM     11  C   UNL     1       3.991   4.772   4.677  0.00  0.00    +0.028 A 
ATOM     12  C   UNL     1       3.340   4.494   3.473  0.00  0.00    +0.077 A 
ATOM     13  N   UNL     1       2.927   5.489   2.648  0.00  0.00    -0.225 NA
ATOM     14  C   UNL     1       2.317   5.249   1.519  0.00  0.00    +0.169 C 
ENDROOT
BRANCH   1  15
ATOM     15  C   UNL     1      -0.019   1.526   0.010  0.00  0.00    +0.045 C 
BRANCH  15  16
ATOM     16  C   UNL     1       0.002  -0.004   0.002  0.00  0.00    +0.098 C 
BRANCH  16  18
ATOM     17  N   UNL     1      -1.640  -1.854   0.008  0.00  0.00    -0.311 N 
ATOM     18  C   UNL     1      -1.412  -0.526   0.013  0.00  0.00    +0.213 C 
ATOM     19  O   UNL     1      -2.344   0.250   0.026  0.00  0.00    -0.276 OA
ATOM     20  H   UNL     1      -0.794  -2.557  -0.004  0.00  0.00    +0.149 HD
BRANCH  17  21
ATOM     21  C   UNL     1      -3.014  -2.361   0.018  0.00  0.00    +0.139 C 
BRANCH  21  25
ATOM     22  C   UNL     1      -2.957  -6.632  -0.005  0.00  0.00    +0.000 A 
ATOM     23  C   UNL     1      -2.954  -5.948   1.196  0.00  0.00    +0.000 A 
ATOM     24  C   UNL     1      -2.973  -4.565   1.203  0.00  0.00    +0.005 A 
ATOM     25  C   UNL     1      -2.994  -3.868   0.010  0.00  0.00    -0.030 A 
ATOM     26  C   UNL     1      -3.002  -4.553  -1.191  0.00  0.00    +0.005 A 
ATOM     27  C   UNL     1      -2.979  -5.935  -1.199  0.00  0.00    +0.000 A 
ENDBRANCH  21  25
ENDBRANCH  17  21
ENDBRANCH  16  18
ENDBRANCH  15  16
ENDBRANCH   1  15
BRANCH  14  28
ATOM     28  S   UNL     1       1.823   6.616   0.525  0.00  0.00    -0.080 S 
BRANCH  28  29
ATOM     29  C   UNL     1       2.411   7.983   1.555  0.00  0.00    +0.172 C 
BRANCH  29  30
ATOM     30  C   UNL     1       2.088   9.293   0.884  0.00  0.00    +0.224 C 
ATOM     31  O   UNL     1       1.516   9.302  -0.186  0.00  0.00    -0.275 OA
ATOM     32  N   UNL     1       2.434  10.455   1.472  0.00  0.00    -0.308 N 
ATOM     33  H   UNL     1       2.953  10.447   2.442  0.00  0.00    +0.149 HD
BRANCH  32  34
ATOM     34  C   UNL     1       2.120  11.729   0.820  0.00  0.00    +0.178 C 
BRANCH  34  35
ATOM     35  C   UNL     1       2.610  12.867   1.677  0.00  0.00    +0.122 A 
ATOM     36  C   UNL     1       3.830  13.431   1.614  0.00  0.00    +0.046 A 
ATOM     37  C   UNL     1       3.858  14.455   2.589  0.00  0.00    +0.041 A 
ATOM     38  C   UNL     1       2.657  14.450   3.195  0.00  0.00    +0.195 A 
ATOM     39  O   UNL     1       1.905  13.486   2.638  0.00  0.00    -0.466 OA
ENDBRANCH  34  35
ENDBRANCH  32  34
ENDBRANCH  29  30
ENDBRANCH  28  29
ENDBRANCH  14  28
TORSDOF 10
