REMARK  Name = ZINC13499149
REMARK  15 active torsions:
REMARK  status: ('A' for Active; 'I' for Inactive)
REMARK    1  A    between atoms: C_1  and  C_2
REMARK    2  A    between atoms: C_7  and  C_15
REMARK    3  A    between atoms: C_13  and  C_14
REMARK    4  A    between atoms: C_15  and  N_66
REMARK    5  A    between atoms: C_16  and  C_17
REMARK    6  A    between atoms: C_16  and  N_66
REMARK    7  A    between atoms: C_17  and  C_18
REMARK    8  A    between atoms: C_18  and  O_19
REMARK    9  A    between atoms: C_20  and  C_22
REMARK   10  A    between atoms: C_20  and  C_33
REMARK   11  A    between atoms: C_20  and  N_66
REMARK   12  A    between atoms: N_26  and  C_27
REMARK   13  A    between atoms: C_27  and  C_28
REMARK   14  A    between atoms: C_33  and  C_34
REMARK   15  A    between atoms: C_33  and  C_35
REMARK                            x       y       z     vdW  Elec       q    Type
REMARK                         _______ _______ _______ _____ _____    ______ ____
ROOT
ATOM      1  N   UNL     1      -1.904   2.916  -0.933  0.00  0.00    +0.389 N 
ATOM      2  H   UNL     1      -1.661   2.014  -1.358  0.00  0.00    -0.080 HD
ENDROOT
BRANCH   1   3
ATOM      3  C   UNL     1      -1.653   2.846   0.522  0.00  0.00    -0.037 C 
BRANCH   3  10
ATOM      4  C   UNL     1       5.896   0.629   1.834  0.00  0.00    +0.044 C 
ATOM      5  C   UNL     1       4.547   1.266   1.620  0.00  0.00    -0.046 A 
ATOM      6  C   UNL     1       4.417   2.646   1.707  0.00  0.00    +0.004 A 
ATOM      7  C   UNL     1       3.203   3.243   1.517  0.00  0.00    +0.010 A 
ATOM      8  C   UNL     1       2.081   2.457   1.231  0.00  0.00    -0.001 A 
ATOM      9  C   UNL     1       0.765   3.064   1.022  0.00  0.00    +0.017 A 
ATOM     10  C   UNL     1      -0.286   2.253   0.749  0.00  0.00    +0.001 A 
ATOM     11  C   UNL     1      -0.104   0.855   0.672  0.00  0.00    +0.251 A 
ATOM     12  O   UNL     1      -1.063   0.144   0.426  0.00  0.00    -0.268 OA
ATOM     13  N   UNL     1       1.100   0.289   0.863  0.00  0.00    -0.322 N 
ATOM     14  H   UNL     1       1.190  -0.675   0.803  0.00  0.00    +0.169 HD
ATOM     15  C   UNL     1       2.209   1.058   1.143  0.00  0.00    +0.052 A 
ATOM     16  C   UNL     1       3.455   0.473   1.341  0.00  0.00    -0.024 A 
ATOM     17  C   UNL     1       3.611  -1.024   1.251  0.00  0.00    +0.046 C 
ENDBRANCH   3  10
ENDBRANCH   1   3
BRANCH   1  18
ATOM     18  C   UNL     1      -1.069   3.973  -1.540  0.00  0.00    -0.075 C 
BRANCH  18  19
ATOM     19  C   UNL     1      -1.071   3.791  -3.059  0.00  0.00    +0.009 C 
BRANCH  19  20
ATOM     20  C   UNL     1      -0.094   4.782  -3.693  0.00  0.00    +0.154 C 
BRANCH  20  21
ATOM     21  O   UNL     1      -0.096   4.612  -5.112  0.00  0.00    -0.395 OA
ATOM     22  H   UNL     1       0.502   5.210  -5.581  0.00  0.00    +0.209 HD
ENDBRANCH  20  21
ENDBRANCH  19  20
ENDBRANCH  18  19
ENDBRANCH   1  18
BRANCH   1  23
ATOM     23  C   UNL     1      -3.334   3.195  -1.186  0.00  0.00    +0.006 C 
BRANCH  23  24
ATOM     24  C   UNL     1      -3.900   4.066  -0.094  0.00  0.00    +0.139 A 
ATOM     25  N   UNL     1      -3.715   3.924   1.196  0.00  0.00    -0.115 NA
ATOM     26  N   UNL     1      -4.360   4.864   1.796  0.00  0.00    -0.023 NA
ATOM     27  N   UNL     1      -4.958   5.597   0.924  0.00  0.00    -0.044 NA
ATOM     28  N   UNL     1      -4.699   5.137  -0.254  0.00  0.00    -0.223 N 
BRANCH  28  29
ATOM     29  C   UNL     1      -5.184   5.679  -1.526  0.00  0.00    +0.221 C 
BRANCH  29  30
ATOM     30  C   UNL     1      -6.493   5.024  -1.884  0.00  0.00    +0.126 A 
ATOM     31  C   UNL     1      -7.715   5.460  -1.528  0.00  0.00    +0.046 A 
ATOM     32  C   UNL     1      -8.650   4.553  -2.077  0.00  0.00    +0.041 A 
ATOM     33  C   UNL     1      -7.944   3.612  -2.728  0.00  0.00    +0.195 A 
ATOM     34  O   UNL     1      -6.638   3.902  -2.608  0.00  0.00    -0.466 OA
ENDBRANCH  29  30
ENDBRANCH  28  29
ENDBRANCH  23  24
BRANCH  23  35
ATOM     35  C   UNL     1      -4.091   1.866  -1.222  0.00  0.00    -0.024 C 
ATOM     36  C   UNL     1      -3.485   0.963  -2.299  0.00  0.00    +0.006 C 
ATOM     37  C   UNL     1      -3.981   1.179   0.141  0.00  0.00    +0.006 C 
ENDBRANCH  23  35
ENDBRANCH   1  23
TORSDOF 11
