REMARK  Name = ZINC12751196
REMARK  5 active torsions:
REMARK  status: ('A' for Active; 'I' for Inactive)
REMARK    1  A    between atoms: C_1  and  C_2
REMARK    2  A    between atoms: C_7  and  C_27
REMARK    3  A    between atoms: N_12  and  C_16
REMARK    4  A    between atoms: C_16  and  C_17
REMARK    5  A    between atoms: C_19  and  C_22
REMARK                            x       y       z     vdW  Elec       q    Type
REMARK                         _______ _______ _______ _____ _____    ______ ____
ROOT
ATOM      1  C   UNL     1      -4.420  -2.587  -2.578  0.00  0.00    +0.010 C 
ATOM      2  C   UNL     1      -4.007  -1.610  -3.680  0.00  0.00    +0.019 C 
ATOM      3  C   UNL     1      -4.077  -2.313  -5.038  0.00  0.00    +0.006 C 
ATOM      4  C   UNL     1      -3.644  -1.340  -6.137  0.00  0.00    +0.001 C 
ATOM      5  C   UNL     1      -2.206  -0.884  -5.881  0.00  0.00    +0.006 C 
ATOM      6  C   UNL     1      -2.130  -0.176  -4.526  0.00  0.00    +0.019 C 
ATOM      7  C   UNL     1      -2.582  -1.130  -3.426  0.00  0.00    +0.118 C 
ATOM      8  C   UNL     1      -2.486  -0.465  -2.073  0.00  0.00    +0.247 C 
ATOM      9  O   UNL     1      -3.079   0.523  -1.697  0.00  0.00    -0.273 OA
ATOM     10  N   UNL     1      -1.600  -1.202  -1.371  0.00  0.00    -0.215 N 
ATOM     11  C   UNL     1      -1.137  -2.233  -2.090  0.00  0.00    +0.310 C 
ATOM     12  O   UNL     1      -0.331  -3.041  -1.672  0.00  0.00    -0.252 OA
ATOM     13  N   UNL     1      -1.665  -2.273  -3.329  0.00  0.00    -0.284 N 
ATOM     14  C   UNL     1      -3.042   1.053  -4.542  0.00  0.00    +0.010 C 
ATOM     15  H   UNL     1      -1.477  -2.928  -4.019  0.00  0.00    +0.151 HD
ENDROOT
BRANCH  10  16
ATOM     16  C   UNL     1      -1.199  -0.915   0.008  0.00  0.00    +0.216 C 
BRANCH  16  17
ATOM     17  C   UNL     1       0.002  -0.004   0.002  0.00  0.00    +0.246 A 
ATOM     18  N   UNL     1      -0.016   1.305   0.009  0.00  0.00    -0.187 NA
ATOM     19  C   UNL     1       1.283   1.686  -0.001  0.00  0.00    +0.237 A 
ATOM     20  N   UNL     1       2.006   0.593  -0.014  0.00  0.00    -0.053 NA
ATOM     21  O   UNL     1       1.284  -0.382  -0.012  0.00  0.00    -0.336 OA
BRANCH  19  22
ATOM     22  C   UNL     1       1.791   3.074   0.001  0.00  0.00    +0.175 A 
ATOM     23  C   UNL     1       3.099   3.445  -0.010  0.00  0.00    +0.053 A 
ATOM     24  C   UNL     1       3.121   4.853  -0.004  0.00  0.00    +0.042 A 
ATOM     25  C   UNL     1       1.839   5.268   0.010  0.00  0.00    +0.196 A 
ATOM     26  O   UNL     1       1.038   4.191   0.007  0.00  0.00    -0.460 OA
ENDBRANCH  19  22
ENDBRANCH  16  17
ENDBRANCH  10  16
TORSDOF 3
