REMARK  Name = ZINC12569312
REMARK  7 active torsions:
REMARK  status: ('A' for Active; 'I' for Inactive)
REMARK    1  A    between atoms: C_1  and  C_2
REMARK    2  A    between atoms: C_2  and  C_3
REMARK    3  A    between atoms: C_3  and  C_30
REMARK    4  A    between atoms: N_6  and  N_10
REMARK    5  A    between atoms: C_11  and  C_13
REMARK    6  A    between atoms: C_13  and  N_14
REMARK    7  A    between atoms: C_22  and  C_24
REMARK                            x       y       z     vdW  Elec       q    Type
REMARK                         _______ _______ _______ _____ _____    ______ ____
ROOT
ATOM      1  N   UNL     1       2.393   1.462  -0.012  0.00  0.00    -0.222 N 
ATOM      2  C   UNL     1       2.901   0.942  -1.147  0.00  0.00    +0.250 C 
ATOM      3  O   UNL     1       2.228   0.914  -2.156  0.00  0.00    -0.272 OA
ATOM      4  H   UNL     1       2.931   1.484   0.794  0.00  0.00    +0.174 HD
ENDROOT
BRANCH   1   8
ATOM      5  C   UNL     1      -0.727   3.357   0.027  0.00  0.00    +0.139 C 
ATOM      6  C   UNL     1       0.787   3.284   0.012  0.00  0.00    +0.268 C 
ATOM      7  O   UNL     1       1.565   4.213   0.010  0.00  0.00    -0.271 OA
ATOM      8  N   UNL     1       1.087   1.970   0.002  0.00  0.00    -0.137 N 
ATOM      9  C   UNL     1      -0.014   1.211   0.009  0.00  0.00    +0.327 C 
ATOM     10  O   UNL     1       0.002  -0.004   0.002  0.00  0.00    -0.251 OA
ATOM     11  N   UNL     1      -1.143   1.944   0.018  0.00  0.00    -0.280 N 
ATOM     12  H   UNL     1      -2.052   1.607   0.019  0.00  0.00    +0.152 HD
BRANCH   5  13
ATOM     13  C   UNL     1      -1.212   4.052   1.273  0.00  0.00    -0.015 A 
ATOM     14  C   UNL     1      -1.398   5.422   1.272  0.00  0.00    +0.006 A 
ATOM     15  C   UNL     1      -1.847   6.059   2.414  0.00  0.00    +0.000 A 
ATOM     16  C   UNL     1      -2.102   5.328   3.559  0.00  0.00    +0.000 A 
ATOM     17  C   UNL     1      -1.911   3.959   3.561  0.00  0.00    +0.000 A 
ATOM     18  C   UNL     1      -1.466   3.321   2.418  0.00  0.00    +0.006 A 
ENDBRANCH   5  13
BRANCH   5  20
ATOM     19  C   UNL     1      -0.889   3.252  -2.464  0.00  0.00    +0.007 C 
ATOM     20  C   UNL     1      -1.244   4.073  -1.222  0.00  0.00    +0.037 C 
ENDBRANCH   5  20
ENDBRANCH   1   8
BRANCH   2  21
ATOM     21  C   UNL     1       4.305   0.395  -1.163  0.00  0.00    +0.223 C 
BRANCH  21  22
ATOM     22  N   UNL     1       4.619  -0.108  -2.502  0.00  0.00    -0.290 N 
ATOM     23  C   UNL     1       5.173   0.731  -3.414  0.00  0.00    +0.203 A 
ATOM     24  N   UNL     1       5.467   0.320  -4.619  0.00  0.00    -0.230 NA
ATOM     25  C   UNL     1       5.234  -0.933  -4.991  0.00  0.00    +0.116 A 
ATOM     26  C   UNL     1       4.661  -1.879  -4.117  0.00  0.00    +0.073 A 
ATOM     27  C   UNL     1       4.356  -1.394  -2.801  0.00  0.00    +0.263 A 
ATOM     28  O   UNL     1       3.863  -2.134  -1.968  0.00  0.00    -0.267 OA
ATOM     29  C   UNL     1       4.473  -3.164  -4.648  0.00  0.00    +0.031 A 
ATOM     30  C   UNL     1       4.837  -3.426  -5.930  0.00  0.00    +0.022 A 
ATOM     31  S   UNL     1       5.479  -1.857  -6.487  0.00  0.00    -0.068 S 
BRANCH  30  32
ATOM     32  C   UNL     1       4.727  -4.696  -6.679  0.00  0.00    -0.011 A 
ATOM     33  C   UNL     1       4.195  -5.830  -6.062  0.00  0.00    +0.009 A 
ATOM     34  C   UNL     1       4.089  -7.010  -6.769  0.00  0.00    +0.001 A 
ATOM     35  C   UNL     1       4.521  -7.075  -8.081  0.00  0.00    +0.000 A 
ATOM     36  C   UNL     1       5.055  -5.957  -8.697  0.00  0.00    +0.001 A 
ATOM     37  C   UNL     1       5.160  -4.768  -8.004  0.00  0.00    +0.009 A 
ENDBRANCH  30  32
ENDBRANCH  21  22
ENDBRANCH   2  21
TORSDOF 6
