REMARK  Name = ZINC09984045
REMARK  4 active torsions:
REMARK  status: ('A' for Active; 'I' for Inactive)
REMARK    1  A    between atoms: C_4  and  C_7
REMARK    2  A    between atoms: C_17  and  C_19
REMARK    3  A    between atoms: C_25  and  C_27
REMARK    4  A    between atoms: C_27  and  N_28
REMARK                            x       y       z     vdW  Elec       q    Type
REMARK                         _______ _______ _______ _____ _____    ______ ____
ROOT
ATOM      1  C   UNL     1       2.591   0.468  -4.653  0.00  0.00    +0.013 C 
ATOM      2  C   UNL     1       2.527  -0.754  -4.087  0.00  0.00    -0.024 C 
ATOM      3  C   UNL     1       3.295  -1.891  -4.692  0.00  0.00    +0.037 C 
ATOM      4  C   UNL     1       3.316  -3.147  -3.846  0.00  0.00    +0.005 C 
ATOM      5  C   UNL     1       2.033  -3.365  -3.047  0.00  0.00    +0.012 C 
ATOM      6  C   UNL     1       1.873  -2.201  -2.068  0.00  0.00    +0.066 C 
ATOM      7  C   UNL     1       1.737  -0.947  -2.930  0.00  0.00    +0.068 C 
ATOM      8  N   UNL     1       0.837  -0.194  -2.401  0.00  0.00    -0.181 NA
ATOM      9  N   UNL     1       0.115  -0.819  -1.377  0.00  0.00    -0.184 N 
ATOM     10  C   UNL     1       0.515  -2.244  -1.347  0.00  0.00    +0.140 C 
ATOM     11  C   UNL     1      -0.780  -0.228  -0.561  0.00  0.00    +0.253 C 
ATOM     12  O   UNL     1      -1.345  -0.879   0.293  0.00  0.00    -0.272 OA
ENDROOT
BRANCH   1  16
ATOM     13  C   UNL     1       4.599   0.990  -8.354  0.00  0.00    +0.000 A 
ATOM     14  C   UNL     1       3.773  -0.105  -8.167  0.00  0.00    +0.001 A 
ATOM     15  C   UNL     1       3.117  -0.281  -6.967  0.00  0.00    +0.008 A 
ATOM     16  C   UNL     1       3.288   0.649  -5.937  0.00  0.00    -0.025 A 
ATOM     17  C   UNL     1       4.120   1.755  -6.135  0.00  0.00    +0.008 A 
ATOM     18  C   UNL     1       4.773   1.915  -7.340  0.00  0.00    +0.001 A 
ENDBRANCH   1  16
BRANCH  10  19
ATOM     19  C   UNL     1       0.671  -2.732   0.070  0.00  0.00    -0.024 A 
ATOM     20  C   UNL     1       1.231  -1.908   1.027  0.00  0.00    +0.005 A 
ATOM     21  C   UNL     1       1.370  -2.354   2.328  0.00  0.00    +0.000 A 
ATOM     22  C   UNL     1       0.957  -3.628   2.670  0.00  0.00    +0.000 A 
ATOM     23  C   UNL     1       0.402  -4.455   1.711  0.00  0.00    +0.000 A 
ATOM     24  C   UNL     1       0.259  -4.007   0.411  0.00  0.00    +0.005 A 
ENDBRANCH  10  19
BRANCH  11  25
ATOM     25  C   UNL     1      -1.081   1.241  -0.710  0.00  0.00    +0.215 C 
BRANCH  25  26
ATOM     26  N   UNL     1      -2.078   1.639   0.286  0.00  0.00    -0.216 N 
ATOM     27  C   UNL     1      -1.778   2.084   1.522  0.00  0.00    +0.241 C 
ATOM     28  O   UNL     1      -0.674   2.226   2.002  0.00  0.00    -0.273 OA
ATOM     29  C   UNL     1      -3.109   2.372   2.188  0.00  0.00    +0.202 C 
ATOM     30  N   UNL     1      -4.097   2.023   1.153  0.00  0.00    -0.290 N 
ATOM     31  C   UNL     1      -3.400   1.610   0.079  0.00  0.00    +0.309 C 
ATOM     32  O   UNL     1      -3.913   1.249  -0.962  0.00  0.00    -0.252 OA
ATOM     33  H   UNL     1      -5.062   2.081   1.230  0.00  0.00    +0.151 HD
ENDBRANCH  25  26
ENDBRANCH  11  25
TORSDOF 4
