REMARK  Name = ZINC39663876
REMARK  12 active torsions:
REMARK  status: ('A' for Active; 'I' for Inactive)
REMARK    1  A    between atoms: C_1  and  C_2
REMARK    2  A    between atoms: C_5  and  C_9
REMARK    3  A    between atoms: C_7  and  C_8
REMARK    4  A    between atoms: C_13  and  C_22
REMARK    5  A    between atoms: N_24  and  C_25
REMARK    6  A    between atoms: C_25  and  C_26
REMARK    7  A    between atoms: C_26  and  C_28
REMARK    8  A    between atoms: C_26  and  N_36
REMARK    9  A    between atoms: C_31  and  O_34
REMARK   10  A    between atoms: O_34  and  C_35
REMARK   11  A    between atoms: N_36  and  C_37
REMARK   12  A    between atoms: N_36  and  C_38
REMARK                            x       y       z     vdW  Elec       q    Type
REMARK                         _______ _______ _______ _____ _____    ______ ____
ROOT
ATOM      1  C   UNL     1      -0.091  -4.449  -0.157  0.00  0.00    +0.247 C 
ATOM      2  O   UNL     1      -0.036  -5.150   0.835  0.00  0.00    -0.270 OA
ATOM      3  N   UNL     1      -0.187  -5.015  -1.376  0.00  0.00    -0.296 N 
ATOM      4  C   UNL     1      -0.139  -4.343  -2.696  0.00  0.00    +0.121 C 
ATOM      5  C   UNL     1       0.680  -5.299  -3.592  0.00  0.00    +0.100 C 
ATOM      6  C   UNL     1       0.526  -6.681  -2.934  0.00  0.00    -0.004 C 
ATOM      7  C   UNL     1      -0.360  -6.452  -1.701  0.00  0.00    +0.115 C 
ATOM      8  C   UNL     1      -0.150  -7.652  -3.898  0.00  0.00    -0.010 C 
ATOM      9  C   UNL     1      -0.240  -9.034  -3.243  0.00  0.00    -0.082 C 
ATOM     10  N   UNL     1       1.108  -9.506  -2.906  0.00  0.00    +0.379 N 
ATOM     11  C   UNL     1       1.716  -8.617  -1.909  0.00  0.00    -0.082 C 
ATOM     12  C   UNL     1       1.888  -7.218  -2.507  0.00  0.00    -0.010 C 
ATOM     13  H   UNL     1       1.052 -10.441  -2.531  0.00  0.00    -0.086 HD
ATOM     14  H   UNL     1       1.678  -9.514  -3.739  0.00  0.00    -0.086 HD
ENDROOT
BRANCH   1  19
ATOM     15  C   UNL     1       0.063   1.280   0.353  0.00  0.00    +0.044 C 
ATOM     16  C   UNL     1       0.022  -0.220   0.219  0.00  0.00    -0.047 A 
ATOM     17  C   UNL     1      -0.496  -0.796  -0.927  0.00  0.00    +0.004 A 
ATOM     18  C   UNL     1      -0.536  -2.169  -1.056  0.00  0.00    +0.013 A 
ATOM     19  C   UNL     1      -0.051  -2.977  -0.026  0.00  0.00    +0.037 A 
ATOM     20  C   UNL     1       0.471  -2.390   1.127  0.00  0.00    +0.016 A 
ATOM     21  C   UNL     1       0.509  -1.016   1.241  0.00  0.00    -0.047 A 
ATOM     22  C   UNL     1       1.078  -0.380   2.483  0.00  0.00    +0.044 C 
ENDBRANCH   1  19
BRANCH   5  23
ATOM     23  C   UNL     1       2.129  -4.885  -3.614  0.00  0.00    +0.218 C 
ATOM     24  O   UNL     1       2.634  -4.393  -2.628  0.00  0.00    -0.275 OA
ATOM     25  N   UNL     1       2.863  -5.062  -4.731  0.00  0.00    -0.316 N 
ATOM     26  H   UNL     1       2.459  -5.456  -5.519  0.00  0.00    +0.149 HD
BRANCH  25  27
ATOM     27  C   UNL     1       4.271  -4.659  -4.752  0.00  0.00    +0.093 C 
BRANCH  27  28
ATOM     28  C   UNL     1       4.900  -5.074  -6.084  0.00  0.00    -0.021 C 
BRANCH  28  29
ATOM     29  C   UNL     1       4.252  -4.305  -7.207  0.00  0.00    -0.059 A 
ATOM     30  C   UNL     1       4.646  -3.007  -7.471  0.00  0.00    +0.005 A 
ATOM     31  C   UNL     1       4.053  -2.299  -8.499  0.00  0.00    +0.046 A 
ATOM     32  C   UNL     1       3.063  -2.893  -9.267  0.00  0.00    +0.120 A 
ATOM     33  C   UNL     1       2.670  -4.197  -9.000  0.00  0.00    +0.046 A 
ATOM     34  C   UNL     1       3.269  -4.902  -7.974  0.00  0.00    +0.005 A 
BRANCH  32  35
ATOM     35  O   UNL     1       2.478  -2.200 -10.278  0.00  0.00    -0.495 OA
ATOM     36  C   UNL     1       1.465  -2.874 -11.028  0.00  0.00    +0.277 C 
ENDBRANCH  32  35
ENDBRANCH  28  29
BRANCH  28  37
ATOM     37  N   UNL     1       6.340  -4.783  -6.058  0.00  0.00    +0.382 N 
ATOM     38  C   UNL     1       6.987  -5.605  -5.027  0.00  0.00    -0.096 C 
ATOM     39  C   UNL     1       6.925  -5.092  -7.369  0.00  0.00    -0.096 C 
ATOM     40  H   UNL     1       6.481  -3.807  -5.848  0.00  0.00    -0.082 HD
ENDBRANCH  28  37
ENDBRANCH  27  28
ENDBRANCH  25  27
ENDBRANCH   5  23
TORSDOF 7
