REMARK  Name = ZINC53993930
REMARK  5 active torsions:
REMARK  status: ('A' for Active; 'I' for Inactive)
REMARK    1  A    between atoms: C_1  and  C_2
REMARK    2  A    between atoms: C_2  and  C_3
REMARK    3  A    between atoms: C_2  and  C_4
REMARK    4  A    between atoms: C_2  and  C_5
REMARK    5  A    between atoms: C_9  and  C_17
REMARK                            x       y       z     vdW  Elec       q    Type
REMARK                         _______ _______ _______ _____ _____    ______ ____
ROOT
ATOM      1  C   UNL     1       0.707  -0.490  -1.238  0.00  0.00    -0.040 A 
ATOM      2  C   UNL     1       0.840  -1.831  -1.459  0.00  0.00    +0.015 A 
ATOM      3  C   UNL     1       1.505  -2.286  -2.607  0.00  0.00    +0.020 A 
ATOM      4  C   UNL     1       1.683  -3.674  -2.835  0.00  0.00    +0.034 A 
ATOM      5  C   UNL     1       2.518  -4.065  -3.877  0.00  0.00    +0.148 A 
ATOM      6  C   UNL     1       3.182  -2.997  -4.648  0.00  0.00    +0.352 A 
ATOM      7  O   UNL     1       4.230  -3.201  -5.232  0.00  0.00    -0.244 OA
ATOM      8  O   UNL     1       2.585  -1.783  -4.685  0.00  0.00    -0.420 OA
ATOM      9  C   UNL     1       1.995  -1.355  -3.543  0.00  0.00    +0.153 A 
ATOM     10  C   UNL     1       1.855   0.004  -3.293  0.00  0.00    +0.061 A 
ATOM     11  C   UNL     1       1.212   0.429  -2.147  0.00  0.00    +0.023 A 
ATOM     12 BR   UNL     1       2.536   1.270  -4.522  0.00  0.00    -0.046 Br
ENDROOT
BRANCH   1  14
ATOM     13  C   UNL     1      -0.019   1.526   0.010  0.00  0.00    +0.015 C 
ATOM     14  C   UNL     1       0.002  -0.004   0.002  0.00  0.00    -0.013 C 
ATOM     15  C   UNL     1       0.742  -0.511   1.242  0.00  0.00    +0.015 C 
ATOM     16  C   UNL     1      -1.433  -0.534   0.013  0.00  0.00    +0.015 C 
ENDBRANCH   1  14
BRANCH   5  17
ATOM     17  C   UNL     1       2.729  -5.482  -4.195  0.00  0.00    +0.393 C 
ATOM     18  O   UNL     1       2.166  -6.348  -3.539  0.00  0.00    -0.240 OA
ATOM     19  O   UNL     1       3.469  -5.798  -5.118  0.00  0.00    -0.240 OA
ENDBRANCH   5  17
TORSDOF 2
