REMARK  Name = ZINC66131051
REMARK  5 active torsions:
REMARK  status: ('A' for Active; 'I' for Inactive)
REMARK    1  A    between atoms: C_1  and  C_2
REMARK    2  A    between atoms: C_2  and  C_20
REMARK    3  A    between atoms: N_12  and  C_13
REMARK    4  A    between atoms: C_13  and  C_14
REMARK    5  A    between atoms: C_24  and  N_26
REMARK                            x       y       z     vdW  Elec       q    Type
REMARK                         _______ _______ _______ _____ _____    ______ ____
ROOT
ATOM      1  C   UNL     1      -0.287   1.234   0.112  0.00  0.00    +0.059 C 
ATOM      2  C   UNL     1      -0.032  -0.271   0.008  0.00  0.00    +0.125 C 
ATOM      3  N   UNL     1       0.637  -0.564  -1.265  0.00  0.00    -0.319 N 
ATOM      4  C   UNL     1       1.268  -1.793  -1.422  0.00  0.00    +0.041 A 
ATOM      5  C   UNL     1       1.398  -2.392  -2.664  0.00  0.00    +0.024 A 
ATOM      6  C   UNL     1       2.043  -3.609  -2.772  0.00  0.00    +0.002 A 
ATOM      7  C   UNL     1       2.561  -4.234  -1.648  0.00  0.00    +0.001 A 
ATOM      8  C   UNL     1       2.437  -3.652  -0.404  0.00  0.00    +0.015 A 
ATOM      9  C   UNL     1       1.785  -2.428  -0.279  0.00  0.00    +0.058 A 
ATOM     10  C   UNL     1       1.605  -1.778   1.031  0.00  0.00    +0.251 C 
ATOM     11  O   UNL     1       2.177  -2.210   2.014  0.00  0.00    -0.270 OA
ATOM     12  N   UNL     1       0.801  -0.700   1.131  0.00  0.00    -0.268 N 
ATOM     13  H   UNL     1       0.639   0.088  -1.983  0.00  0.00    +0.148 HD
ENDROOT
BRANCH   2  14
ATOM     14  C   UNL     1      -1.348  -1.004   0.055  0.00  0.00    -0.004 A 
ATOM     15  C   UNL     1      -2.463  -0.463  -0.558  0.00  0.00    +0.007 A 
ATOM     16  C   UNL     1      -3.670  -1.135  -0.514  0.00  0.00    +0.003 A 
ATOM     17  C   UNL     1      -3.763  -2.349   0.142  0.00  0.00    +0.033 A 
ATOM     18  C   UNL     1      -2.648  -2.890   0.754  0.00  0.00    +0.127 A 
ATOM     19  C   UNL     1      -1.440  -2.220   0.707  0.00  0.00    +0.040 A 
BRANCH  18  20
ATOM     20  N   UNL     1      -2.747  -4.189   1.457  0.00  0.00    +0.056 N 
ATOM     21  O   UNL     1      -3.803  -4.776   1.496  0.00  0.00    -0.126 OA
ATOM     22  O   UNL     1      -1.772  -4.662   1.992  0.00  0.00    -0.126 OA
ENDBRANCH  18  20
ENDBRANCH   2  14
BRANCH  12  23
ATOM     23  C   UNL     1       0.762   0.055   2.386  0.00  0.00    +0.145 C 
BRANCH  23  24
ATOM     24  C   UNL     1      -0.333  -0.490   3.265  0.00  0.00    -0.030 A 
ATOM     25  C   UNL     1      -1.613   0.025   3.175  0.00  0.00    +0.005 A 
ATOM     26  C   UNL     1      -2.618  -0.475   3.982  0.00  0.00    +0.000 A 
ATOM     27  C   UNL     1      -2.344  -1.489   4.879  0.00  0.00    +0.000 A 
ATOM     28  C   UNL     1      -1.064  -2.005   4.970  0.00  0.00    +0.000 A 
ATOM     29  C   UNL     1      -0.060  -1.508   4.160  0.00  0.00    +0.005 A 
ENDBRANCH  23  24
ENDBRANCH  12  23
TORSDOF 4
