REMARK  Name = ZINC39029883
REMARK  13 active torsions:
REMARK  status: ('A' for Active; 'I' for Inactive)
REMARK    1  A    between atoms: C_1  and  C_2
REMARK    2  A    between atoms: C_2  and  O_3
REMARK    3  A    between atoms: O_3  and  C_4
REMARK    4  A    between atoms: C_6  and  C_16
REMARK    5  A    between atoms: C_8  and  O_13
REMARK    6  A    between atoms: C_9  and  O_10
REMARK    7  A    between atoms: O_10  and  C_11
REMARK    8  A    between atoms: C_11  and  C_12
REMARK    9  A    between atoms: O_13  and  C_14
REMARK   10  A    between atoms: C_14  and  C_15
REMARK   11  A    between atoms: N_18  and  C_19
REMARK   12  A    between atoms: C_19  and  C_21
REMARK   13  A    between atoms: C_19  and  C_22
REMARK                            x       y       z     vdW  Elec       q    Type
REMARK                         _______ _______ _______ _____ _____    ______ ____
ROOT
ATOM      1  C   UNL     1       1.638  -7.165  -0.035  0.00  0.00    +0.156 C 
ATOM      2  C   UNL     1       2.275  -7.369  -1.411  0.00  0.00    +0.038 C 
ENDROOT
BRANCH   1   3
ATOM      3  C   UNL     1       1.368  -8.506   0.597  0.00  0.00    +0.236 C 
ATOM      4  O   UNL     1       0.244  -8.961   0.597  0.00  0.00    -0.274 OA
ATOM      5  N   UNL     1       2.376  -9.200   1.162  0.00  0.00    -0.300 N 
ATOM      6  C   UNL     1       3.718  -8.613   1.274  0.00  0.00    +0.106 C 
ATOM      7  C   UNL     1       4.169  -8.689   2.737  0.00  0.00    +0.009 C 
ATOM      8  C   UNL     1       4.071 -10.136   3.223  0.00  0.00    -0.037 C 
ATOM      9  C   UNL     1       2.621 -10.613   3.136  0.00  0.00    +0.009 C 
ATOM     10  C   UNL     1       2.152 -10.555   1.684  0.00  0.00    +0.106 C 
ATOM     11  C   UNL     1       4.558 -10.227   4.670  0.00  0.00    +0.140 C 
ATOM     12  C   UNL     1       4.555 -11.713   5.014  0.00  0.00    +0.042 C 
ATOM     13  N   UNL     1       3.825 -11.834   6.053  0.00  0.00    -0.243 NA
ATOM     14  C   UNL     1       3.256 -10.655   6.406  0.00  0.00    +0.216 C 
ATOM     15  N   UNL     1       3.613  -9.654   5.630  0.00  0.00    -0.264 NA
ATOM     16  C   UNL     1       5.223 -12.728   4.122  0.00  0.00    +0.034 C 
ATOM     17  C   UNL     1       4.741 -12.417   2.692  0.00  0.00    -0.076 C 
ATOM     18  N   UNL     1       4.924 -10.995   2.390  0.00  0.00    +0.385 N 
ATOM     19  H   UNL     1       4.702 -10.836   1.419  0.00  0.00    -0.085 HD
ATOM     20  H   UNL     1       5.890 -10.749   2.547  0.00  0.00    -0.085 HD
ENDBRANCH   1   3
BRANCH   1  23
ATOM     21  C   UNL     1       0.383  -5.086  -0.237  0.00  0.00    +0.245 C 
ATOM     22  O   UNL     1       1.434  -4.479  -0.162  0.00  0.00    -0.270 OA
ATOM     23  N   UNL     1       0.378  -6.433  -0.183  0.00  0.00    -0.300 N 
ATOM     24  H   UNL     1      -0.461  -6.917  -0.243  0.00  0.00    +0.150 HD
BRANCH  21  27
ATOM     25  C   UNL     1      -2.072  -2.264  -0.583  0.00  0.00    +0.166 A 
ATOM     26  C   UNL     1      -0.882  -2.952  -0.442  0.00  0.00    +0.062 A 
ATOM     27  C   UNL     1      -0.886  -4.348  -0.386  0.00  0.00    +0.044 A 
ATOM     28  C   UNL     1      -2.095  -5.045  -0.473  0.00  0.00    +0.062 A 
ATOM     29  C   UNL     1      -3.282  -4.351  -0.613  0.00  0.00    +0.166 A 
ATOM     30  C   UNL     1      -3.276  -2.960  -0.663  0.00  0.00    +0.204 A 
BRANCH  25  31
ATOM     31  O   UNL     1      -2.069  -0.905  -0.636  0.00  0.00    -0.488 OA
BRANCH  31  33
ATOM     32  C   UNL     1      -0.995   1.260  -0.626  0.00  0.00    +0.048 C 
ATOM     33  C   UNL     1      -0.799  -0.255  -0.548  0.00  0.00    +0.226 C 
ENDBRANCH  31  33
ENDBRANCH  25  31
BRANCH  30  34
ATOM     34  O   UNL     1      -4.445  -2.280  -0.796  0.00  0.00    -0.485 OA
BRANCH  34  35
ATOM     35  C   UNL     1      -4.889  -2.007  -2.127  0.00  0.00    +0.226 C 
ATOM     36  C   UNL     1      -6.212  -1.240  -2.075  0.00  0.00    +0.048 C 
ENDBRANCH  34  35
ENDBRANCH  30  34
BRANCH  29  37
ATOM     37  O   UNL     1      -4.458  -5.029  -0.698  0.00  0.00    -0.488 OA
BRANCH  37  38
ATOM     38  C   UNL     1      -4.392  -6.455  -0.635  0.00  0.00    +0.226 C 
ATOM     39  C   UNL     1      -5.803  -7.037  -0.746  0.00  0.00    +0.048 C 
ENDBRANCH  37  38
ENDBRANCH  29  37
ENDBRANCH  21  27
ENDBRANCH   1  23
TORSDOF 9
