REMARK  Name = ZINC48907731
REMARK  6 active torsions:
REMARK  status: ('A' for Active; 'I' for Inactive)
REMARK    1  A    between atoms: C_1  and  C_2
REMARK    2  A    between atoms: C_3  and  N_19
REMARK    3  A    between atoms: C_7  and  S_8
REMARK    4  A    between atoms: S_8  and  N_11
REMARK    5  A    between atoms: N_11  and  C_12
REMARK    6  A    between atoms: N_16  and  C_18
REMARK                            x       y       z     vdW  Elec       q    Type
REMARK                         _______ _______ _______ _____ _____    ______ ____
ROOT
ATOM      1  S   UNL     1      -0.066   0.100   2.877  0.00  0.00    +0.059 S 
ATOM      2  O   UNL     1      -1.184   0.975   2.841  0.00  0.00    -0.153 OA
ATOM      3  O   UNL     1       0.116  -0.862   3.908  0.00  0.00    -0.153 OA
ENDROOT
BRANCH   1  10
ATOM      4  C   UNL     1       2.043  -1.916   2.078  0.00  0.00    +0.048 C 
ATOM      5  C   UNL     1       0.938  -1.691   1.078  0.00  0.00    +0.006 A 
ATOM      6  C   UNL     1       0.931  -2.392  -0.113  0.00  0.00    +0.131 A 
ATOM      7  C   UNL     1      -0.083  -2.186  -1.030  0.00  0.00    +0.033 A 
ATOM      8  C   UNL     1      -1.089  -1.279  -0.755  0.00  0.00    +0.004 A 
ATOM      9  C   UNL     1      -1.083  -0.579   0.436  0.00  0.00    +0.029 A 
ATOM     10  C   UNL     1      -0.071  -0.788   1.355  0.00  0.00    +0.110 A 
BRANCH   6  11
ATOM     11  N   UNL     1       2.009  -3.363  -0.408  0.00  0.00    +0.057 N 
ATOM     12  O   UNL     1       2.062  -3.897  -1.491  0.00  0.00    -0.126 OA
ATOM     13  O   UNL     1       2.836  -3.622   0.435  0.00  0.00    -0.126 OA
ENDBRANCH   6  11
ENDBRANCH   1  10
BRANCH   1  14
ATOM     14  N   UNL     1       1.285   1.058   2.880  0.00  0.00    -0.189 NA
ATOM     15  H   UNL     1       1.991   0.898   3.526  0.00  0.00    +0.148 HD
BRANCH  14  16
ATOM     16  C   UNL     1       1.414   2.146   1.908  0.00  0.00    +0.058 C 
ATOM     17  C   UNL     1       1.022   3.494   2.556  0.00  0.00    -0.000 C 
ATOM     18  C   UNL     1       2.392   4.091   2.966  0.00  0.00    -0.078 C 
ATOM     19  N   UNL     1       3.285   3.691   1.849  0.00  0.00    +0.379 N 
ATOM     20  C   UNL     1       2.885   2.313   1.484  0.00  0.00    -0.059 C 
ATOM     21  C   UNL     1       4.687   3.712   2.290  0.00  0.00    -0.096 C 
ATOM     22  H   UNL     1       3.157   4.310   1.063  0.00  0.00    -0.082 HD
ENDBRANCH  14  16
ENDBRANCH   1  14
TORSDOF 4
