REMARK  Name = ZINC15171026
REMARK  6 active torsions:
REMARK  status: ('A' for Active; 'I' for Inactive)
REMARK    1  A    between atoms: C_1  and  C_2
REMARK    2  A    between atoms: N_4  and  C_5
REMARK    3  A    between atoms: C_5  and  C_6
REMARK    4  A    between atoms: C_6  and  N_7
REMARK    5  A    between atoms: C_15  and  C_17
REMARK    6  A    between atoms: C_18  and  C_19
REMARK                            x       y       z     vdW  Elec       q    Type
REMARK                         _______ _______ _______ _____ _____    ______ ____
ROOT
ATOM      1  N   UNL     1      -4.758   0.259  -2.290  0.00  0.00    -0.327 N 
ATOM      2  C   UNL     1      -5.188   0.427  -0.986  0.00  0.00    +0.131 A 
ATOM      3  C   UNL     1      -4.347   0.986   0.022  0.00  0.00    +0.051 A 
ATOM      4  C   UNL     1      -2.978   1.446  -0.138  0.00  0.00    -0.025 A 
ATOM      5  C   UNL     1      -2.372   1.943   0.966  0.00  0.00    -0.004 A 
ATOM      6  S   UNL     1      -3.583   1.825   2.258  0.00  0.00    -0.073 S 
ATOM      7  C   UNL     1      -4.898   1.111   1.324  0.00  0.00    +0.114 A 
ATOM      8  N   UNL     1      -6.122   0.741   1.633  0.00  0.00    -0.221 NA
ATOM      9  C   UNL     1      -6.862   0.224   0.644  0.00  0.00    +0.156 A 
ATOM     10  N   UNL     1      -6.410   0.078  -0.597  0.00  0.00    -0.213 NA
ATOM     11  C   UNL     1      -0.973   2.478   1.073  0.00  0.00    +0.043 C 
ATOM     12  C   UNL     1      -0.193   2.039  -0.175  0.00  0.00    +0.005 C 
ATOM     13  C   UNL     1      -1.041   2.337  -1.415  0.00  0.00    +0.005 C 
ATOM     14  C   UNL     1      -2.235   1.383  -1.469  0.00  0.00    +0.037 C 
ATOM     15  H   UNL     1      -3.835   0.445  -2.524  0.00  0.00    +0.148 HD
ENDROOT
BRANCH   9  16
ATOM     16  C   UNL     1      -8.238  -0.203   0.946  0.00  0.00    +0.049 C 
ATOM     17  C   UNL     1      -8.725  -0.069   2.191  0.00  0.00    +0.011 C 
BRANCH  17  18
ATOM     18  C   UNL     1     -10.103  -0.495   2.493  0.00  0.00    -0.025 A 
ATOM     19  C   UNL     1     -10.908  -1.035   1.486  0.00  0.00    +0.008 A 
ATOM     20  C   UNL     1     -12.194  -1.438   1.778  0.00  0.00    +0.001 A 
ATOM     21  C   UNL     1     -12.692  -1.298   3.061  0.00  0.00    +0.000 A 
ATOM     22  C   UNL     1     -11.903  -0.760   4.062  0.00  0.00    +0.001 A 
ATOM     23  C   UNL     1     -10.613  -0.358   3.787  0.00  0.00    +0.008 A 
ENDBRANCH  17  18
ENDBRANCH   9  16
BRANCH   1  24
ATOM     24  C   UNL     1      -5.696  -0.202  -3.317  0.00  0.00    +0.121 C 
BRANCH  24  25
ATOM     25  C   UNL     1      -4.971  -0.303  -4.661  0.00  0.00    +0.123 C 
BRANCH  25  29
ATOM     26  C   UNL     1      -6.453  -1.401  -8.015  0.00  0.00    +0.109 C 
ATOM     27  C   UNL     1      -5.489  -0.927  -6.958  0.00  0.00    +0.210 C 
ATOM     28  O   UNL     1      -4.335  -0.694  -7.251  0.00  0.00    -0.276 OA
ATOM     29  N   UNL     1      -5.908  -0.763  -5.688  0.00  0.00    -0.314 N 
ATOM     30  H   UNL     1      -6.831  -0.950  -5.454  0.00  0.00    +0.149 HD
ENDBRANCH  25  29
ENDBRANCH  24  25
ENDBRANCH   1  24
TORSDOF 5
