REMARK  Name = ZINC30653726
REMARK  6 active torsions:
REMARK  status: ('A' for Active; 'I' for Inactive)
REMARK    1  A    between atoms: C_3  and  S_6
REMARK    2  A    between atoms: S_6  and  N_9
REMARK    3  A    between atoms: N_9  and  C_10
REMARK    4  A    between atoms: C_13  and  C_16
REMARK    5  A    between atoms: C_16  and  C_17
REMARK    6  A    between atoms: C_17  and  N_19
REMARK                            x       y       z     vdW  Elec       q    Type
REMARK                         _______ _______ _______ _____ _____    ______ ____
ROOT
ATOM      1  C   UNL     1       5.762   2.548   1.851  0.00  0.00    +0.074 A 
ATOM      2  C   UNL     1       6.639   2.878   0.826  0.00  0.00    +0.027 A 
ATOM      3  C   UNL     1       7.909   3.333   1.126  0.00  0.00    +0.006 A 
ATOM      4  C   UNL     1       8.307   3.458   2.444  0.00  0.00    -0.038 A 
ATOM      5  C   UNL     1       7.436   3.130   3.467  0.00  0.00    +0.006 A 
ATOM      6  C   UNL     1       6.163   2.681   3.175  0.00  0.00    +0.027 A 
ENDROOT
BRANCH   1   7
ATOM      7  N   UNL     1       4.477   2.089   1.552  0.00  0.00    -0.097 NA
BRANCH   7   8
ATOM      8  S   UNL     1       4.001   1.932  -0.026  0.00  0.00    +0.098 S 
ATOM      9  O   UNL     1       4.799   0.900  -0.590  0.00  0.00    -0.148 OA
ATOM     10  O   UNL     1       3.957   3.244  -0.570  0.00  0.00    -0.148 OA
BRANCH   8  13
ATOM     11  C   UNL     1      -0.016   1.351   0.009  0.00  0.00    +0.010 A 
ATOM     12  C   UNL     1       1.183   2.038   0.002  0.00  0.00    +0.037 A 
ATOM     13  C   UNL     1       2.343   1.336  -0.013  0.00  0.00    +0.148 A 
ATOM     14  S   UNL     1       1.754  -0.349  -0.017  0.00  0.00    -0.077 S 
ATOM     15  C   UNL     1       0.002  -0.004   0.002  0.00  0.00    +0.047 A 
ENDBRANCH   8  13
ENDBRANCH   7   8
ENDBRANCH   1   7
BRANCH   4  16
ATOM     16  C   UNL     1       9.693   3.953   2.767  0.00  0.00    +0.133 C 
BRANCH  16  17
ATOM     17  C   UNL     1       9.674   5.455   2.893  0.00  0.00    +0.243 C 
ATOM     18  O   UNL     1       8.634   6.064   2.735  0.00  0.00    -0.273 OA
BRANCH  17  19
ATOM     19  N   UNL     1      10.795   6.113   3.176  0.00  0.00    -0.159 NA
ATOM     20  C   UNL     1      10.778   7.436   3.287  0.00  0.00    +0.146 C 
ATOM     21  N   UNL     1      11.839   8.226   3.570  0.00  0.00    -0.325 N 
ATOM     22  C   UNL     1      11.669   9.662   3.659  0.00  0.00    +0.114 C 
ATOM     23  C   UNL     1      10.204  10.068   3.397  0.00  0.00    +0.095 C 
ATOM     24  S   UNL     1       9.440   8.427   3.094  0.00  0.00    -0.092 S 
ATOM     25  H   UNL     1      12.713   7.831   3.713  0.00  0.00    +0.148 HD
ENDBRANCH  17  19
ENDBRANCH  16  17
ENDBRANCH   4  16
TORSDOF 6
