REMARK  Name = ZINC39634852
REMARK  13 active torsions:
REMARK  status: ('A' for Active; 'I' for Inactive)
REMARK    1  A    between atoms: C_1  and  C_2
REMARK    2  A    between atoms: C_4  and  C_11
REMARK    3  A    between atoms: C_5  and  C_7
REMARK    4  A    between atoms: C_15  and  C_24
REMARK    5  A    between atoms: N_26  and  C_27
REMARK    6  A    between atoms: C_27  and  C_28
REMARK    7  A    between atoms: C_28  and  N_29
REMARK    8  A    between atoms: N_29  and  C_30
REMARK    9  A    between atoms: N_29  and  C_33
REMARK   10  A    between atoms: C_30  and  C_31
REMARK   11  A    between atoms: C_30  and  C_32
REMARK   12  A    between atoms: C_33  and  C_34
REMARK   13  A    between atoms: C_33  and  C_35
REMARK                            x       y       z     vdW  Elec       q    Type
REMARK                         _______ _______ _______ _____ _____    ______ ____
ROOT
ATOM      1  C   UNL     1       0.200  -0.941  -0.888  0.00  0.00    +0.250 C 
ATOM      2  O   UNL     1       0.881  -1.948  -0.852  0.00  0.00    -0.270 OA
ATOM      3  N   UNL     1      -1.078  -0.977  -0.463  0.00  0.00    -0.296 N 
ATOM      4  C   UNL     1      -2.083   0.111  -0.514  0.00  0.00    +0.121 C 
ATOM      5  C   UNL     1      -3.405  -0.596  -0.890  0.00  0.00    +0.100 C 
ATOM      6  C   UNL     1      -3.211  -2.054  -0.442  0.00  0.00    -0.004 C 
ATOM      7  C   UNL     1      -1.798  -2.115   0.157  0.00  0.00    +0.115 C 
ATOM      8  C   UNL     1      -3.310  -2.993  -1.640  0.00  0.00    -0.010 C 
ATOM      9  C   UNL     1      -3.171  -4.441  -1.161  0.00  0.00    -0.082 C 
ATOM     10  N   UNL     1      -4.231  -4.741  -0.190  0.00  0.00    +0.379 N 
ATOM     11  C   UNL     1      -4.073  -3.896   1.000  0.00  0.00    -0.082 C 
ATOM     12  C   UNL     1      -4.249  -2.425   0.612  0.00  0.00    -0.010 C 
ATOM     13  H   UNL     1      -5.130  -4.562  -0.611  0.00  0.00    -0.086 HD
ATOM     14  H   UNL     1      -4.174  -5.712   0.078  0.00  0.00    -0.086 HD
ENDROOT
BRANCH   1  18
ATOM     15  C   UNL     1       1.114   4.007  -1.728  0.00  0.00    +0.086 C 
ATOM     16  C   UNL     1       1.161   2.501  -1.755  0.00  0.00    +0.103 A 
ATOM     17  C   UNL     1       0.361   1.686  -1.051  0.00  0.00    +0.058 A 
ATOM     18  C   UNL     1       0.773   0.318  -1.398  0.00  0.00    +0.087 A 
ATOM     19  C   UNL     1       1.796   0.457  -2.289  0.00  0.00    +0.220 A 
ATOM     20  O   UNL     1       2.005   1.762  -2.490  0.00  0.00    -0.455 OA
BRANCH  19  21
ATOM     21  C   UNL     1       2.556  -0.669  -2.941  0.00  0.00    +0.451 C 
ATOM     22  F   UNL     1       1.926  -1.026  -4.138  0.00  0.00    -0.163 F 
ATOM     23  F   UNL     1       3.865  -0.253  -3.210  0.00  0.00    -0.163 F 
ATOM     24  F   UNL     1       2.584  -1.772  -2.082  0.00  0.00    -0.163 F 
ENDBRANCH  19  21
ENDBRANCH   1  18
BRANCH   5  25
ATOM     25  C   UNL     1      -3.631  -0.528  -2.379  0.00  0.00    +0.218 C 
ATOM     26  O   UNL     1      -2.686  -0.570  -3.138  0.00  0.00    -0.275 OA
ATOM     27  N   UNL     1      -4.883  -0.421  -2.866  0.00  0.00    -0.317 N 
ATOM     28  H   UNL     1      -5.638  -0.387  -2.258  0.00  0.00    +0.149 HD
BRANCH  27  29
ATOM     29  C   UNL     1      -5.103  -0.354  -4.313  0.00  0.00    +0.085 C 
BRANCH  29  30
ATOM     30  C   UNL     1      -6.602  -0.236  -4.596  0.00  0.00    -0.059 C 
BRANCH  30  31
ATOM     31  N   UNL     1      -6.814  -0.037  -6.036  0.00  0.00    +0.384 N 
ATOM     32  H   UNL     1      -6.286   0.765  -6.345  0.00  0.00    -0.081 HD
BRANCH  31  33
ATOM     33  C   UNL     1      -6.366  -1.230  -6.767  0.00  0.00    -0.074 C 
ATOM     34  C   UNL     1      -7.498  -2.258  -6.807  0.00  0.00    -0.014 C 
ATOM     35  C   UNL     1      -5.982  -0.838  -8.195  0.00  0.00    -0.014 C 
ENDBRANCH  31  33
BRANCH  31  36
ATOM     36  C   UNL     1      -8.243   0.188  -6.293  0.00  0.00    -0.074 C 
ATOM     37  C   UNL     1      -8.746   1.334  -5.414  0.00  0.00    -0.014 C 
ATOM     38  C   UNL     1      -8.445   0.548  -7.767  0.00  0.00    -0.014 C 
ENDBRANCH  31  36
ENDBRANCH  30  31
ENDBRANCH  29  30
ENDBRANCH  27  29
ENDBRANCH   5  25
TORSDOF 8
