REMARK  Name = ZINC64057438
REMARK  5 active torsions:
REMARK  status: ('A' for Active; 'I' for Inactive)
REMARK    1  A    between atoms: C_3  and  C_18
REMARK    2  A    between atoms: C_5  and  S_7
REMARK    3  A    between atoms: S_7  and  N_10
REMARK    4  A    between atoms: N_10  and  C_11
REMARK    5  A    between atoms: C_23  and  C_26
REMARK                            x       y       z     vdW  Elec       q    Type
REMARK                         _______ _______ _______ _____ _____    ______ ____
ROOT
ATOM      1  C   UNL     1       0.248   1.684   0.644  0.00  0.00    +0.003 A 
ATOM      2  C   UNL     1       1.454   2.351   0.694  0.00  0.00    +0.013 A 
ATOM      3  C   UNL     1       2.546   1.866  -0.028  0.00  0.00    +0.039 A 
ATOM      4  C   UNL     1       2.409   0.708  -0.795  0.00  0.00    +0.041 A 
ATOM      5  C   UNL     1       1.197   0.051  -0.836  0.00  0.00    +0.109 A 
ATOM      6  C   UNL     1       0.119   0.536  -0.118  0.00  0.00    +0.029 A 
ENDROOT
BRANCH   3   7
ATOM      7  C   UNL     1       3.842   2.577   0.019  0.00  0.00    +0.247 C 
ATOM      8  O   UNL     1       4.875   1.949   0.147  0.00  0.00    -0.270 OA
ATOM      9  N   UNL     1       3.878   3.920  -0.079  0.00  0.00    -0.293 N 
ATOM     10  C   UNL     1       5.156   4.649  -0.135  0.00  0.00    +0.113 C 
ATOM     11  C   UNL     1       5.234   5.366  -1.486  0.00  0.00    +0.054 C 
ATOM     12  C   UNL     1       3.938   6.062  -1.784  0.00  0.00    -0.043 C 
ATOM     13  C   UNL     1       2.784   5.773  -1.194  0.00  0.00    -0.004 C 
ATOM     14  C   UNL     1       2.642   4.715  -0.141  0.00  0.00    +0.135 C 
BRANCH  12  15
ATOM     15  C   UNL     1       3.947   7.087  -2.751  0.00  0.00    -0.015 C 
ATOM     16  C   UNL     1       5.008   7.466  -3.564  0.00  0.00    +0.022 A 
ATOM     17  C   UNL     1       6.335   6.995  -3.691  0.00  0.00    +0.013 A 
ATOM     18  C   UNL     1       7.148   7.595  -4.606  0.00  0.00    +0.020 A 
ATOM     19  C   UNL     1       6.678   8.646  -5.392  0.00  0.00    +0.113 A 
ATOM     20  N   UNL     1       5.456   9.106  -5.299  0.00  0.00    -0.238 NA
ATOM     21  C   UNL     1       4.571   8.581  -4.425  0.00  0.00    +0.135 A 
ATOM     22  N   UNL     1       3.317   8.887  -4.174  0.00  0.00    -0.365 N 
ATOM     23  C   UNL     1       2.801   8.000  -3.127  0.00  0.00    +0.150 C 
ATOM     24  H   UNL     1       2.812   9.588  -4.615  0.00  0.00    +0.161 HD
ENDBRANCH  12  15
ENDBRANCH   3   7
BRANCH   5  25
ATOM     25  S   UNL     1       1.022  -1.411  -1.804  0.00  0.00    +0.072 S 
ATOM     26  O   UNL     1      -0.338  -1.468  -2.212  0.00  0.00    -0.150 OA
ATOM     27  O   UNL     1       2.097  -1.413  -2.734  0.00  0.00    -0.150 OA
BRANCH  25  28
ATOM     28  N   UNL     1       1.267  -2.700  -0.794  0.00  0.00    -0.216 N 
ATOM     29  H   UNL     1       0.556  -3.343  -0.646  0.00  0.00    +0.174 HD
BRANCH  28  30
ATOM     30  C   UNL     1       2.500  -2.862  -0.153  0.00  0.00    +0.048 A 
ATOM     31  C   UNL     1       3.680  -2.706  -0.868  0.00  0.00    +0.027 A 
ATOM     32  C   UNL     1       4.897  -2.866  -0.234  0.00  0.00    +0.040 A 
ATOM     33  C   UNL     1       4.940  -3.181   1.114  0.00  0.00    +0.124 A 
ATOM     34  C   UNL     1       3.764  -3.336   1.829  0.00  0.00    +0.040 A 
ATOM     35  C   UNL     1       2.545  -3.172   1.199  0.00  0.00    +0.027 A 
ATOM     36  F   UNL     1       6.130  -3.337   1.733  0.00  0.00    -0.205 F 
ENDBRANCH  28  30
ENDBRANCH  25  28
ENDBRANCH   5  25
TORSDOF 5
