REMARK  Name = ZINC36203509
REMARK  15 active torsions:
REMARK  status: ('A' for Active; 'I' for Inactive)
REMARK    1  A    between atoms: C_1  and  C_2
REMARK    2  A    between atoms: C_5  and  C_7
REMARK    3  A    between atoms: C_7  and  N_8
REMARK    4  A    between atoms: N_8  and  C_9
REMARK    5  A    between atoms: N_8  and  C_15
REMARK    6  A    between atoms: C_9  and  C_10
REMARK    7  A    between atoms: C_15  and  C_16
REMARK    8  A    between atoms: C_19  and  C_21
REMARK    9  A    between atoms: C_21  and  C_22
REMARK   10  A    between atoms: C_21  and  C_30
REMARK   11  A    between atoms: C_21  and  O_38
REMARK   12  A    between atoms: C_25  and  O_28
REMARK   13  A    between atoms: O_28  and  C_29
REMARK   14  A    between atoms: C_33  and  O_36
REMARK   15  A    between atoms: O_36  and  C_37
REMARK                            x       y       z     vdW  Elec       q    Type
REMARK                         _______ _______ _______ _____ _____    ______ ____
ROOT
ATOM      1  C   UNL     1       2.988  -6.238  -3.094  0.00  0.00    +0.089 A 
ATOM      2  C   UNL     1       3.880  -6.133  -4.095  0.00  0.00    +0.043 A 
ATOM      3  C   UNL     1       3.221  -6.543  -5.277  0.00  0.00    +0.048 A 
ATOM      4  C   UNL     1       1.965  -6.875  -4.927  0.00  0.00    +0.146 A 
ATOM      5  O   UNL     1       1.831  -6.693  -3.603  0.00  0.00    -0.463 OA
ENDROOT
BRANCH   1   6
ATOM      6  C   UNL     1       3.245  -5.907  -1.647  0.00  0.00    -0.002 C 
BRANCH   6   7
ATOM      7  N   UNL     1       3.040  -4.469  -1.429  0.00  0.00    +0.392 N 
ATOM      8  H   UNL     1       3.616  -3.946  -2.071  0.00  0.00    -0.080 HD
BRANCH   7   9
ATOM      9  C   UNL     1       1.627  -4.136  -1.657  0.00  0.00    -0.034 C 
BRANCH   9  14
ATOM     10  C   UNL     1       0.759   1.298  -0.311  0.00  0.00    +0.051 C 
ATOM     11  C   UNL     1       1.026  -0.057  -0.914  0.00  0.00    -0.013 A 
ATOM     12  C   UNL     1       1.311  -0.379  -2.199  0.00  0.00    +0.011 A 
ATOM     13  C   UNL     1       1.523  -1.705  -2.528  0.00  0.00    +0.009 A 
ATOM     14  C   UNL     1       1.440  -2.644  -1.554  0.00  0.00    -0.026 A 
ATOM     15  S   UNL     1       1.059  -1.655  -0.118  0.00  0.00    -0.100 S 
ENDBRANCH   9  14
ENDBRANCH   7   9
BRANCH   7  16
ATOM     16  C   UNL     1       3.408  -4.125  -0.049  0.00  0.00    -0.002 C 
BRANCH  16  17
ATOM     17  C   UNL     1       4.889  -4.327   0.141  0.00  0.00    +0.089 A 
ATOM     18  C   UNL     1       5.840  -3.395  -0.045  0.00  0.00    +0.042 A 
ATOM     19  C   UNL     1       7.080  -4.010   0.244  0.00  0.00    +0.041 A 
ATOM     20  C   UNL     1       6.811  -5.282   0.590  0.00  0.00    +0.195 A 
ATOM     21  O   UNL     1       5.482  -5.467   0.532  0.00  0.00    -0.470 OA
ENDBRANCH  16  17
ENDBRANCH   7  16
ENDBRANCH   6   7
ENDBRANCH   1   6
BRANCH   4  22
ATOM     22  C   UNL     1       0.891  -7.370  -5.861  0.00  0.00    +0.174 C 
BRANCH  22  23
ATOM     23  C   UNL     1      -0.043  -8.286  -5.112  0.00  0.00    -0.004 A 
ATOM     24  C   UNL     1      -0.086  -9.633  -5.424  0.00  0.00    +0.011 A 
ATOM     25  C   UNL     1      -0.941 -10.474  -4.740  0.00  0.00    +0.046 A 
ATOM     26  C   UNL     1      -1.757  -9.968  -3.739  0.00  0.00    +0.120 A 
ATOM     27  C   UNL     1      -1.711  -8.616  -3.427  0.00  0.00    +0.046 A 
ATOM     28  C   UNL     1      -0.850  -7.780  -4.111  0.00  0.00    +0.011 A 
BRANCH  26  29
ATOM     29  O   UNL     1      -2.599 -10.793  -3.064  0.00  0.00    -0.495 OA
ATOM     30  C   UNL     1      -3.410 -10.203  -2.046  0.00  0.00    +0.277 C 
ENDBRANCH  26  29
ENDBRANCH  22  23
BRANCH  22  31
ATOM     31  C   UNL     1       0.116  -6.197  -6.403  0.00  0.00    -0.004 A 
ATOM     32  C   UNL     1      -0.202  -5.138  -5.574  0.00  0.00    +0.011 A 
ATOM     33  C   UNL     1      -0.913  -4.061  -6.069  0.00  0.00    +0.046 A 
ATOM     34  C   UNL     1      -1.307  -4.044  -7.399  0.00  0.00    +0.120 A 
ATOM     35  C   UNL     1      -0.986  -5.108  -8.229  0.00  0.00    +0.046 A 
ATOM     36  C   UNL     1      -0.270  -6.179  -7.731  0.00  0.00    +0.011 A 
BRANCH  34  37
ATOM     37  O   UNL     1      -2.006  -2.986  -7.888  0.00  0.00    -0.495 OA
ATOM     38  C   UNL     1      -2.378  -3.036  -9.266  0.00  0.00    +0.277 C 
ENDBRANCH  34  37
ENDBRANCH  22  31
BRANCH  22  39
ATOM     39  O   UNL     1       1.494  -8.084  -6.942  0.00  0.00    -0.372 OA
ATOM     40  H   UNL     1       2.108  -7.555  -7.469  0.00  0.00    +0.212 HD
ENDBRANCH  22  39
ENDBRANCH   4  22
TORSDOF 12
