REMARK  Name = ZINC27556916
REMARK  5 active torsions:
REMARK  status: ('A' for Active; 'I' for Inactive)
REMARK    1  A    between atoms: C_1  and  C_2
REMARK    2  A    between atoms: C_7  and  S_24
REMARK    3  A    between atoms: N_11  and  C_12
REMARK    4  A    between atoms: C_12  and  C_13
REMARK    5  A    between atoms: S_24  and  N_27
REMARK                            x       y       z     vdW  Elec       q    Type
REMARK                         _______ _______ _______ _____ _____    ______ ____
ROOT
ATOM      1  C   UNL     1      -4.788   2.555   0.364  0.00  0.00    +0.028 C 
ATOM      2  C   UNL     1      -3.451   2.508  -0.377  0.00  0.00    +0.075 C 
ATOM      3  C   UNL     1      -2.648   1.248   0.021  0.00  0.00    +0.059 C 
ATOM      4  C   UNL     1      -1.217   1.748   0.017  0.00  0.00    -0.023 A 
ATOM      5  C   UNL     1      -0.013   1.076   0.008  0.00  0.00    +0.034 A 
ATOM      6  C   UNL     1       1.176   1.783   0.000  0.00  0.00    +0.105 A 
ATOM      7  C   UNL     1       1.155   3.166   0.008  0.00  0.00    +0.030 A 
ATOM      8  C   UNL     1      -0.046   3.843   0.026  0.00  0.00    +0.025 A 
ATOM      9  C   UNL     1      -1.248   3.137   0.037  0.00  0.00    +0.034 A 
ATOM     10  N   UNL     1      -2.567   3.608   0.065  0.00  0.00    -0.321 N 
ENDROOT
BRANCH   6  11
ATOM     11  S   UNL     1       2.714   0.923  -0.019  0.00  0.00    +0.056 S 
ATOM     12  O   UNL     1       3.682   1.809   0.527  0.00  0.00    -0.153 OA
ATOM     13  O   UNL     1       2.466  -0.365   0.527  0.00  0.00    -0.153 OA
BRANCH  11  14
ATOM     14  N   UNL     1       3.126   0.693  -1.607  0.00  0.00    -0.204 NA
ATOM     15  H   UNL     1       4.085   0.157  -1.662  0.00  0.00    +0.144 HD
ATOM     16  H   UNL     1       3.222   1.669  -2.106  0.00  0.00    +0.144 HD
ENDBRANCH  11  14
ENDBRANCH   6  11
BRANCH  10  17
ATOM     17  C   UNL     1      -2.723   4.788  -0.797  0.00  0.00    +0.161 C 
BRANCH  17  18
ATOM     18  C   UNL     1      -2.608   4.373  -2.241  0.00  0.00    +0.066 A 
ATOM     19  C   UNL     1      -3.696   4.494  -3.083  0.00  0.00    +0.095 A 
ATOM     20  C   UNL     1      -3.565   4.103  -4.420  0.00  0.00    +0.259 A 
ATOM     21  O   UNL     1      -4.509   4.197  -5.189  0.00  0.00    -0.267 OA
ATOM     22  N   UNL     1      -2.379   3.620  -4.847  0.00  0.00    -0.268 N 
ATOM     23  C   UNL     1      -2.235   3.235  -6.145  0.00  0.00    +0.096 A 
ATOM     24  C   UNL     1      -1.057   2.747  -6.595  0.00  0.00    +0.018 A 
ATOM     25  C   UNL     1       0.036   2.632  -5.724  0.00  0.00    +0.005 A 
ATOM     26  C   UNL     1      -0.097   3.015  -4.423  0.00  0.00    +0.047 A 
ATOM     27  C   UNL     1      -1.331   3.520  -3.974  0.00  0.00    +0.141 A 
ATOM     28  N   UNL     1      -1.462   3.898  -2.704  0.00  0.00    -0.232 NA
ENDBRANCH  17  18
ENDBRANCH  10  17
TORSDOF 4
