REMARK  Name = ZINC13368485
REMARK  7 active torsions:
REMARK  status: ('A' for Active; 'I' for Inactive)
REMARK    1  A    between atoms: C_1  and  C_2
REMARK    2  A    between atoms: C_7  and  O_30
REMARK    3  A    between atoms: C_9  and  O_29
REMARK    4  A    between atoms: C_11  and  O_28
REMARK    5  A    between atoms: C_18  and  O_26
REMARK    6  A    between atoms: C_20  and  O_25
REMARK    7  A    between atoms: O_26  and  C_27
REMARK                            x       y       z     vdW  Elec       q    Type
REMARK                         _______ _______ _______ _____ _____    ______ ____
ROOT
ATOM      1  C   UNL     1       0.386  -1.462   2.415  0.00  0.00    +0.052 C 
ATOM      2  C   UNL     1      -0.517  -0.309   2.853  0.00  0.00    +0.177 C 
ATOM      3  C   UNL     1       0.233   1.018   2.762  0.00  0.00    +0.071 C 
ATOM      4  C   UNL     1       1.659   0.827   2.341  0.00  0.00    -0.025 C 
ATOM      5  C   UNL     1       2.115   1.068   1.145  0.00  0.00    +0.002 C 
ATOM      6  C   UNL     1       1.283   1.560  -0.002  0.00  0.00    +0.168 C 
ATOM      7  C   UNL     1       1.171   3.084   0.007  0.00  0.00    +0.175 C 
ATOM      8  C   UNL     1       0.298   3.539  -1.158  0.00  0.00    +0.149 C 
ATOM      9  C   UNL     1      -0.805   4.499  -0.723  0.00  0.00    +0.061 C 
ATOM     10  C   UNL     1      -2.128   3.768  -0.697  0.00  0.00    -0.024 C 
ATOM     11  C   UNL     1      -2.376   2.899   0.260  0.00  0.00    +0.005 C 
ATOM     12  C   UNL     1      -3.631   2.139   0.385  0.00  0.00    -0.004 A 
ATOM     13  C   UNL     1      -4.736   2.434  -0.394  0.00  0.00    +0.054 A 
ATOM     14  C   UNL     1      -5.905   1.697  -0.256  0.00  0.00    +0.124 A 
ATOM     15  C   UNL     1      -5.964   0.654   0.660  0.00  0.00    +0.091 A 
ATOM     16  C   UNL     1      -4.867   0.339   1.441  0.00  0.00    +0.135 A 
ATOM     17  C   UNL     1      -3.679   1.085   1.315  0.00  0.00    +0.108 A 
ATOM     18  C   UNL     1      -2.526   0.768   2.151  0.00  0.00    +0.344 C 
ATOM     19  O   UNL     1      -2.325   1.516   3.102  0.00  0.00    -0.245 OA
ATOM     20  O   UNL     1      -1.692  -0.257   1.995  0.00  0.00    -0.458 OA
ENDROOT
BRANCH  16  21
ATOM     21  O   UNL     1      -4.936  -0.684   2.329  0.00  0.00    -0.506 OA
ATOM     22  H   UNL     1      -4.674  -1.540   1.964  0.00  0.00    +0.292 HD
ENDBRANCH  16  21
BRANCH  14  23
ATOM     23  O   UNL     1      -6.989   1.996  -1.015  0.00  0.00    -0.495 OA
ATOM     24  C   UNL     1      -8.158   1.196  -0.820  0.00  0.00    +0.277 C 
ENDBRANCH  14  23
BRANCH   8  25
ATOM     25  O   UNL     1       1.124   4.194  -2.130  0.00  0.00    -0.389 OA
ATOM     26  H   UNL     1       0.642   4.513  -2.905  0.00  0.00    +0.210 HD
ENDBRANCH   8  25
BRANCH   7  27
ATOM     27  O   UNL     1       0.646   3.532   1.251  0.00  0.00    -0.386 OA
ATOM     28  H   UNL     1       1.184   3.289   2.016  0.00  0.00    +0.210 HD
ENDBRANCH   7  27
BRANCH   6  29
ATOM     29  O   UNL     1      -0.011   0.963   0.007  0.00  0.00    -0.385 OA
ATOM     30  H   UNL     1       0.002  -0.004   0.002  0.00  0.00    +0.210 HD
ENDBRANCH   6  29
TORSDOF 5
