REMARK  Name = ZINC10810163
REMARK  5 active torsions:
REMARK  status: ('A' for Active; 'I' for Inactive)
REMARK    1  A    between atoms: C_7  and  C_11
REMARK    2  A    between atoms: C_14  and  S_19
REMARK    3  A    between atoms: N_15  and  C_16
REMARK    4  A    between atoms: S_19  and  C_20
REMARK    5  A    between atoms: C_21  and  N_26
REMARK                            x       y       z     vdW  Elec       q    Type
REMARK                         _______ _______ _______ _____ _____    ______ ____
ROOT
ATOM      1  C   UNL     1      -1.139   2.383   0.216  0.00  0.00    +0.167 A 
ATOM      2  N   UNL     1      -0.607   3.604  -0.044  0.00  0.00    -0.128 NA
ATOM      3  N   UNL     1       0.662   3.487  -0.222  0.00  0.00    -0.122 NA
ATOM      4  C   UNL     1       1.024   2.194  -0.084  0.00  0.00    +0.198 A 
ATOM      5  N   UNL     1      -0.105   1.477   0.198  0.00  0.00    -0.299 N 
ENDROOT
BRANCH   1  12
ATOM      6  C   UNL     1      -4.889   5.083   0.705  0.00  0.00    +0.001 A 
ATOM      7  C   UNL     1      -6.029   4.332   0.938  0.00  0.00    +0.002 A 
ATOM      8  C   UNL     1      -5.963   2.952   1.000  0.00  0.00    +0.026 A 
ATOM      9  C   UNL     1      -4.746   2.306   0.829  0.00  0.00    +0.047 A 
ATOM     10  C   UNL     1      -3.591   3.070   0.600  0.00  0.00    +0.010 A 
ATOM     11  C   UNL     1      -3.669   4.458   0.532  0.00  0.00    +0.011 A 
ATOM     12  C   UNL     1      -2.488   2.100   0.459  0.00  0.00    +0.044 A 
ATOM     13  C   UNL     1      -3.076   0.824   0.627  0.00  0.00    +0.095 A 
ATOM     14  N   UNL     1      -4.382   0.968   0.840  0.00  0.00    -0.360 N 
ATOM     15  H   UNL     1      -4.998   0.233   0.984  0.00  0.00    +0.165 HD
ENDBRANCH   1  12
BRANCH   5  16
ATOM     16  C   UNL     1      -0.196   0.033   0.428  0.00  0.00    +0.091 C 
ATOM     17  C   UNL     1       1.106  -0.722   0.704  0.00  0.00    +0.027 C 
ATOM     18  C   UNL     1       0.393  -0.891  -0.640  0.00  0.00    +0.027 C 
ENDBRANCH   5  16
BRANCH   4  19
ATOM     19  S   UNL     1       2.609   1.566  -0.234  0.00  0.00    -0.028 S 
BRANCH  19  20
ATOM     20  C   UNL     1       3.493   3.047  -0.593  0.00  0.00    +0.134 A 
ATOM     21  C   UNL     1       4.871   2.998  -0.792  0.00  0.00    +0.158 A 
ATOM     22  C   UNL     1       5.551   4.169  -1.077  0.00  0.00    +0.037 A 
ATOM     23  C   UNL     1       4.831   5.354  -1.145  0.00  0.00    +0.022 A 
ATOM     24  C   UNL     1       3.464   5.330  -0.931  0.00  0.00    +0.112 A 
ATOM     25  N   UNL     1       2.841   4.199  -0.666  0.00  0.00    -0.246 NA
BRANCH  21  26
ATOM     26  N   UNL     1       5.597   1.712  -0.704  0.00  0.00    +0.059 N 
ATOM     27  O   UNL     1       6.899   1.676  -0.894  0.00  0.00    -0.126 OA
ATOM     28  O   UNL     1       4.940   0.602  -0.436  0.00  0.00    -0.126 OA
ENDBRANCH  21  26
ENDBRANCH  19  20
ENDBRANCH   4  19
TORSDOF 5
