REMARK  Name = ZINC60376877
REMARK  6 active torsions:
REMARK  status: ('A' for Active; 'I' for Inactive)
REMARK    1  A    between atoms: C_1  and  C_2
REMARK    2  A    between atoms: N_8  and  C_9
REMARK    3  A    between atoms: C_9  and  C_10
REMARK    4  A    between atoms: C_10  and  N_11
REMARK    5  A    between atoms: C_12  and  C_14
REMARK    6  A    between atoms: N_19  and  C_21
REMARK                            x       y       z     vdW  Elec       q    Type
REMARK                         _______ _______ _______ _____ _____    ______ ____
ROOT
ATOM      1  N   UNL     1       0.089  -7.196  -1.871  0.00  0.00    -0.314 N 
ATOM      2  C   UNL     1       0.107  -8.541  -1.779  0.00  0.00    +0.218 C 
ATOM      3  O   UNL     1       0.120  -9.074  -0.690  0.00  0.00    -0.275 OA
ATOM      4  H   UNL     1       0.079  -6.769  -2.741  0.00  0.00    +0.149 HD
ENDROOT
BRANCH   2   5
ATOM      5  C   UNL     1       0.112  -9.381  -3.030  0.00  0.00    +0.101 C 
ATOM      6  C   UNL     1       1.409  -9.156  -3.842  0.00  0.00    +0.110 C 
ATOM      7  C   UNL     1       2.341 -10.246  -3.362  0.00  0.00    +0.221 C 
ATOM      8  O   UNL     1       3.542 -10.260  -3.536  0.00  0.00    -0.275 OA
ATOM      9  N   UNL     1       1.646 -11.197  -2.714  0.00  0.00    -0.270 N 
ATOM     10  C   UNL     1       0.212 -10.884  -2.686  0.00  0.00    +0.127 C 
BRANCH   9  11
ATOM     11  C   UNL     1       2.216 -12.338  -2.139  0.00  0.00    +0.050 A 
ATOM     12  C   UNL     1       2.644 -12.313  -0.818  0.00  0.00    +0.024 A 
ATOM     13  C   UNL     1       3.206 -13.441  -0.254  0.00  0.00    +0.002 A 
ATOM     14  C   UNL     1       3.344 -14.596  -1.002  0.00  0.00    +0.001 A 
ATOM     15  C   UNL     1       2.920 -14.625  -2.318  0.00  0.00    +0.017 A 
ATOM     16  C   UNL     1       2.351 -13.501  -2.887  0.00  0.00    +0.039 A 
ATOM     17 BR   UNL     1       1.764 -13.544  -4.684  0.00  0.00    -0.048 Br
ENDBRANCH   9  11
ENDBRANCH   2   5
BRANCH   1  18
ATOM     18  C   UNL     1       0.084  -6.379  -0.654  0.00  0.00    +0.123 C 
BRANCH  18  19
ATOM     19  C   UNL     1       0.063  -4.897  -1.035  0.00  0.00    +0.121 C 
BRANCH  19  27
ATOM     20  C   UNL     1      -0.018   1.503   0.010  0.00  0.00    +0.065 C 
ATOM     21  C   UNL     1       0.002  -0.004   0.002  0.00  0.00    +0.032 A 
ATOM     22  C   UNL     1       0.006  -0.691  -1.204  0.00  0.00    +0.026 A 
ATOM     23  C   UNL     1       0.025  -2.076  -1.164  0.00  0.00    +0.047 A 
ATOM     24  C   UNL     1       0.039  -2.693   0.086  0.00  0.00    +0.139 A 
ATOM     25  N   UNL     1       0.034  -1.952   1.184  0.00  0.00    -0.159 NA
ATOM     26  N   UNL     1       0.022  -0.669   1.140  0.00  0.00    -0.280 N 
ATOM     27  N   UNL     1       0.058  -4.081   0.181  0.00  0.00    -0.326 N 
ATOM     28  H   UNL     1       0.068  -4.507   1.052  0.00  0.00    +0.148 HD
ATOM     29  H   UNL     1       0.023  -0.172   1.973  0.00  0.00    +0.189 HD
ENDBRANCH  19  27
ENDBRANCH  18  19
ENDBRANCH   1  18
TORSDOF 5
