REMARK  Name = ZINC39041230
REMARK  7 active torsions:
REMARK  status: ('A' for Active; 'I' for Inactive)
REMARK    1  A    between atoms: C_1  and  C_2
REMARK    2  A    between atoms: C_2  and  C_4
REMARK    3  A    between atoms: C_2  and  S_19
REMARK    4  A    between atoms: N_6  and  C_7
REMARK    5  A    between atoms: C_7  and  C_8
REMARK    6  A    between atoms: C_8  and  C_9
REMARK    7  A    between atoms: S_19  and  C_20
REMARK                            x       y       z     vdW  Elec       q    Type
REMARK                         _______ _______ _______ _____ _____    ______ ____
ROOT
ATOM      1  C   UNL     1       0.707  -0.490  -1.238  0.00  0.00    +0.226 C 
ATOM      2  O   UNL     1       0.066  -0.782  -2.225  0.00  0.00    -0.275 OA
ATOM      3  N   UNL     1       2.051  -0.601  -1.250  0.00  0.00    -0.314 N 
ATOM      4  H   UNL     1       2.563  -0.367  -0.460  0.00  0.00    +0.149 HD
ENDROOT
BRANCH   1   6
ATOM      5  C   UNL     1      -0.019   1.526   0.010  0.00  0.00    +0.029 C 
ATOM      6  C   UNL     1       0.002  -0.004   0.002  0.00  0.00    +0.131 C 
BRANCH   6   7
ATOM      7  S   UNL     1      -1.700  -0.632   0.015  0.00  0.00    -0.122 S 
BRANCH   7   8
ATOM      8  C   UNL     1      -2.354  -0.095   1.619  0.00  0.00    +0.186 C 
ATOM      9  C   UNL     1      -3.764   0.471   1.441  0.00  0.00    +0.206 C 
ATOM     10  C   UNL     1      -4.663  -0.728   1.160  0.00  0.00    +0.161 C 
ATOM     11  N   UNL     1      -5.280  -0.447   0.049  0.00  0.00    -0.219 NA
ATOM     12  C   UNL     1      -4.814   0.681  -0.501  0.00  0.00    +0.218 C 
ATOM     13  N   UNL     1      -3.900   1.288   0.234  0.00  0.00    -0.258 NA
ATOM     14  N   UNL     1      -4.622  -1.830   1.909  0.00  0.00    -0.203 NA
ATOM     15  C   UNL     1      -3.520  -2.041   2.606  0.00  0.00    +0.210 C 
ATOM     16  N   UNL     1      -2.440  -1.243   2.531  0.00  0.00    -0.206 NA
ATOM     17 CL   UNL     1      -3.462  -3.413   3.667  0.00  0.00    -0.044 Cl
ENDBRANCH   7   8
ENDBRANCH   6   7
ENDBRANCH   1   6
BRANCH   3  18
ATOM     18  C   UNL     1       2.736  -1.073  -2.455  0.00  0.00    +0.109 C 
BRANCH  18  19
ATOM     19  C   UNL     1       4.245  -1.105  -2.204  0.00  0.00    +0.056 C 
BRANCH  19  20
ATOM     20  C   UNL     1       4.951  -1.591  -3.443  0.00  0.00    -0.021 A 
ATOM     21  C   UNL     1       5.356  -0.776  -4.591  0.00  0.00    +0.004 A 
ATOM     22  C   UNL     1       5.245   0.579  -4.906  0.00  0.00    +0.030 A 
ATOM     23  C   UNL     1       5.743   1.044  -6.103  0.00  0.00    +0.042 A 
ATOM     24  C   UNL     1       6.353   0.172  -6.995  0.00  0.00    +0.022 A 
ATOM     25  C   UNL     1       6.470  -1.168  -6.699  0.00  0.00    +0.027 A 
ATOM     26  C   UNL     1       5.974  -1.659  -5.496  0.00  0.00    +0.047 A 
ATOM     27  N   UNL     1       5.940  -2.913  -4.927  0.00  0.00    -0.360 N 
ATOM     28  C   UNL     1       5.332  -2.852  -3.703  0.00  0.00    +0.087 A 
ATOM     29 CL   UNL     1       5.608   2.729  -6.498  0.00  0.00    -0.084 Cl
ATOM     30  H   UNL     1       6.297  -3.719  -5.332  0.00  0.00    +0.165 HD
ENDBRANCH  19  20
ENDBRANCH  18  19
ENDBRANCH   3  18
TORSDOF 6
