REMARK  Name = ZINC04859494
REMARK  2 active torsions:
REMARK  status: ('A' for Active; 'I' for Inactive)
REMARK    1  A    between atoms: C_5  and  N_7
REMARK    2  A    between atoms: C_11  and  C_20
REMARK                            x       y       z     vdW  Elec       q    Type
REMARK                         _______ _______ _______ _____ _____    ______ ____
ROOT
ATOM      1  C   UNL     1      -6.344  -0.848  -0.445  0.00  0.00    +0.003 A 
ATOM      2  C   UNL     1      -5.320  -1.596  -0.996  0.00  0.00    +0.006 A 
ATOM      3  C   UNL     1      -4.006  -1.325  -0.678  0.00  0.00    -0.017 A 
ATOM      4  C   UNL     1      -3.689  -0.284   0.199  0.00  0.00    +0.062 A 
ATOM      5  C   UNL     1      -4.734   0.457   0.753  0.00  0.00    +0.147 A 
ATOM      6  C   UNL     1      -6.045   0.177   0.434  0.00  0.00    +0.034 A 
ATOM      7  N   UNL     1      -2.372   0.062   0.558  0.00  0.00    -0.335 N 
ATOM      8  C   UNL     1      -1.293  -0.775   0.010  0.00  0.00    +0.106 C 
ATOM      9  C   UNL     1      -1.686  -1.138  -1.406  0.00  0.00    +0.029 C 
ATOM     10  C   UNL     1      -2.891  -2.117  -1.242  0.00  0.00    +0.049 C 
ATOM     11  C   UNL     1      -2.981  -2.765  -2.573  0.00  0.00    -0.023 C 
ATOM     12  C   UNL     1      -1.771  -2.775  -3.121  0.00  0.00    -0.030 C 
ATOM     13  C   UNL     1      -0.770  -2.086  -2.188  0.00  0.00    +0.033 C 
ATOM     14  H   UNL     1      -2.273   0.173   1.556  0.00  0.00    +0.147 HD
ENDROOT
BRANCH   8  15
ATOM     15  C   UNL     1       0.002  -0.004   0.002  0.00  0.00    -0.009 A 
ATOM     16  C   UNL     1       0.456   0.573  -1.170  0.00  0.00    +0.008 A 
ATOM     17  C   UNL     1       1.643   1.280  -1.178  0.00  0.00    +0.020 A 
ATOM     18  C   UNL     1       2.378   1.411  -0.013  0.00  0.00    +0.042 A 
ATOM     19  C   UNL     1       1.926   0.834   1.159  0.00  0.00    +0.040 A 
ATOM     20  C   UNL     1       0.737   0.126   1.167  0.00  0.00    +0.047 A 
ATOM     21 CL   UNL     1       0.168  -0.599   2.638  0.00  0.00    -0.083 Cl
ATOM     22 CL   UNL     1       3.870   2.299  -0.024  0.00  0.00    -0.083 Cl
ENDBRANCH   8  15
BRANCH   5  23
ATOM     23  N   UNL     1      -4.431   1.557   1.696  0.00  0.00    +0.058 N 
ATOM     24  O   UNL     1      -5.337   2.208   2.184  0.00  0.00    -0.126 OA
ATOM     25  O   UNL     1      -3.275   1.811   1.983  0.00  0.00    -0.126 OA
ENDBRANCH   5  23
TORSDOF 2
