REMARK  Name = ZINC09970397
REMARK  13 active torsions:
REMARK  status: ('A' for Active; 'I' for Inactive)
REMARK    1  A    between atoms: C_1  and  C_2
REMARK    2  A    between atoms: C_11  and  O_13
REMARK    3  A    between atoms: O_13  and  C_14
REMARK    4  A    between atoms: C_14  and  C_29
REMARK    5  A    between atoms: C_15  and  C_27
REMARK    6  A    between atoms: C_15  and  O_28
REMARK    7  A    between atoms: C_16  and  C_25
REMARK    8  A    between atoms: C_16  and  O_26
REMARK    9  A    between atoms: C_17  and  C_23
REMARK   10  A    between atoms: C_17  and  O_24
REMARK   11  A    between atoms: C_18  and  C_20
REMARK   12  A    between atoms: C_18  and  C_21
REMARK   13  A    between atoms: C_21  and  O_22
REMARK                            x       y       z     vdW  Elec       q    Type
REMARK                         _______ _______ _______ _____ _____    ______ ____
ROOT
ATOM      1  C   UNL     1       3.302   1.844  -1.700  0.00  0.00    +0.242 C 
ATOM      2  C   UNL     1       2.010   1.156  -1.284  0.00  0.00    +0.159 C 
ATOM      3  C   UNL     1       1.410   1.682   0.008  0.00  0.00    +0.129 C 
ATOM      4  C   UNL     1       1.465   3.193   0.147  0.00  0.00    +0.125 C 
ATOM      5  C   UNL     1       2.776   3.818  -0.307  0.00  0.00    +0.125 C 
ATOM      6  O   UNL     1       3.311   3.228  -1.464  0.00  0.00    -0.326 OA
ATOM      7  C   UNL     1       3.792   3.813   0.842  0.00  0.00    +0.047 C 
ATOM      8  C   UNL     1       1.238   3.559   1.627  0.00  0.00    +0.047 C 
ATOM      9  C   UNL     1       2.055   1.002   1.221  0.00  0.00    +0.047 C 
ATOM     10  C   UNL     1       0.982   1.296  -2.419  0.00  0.00    +0.051 C 
ATOM     11  C   UNL     1       4.506   1.156  -1.047  0.00  0.00    +0.092 C 
ENDROOT
BRANCH   4  12
ATOM     12  O   UNL     1       0.389   3.778  -0.609  0.00  0.00    -0.383 OA
ATOM     13  H   UNL     1       0.359   4.743  -0.568  0.00  0.00    +0.210 HD
ENDBRANCH   4  12
BRANCH   3  14
ATOM     14  O   UNL     1       0.012   1.300   0.018  0.00  0.00    -0.383 OA
ATOM     15  H   UNL     1      -0.136   0.347  -0.043  0.00  0.00    +0.210 HD
ENDBRANCH   3  14
BRANCH   2  16
ATOM     16  O   UNL     1       2.281  -0.250  -1.120  0.00  0.00    -0.379 OA
ATOM     17  H   UNL     1       2.667  -0.670  -1.901  0.00  0.00    +0.211 HD
ENDBRANCH   2  16
BRANCH   1  18
ATOM     18  O   UNL     1       3.445   1.647  -3.130  0.00  0.00    -0.458 OA
BRANCH  18  29
ATOM     19  C   UNL     1       8.653   5.138  -4.855  0.00  0.00    +0.045 C 
ATOM     20  C   UNL     1       7.715   4.246  -5.627  0.00  0.00    -0.033 A 
ATOM     21  C   UNL     1       7.881   4.046  -6.960  0.00  0.00    +0.096 A 
ATOM     22  C   UNL     1       6.990   3.206  -7.660  0.00  0.00    +0.337 A 
ATOM     23  O   UNL     1       7.150   3.036  -8.855  0.00  0.00    -0.245 OA
ATOM     24  O   UNL     1       5.970   2.591  -7.042  0.00  0.00    -0.422 OA
ATOM     25  C   UNL     1       5.749   2.746  -5.719  0.00  0.00    +0.143 A 
ATOM     26  C   UNL     1       6.600   3.570  -4.959  0.00  0.00    +0.021 A 
ATOM     27  C   UNL     1       6.374   3.736  -3.588  0.00  0.00    +0.015 A 
ATOM     28  C   UNL     1       5.325   3.098  -2.992  0.00  0.00    +0.046 A 
ATOM     29  C   UNL     1       4.482   2.277  -3.738  0.00  0.00    +0.128 A 
ATOM     30  C   UNL     1       4.690   2.103  -5.097  0.00  0.00    +0.092 A 
ENDBRANCH  18  29
ENDBRANCH   1  18
BRANCH   5  31
ATOM     31  C   UNL     1       2.485   5.305  -0.633  0.00  0.00    +0.193 C 
BRANCH  31  32
ATOM     32  O   UNL     1       3.700   5.957  -1.010  0.00  0.00    -0.392 OA
ATOM     33  H   UNL     1       3.592   6.893  -1.228  0.00  0.00    +0.210 HD
ENDBRANCH  31  32
ENDBRANCH   5  31
TORSDOF 7
