REMARK  Name = ZINC40958933
REMARK  6 active torsions:
REMARK  status: ('A' for Active; 'I' for Inactive)
REMARK    1  A    between atoms: C_3  and  C_6
REMARK    2  A    between atoms: C_6  and  C_7
REMARK    3  A    between atoms: N_9  and  C_10
REMARK    4  A    between atoms: N_13  and  C_16
REMARK    5  A    between atoms: C_16  and  C_17
REMARK    6  A    between atoms: C_19  and  C_22
REMARK                            x       y       z     vdW  Elec       q    Type
REMARK                         _______ _______ _______ _____ _____    ______ ____
ROOT
ATOM      1  C   UNL     1       5.970   2.613   3.006  0.00  0.00    +0.069 C 
ATOM      2  C   UNL     1       6.519   1.278   3.516  0.00  0.00    +0.003 C 
ATOM      3  C   UNL     1       7.083   1.468   4.925  0.00  0.00    -0.076 C 
ATOM      4  N   UNL     1       8.163   2.463   4.893  0.00  0.00    +0.386 N 
ATOM      5  C   UNL     1       7.628   3.764   4.474  0.00  0.00    -0.076 C 
ATOM      6  C   UNL     1       7.085   3.662   3.048  0.00  0.00    +0.003 C 
ATOM      7  H   UNL     1       8.873   2.166   4.241  0.00  0.00    -0.081 HD
ENDROOT
BRANCH   1  10
ATOM      8  C   UNL     1       4.247   2.008   1.393  0.00  0.00    +0.218 C 
ATOM      9  O   UNL     1       3.515   1.737   2.320  0.00  0.00    -0.275 OA
ATOM     10  N   UNL     1       5.497   2.455   1.629  0.00  0.00    -0.312 N 
ATOM     11  H   UNL     1       6.083   2.672   0.887  0.00  0.00    +0.149 HD
BRANCH   8  12
ATOM     12  C   UNL     1       3.761   1.845  -0.024  0.00  0.00    +0.138 C 
BRANCH  12  15
ATOM     13  C   UNL     1      -0.016   1.351   0.009  0.00  0.00    +0.008 A 
ATOM     14  C   UNL     1       1.183   2.038   0.002  0.00  0.00    +0.011 A 
ATOM     15  C   UNL     1       2.343   1.336  -0.013  0.00  0.00    -0.001 A 
ATOM     16  S   UNL     1       1.754  -0.349  -0.017  0.00  0.00    -0.101 S 
ATOM     17  C   UNL     1       0.002  -0.004   0.002  0.00  0.00    +0.045 A 
ENDBRANCH  12  15
ENDBRANCH   8  12
ENDBRANCH   1  10
BRANCH   4  18
ATOM     18  C   UNL     1       8.753   2.586   6.233  0.00  0.00    +0.022 C 
BRANCH  18  19
ATOM     19  C   UNL     1       9.939   3.514   6.176  0.00  0.00    +0.211 A 
ATOM     20  N   UNL     1       9.906   4.803   6.356  0.00  0.00    -0.193 NA
ATOM     21  C   UNL     1      11.143   5.317   6.235  0.00  0.00    +0.202 A 
ATOM     22  N   UNL     1      11.978   4.341   5.974  0.00  0.00    -0.056 NA
ATOM     23  O   UNL     1      11.206   3.150   5.937  0.00  0.00    -0.340 OA
BRANCH  21  24
ATOM     24  C   UNL     1      11.503   6.750   6.373  0.00  0.00    +0.026 A 
ATOM     25  C   UNL     1      10.516   7.692   6.658  0.00  0.00    +0.015 A 
ATOM     26  C   UNL     1      10.851   9.024   6.787  0.00  0.00    +0.050 A 
ATOM     27  C   UNL     1      12.169   9.430   6.633  0.00  0.00    +0.166 A 
ATOM     28  C   UNL     1      13.159   8.492   6.347  0.00  0.00    +0.167 A 
ATOM     29  C   UNL     1      12.828   7.154   6.224  0.00  0.00    +0.061 A 
ATOM     30  O   UNL     1      14.357   9.139   6.245  0.00  0.00    -0.453 OA
ATOM     31  C   UNL     1      14.028  10.529   6.065  0.00  0.00    +0.466 C 
ATOM     32  O   UNL     1      12.747  10.664   6.709  0.00  0.00    -0.453 OA
ENDBRANCH  21  24
ENDBRANCH  18  19
ENDBRANCH   4  18
TORSDOF 6
