REMARK  Name = ZINC20732844
REMARK  9 active torsions:
REMARK  status: ('A' for Active; 'I' for Inactive)
REMARK    1  A    between atoms: C_1  and  O_2
REMARK    2  A    between atoms: O_2  and  C_3
REMARK    3  A    between atoms: C_3  and  C_5
REMARK    4  A    between atoms: C_5  and  C_7
REMARK    5  A    between atoms: C_5  and  N_11
REMARK    6  A    between atoms: C_7  and  C_8
REMARK    7  A    between atoms: C_8  and  S_9
REMARK    8  A    between atoms: S_9  and  C_10
REMARK    9  A    between atoms: C_23  and  C_25
REMARK                            x       y       z     vdW  Elec       q    Type
REMARK                         _______ _______ _______ _____ _____    ______ ____
ROOT
ATOM      1  N   UNL     1      -0.733  -2.297  -3.598  0.00  0.00    -0.286 N 
ATOM      2  C   UNL     1       0.582  -2.577  -3.509  0.00  0.00    +0.304 C 
ATOM      3  O   UNL     1       1.173  -2.398  -2.461  0.00  0.00    -0.253 OA
ATOM      4  N   UNL     1       1.243  -3.056  -4.581  0.00  0.00    -0.273 N 
ATOM      5  C   UNL     1       2.648  -3.477  -4.475  0.00  0.00    +0.116 C 
ATOM      6  C   UNL     1       3.515  -2.565  -5.352  0.00  0.00    +0.076 C 
ATOM      7  C   UNL     1       2.844  -2.396  -6.692  0.00  0.00    +0.066 A 
ATOM      8  C   UNL     1       1.541  -2.660  -6.931  0.00  0.00    +0.064 A 
ATOM      9  N   UNL     1       1.307  -2.385  -8.242  0.00  0.00    -0.346 N 
ATOM     10  H   UNL     1       0.462  -2.475  -8.709  0.00  0.00    +0.167 HD
ATOM     11  C   UNL     1       2.478  -1.961  -8.771  0.00  0.00    +0.197 A 
ATOM     12  N   UNL     1       3.391  -1.972  -7.835  0.00  0.00    -0.240 NA
ATOM     13  C   UNL     1       0.574  -3.178  -5.889  0.00  0.00    +0.159 C 
ATOM     14  H   UNL     1      -1.189  -2.374  -4.450  0.00  0.00    +0.151 HD
ENDROOT
BRANCH  13  15
ATOM     15  C   UNL     1       0.242  -4.622  -6.164  0.00  0.00    +0.017 A 
ATOM     16  C   UNL     1       1.025  -5.357  -7.034  0.00  0.00    +0.011 A 
ATOM     17  C   UNL     1       0.723  -6.682  -7.287  0.00  0.00    +0.042 A 
ATOM     18  C   UNL     1      -0.365  -7.275  -6.670  0.00  0.00    +0.161 A 
ATOM     19  C   UNL     1      -1.151  -6.540  -5.797  0.00  0.00    +0.194 A 
ATOM     20  C   UNL     1      -0.843  -5.213  -5.540  0.00  0.00    +0.167 A 
ATOM     21  F   UNL     1      -1.604  -4.496  -4.685  0.00  0.00    -0.202 F 
ATOM     22  F   UNL     1      -2.213  -7.117  -5.194  0.00  0.00    -0.199 F 
ATOM     23  F   UNL     1      -0.660  -8.570  -6.918  0.00  0.00    -0.202 F 
ENDBRANCH  13  15
BRANCH   1  24
ATOM     24  C   UNL     1      -1.474  -1.876  -2.406  0.00  0.00    +0.184 C 
BRANCH  24  25
ATOM     25  C   UNL     1      -1.933  -3.092  -1.643  0.00  0.00    +0.327 C 
ATOM     26  O   UNL     1      -1.667  -4.197  -2.053  0.00  0.00    -0.249 OA
BRANCH  25  28
ATOM     27  C   UNL     1      -3.038  -4.143   0.162  0.00  0.00    +0.280 C 
ATOM     28  O   UNL     1      -2.636  -2.947  -0.509  0.00  0.00    -0.467 OA
ENDBRANCH  25  28
ENDBRANCH  24  25
BRANCH  24  29
ATOM     29  C   UNL     1      -2.691  -1.050  -2.828  0.00  0.00    +0.044 C 
BRANCH  29  30
ATOM     30  C   UNL     1      -2.223   0.246  -3.493  0.00  0.00    +0.071 C 
BRANCH  30  31
ATOM     31  S   UNL     1      -3.665   1.225  -3.993  0.00  0.00    -0.164 S 
ATOM     32  C   UNL     1      -2.947   2.708  -4.753  0.00  0.00    +0.084 C 
ENDBRANCH  30  31
ENDBRANCH  29  30
ENDBRANCH  24  29
ENDBRANCH   1  24
TORSDOF 7
