REMARK  Name = ZINC36581653
REMARK  15 active torsions:
REMARK  status: ('A' for Active; 'I' for Inactive)
REMARK    1  A    between atoms: C_1  and  C_2
REMARK    2  A    between atoms: C_5  and  S_8
REMARK    3  A    between atoms: S_8  and  C_11
REMARK    4  A    between atoms: C_11  and  N_12
REMARK    5  A    between atoms: C_13  and  C_15
REMARK    6  A    between atoms: C_15  and  C_17
REMARK    7  A    between atoms: C_15  and  N_24
REMARK    8  A    between atoms: C_22  and  O_23
REMARK    9  A    between atoms: N_24  and  C_35
REMARK   10  A    between atoms: C_25  and  C_27
REMARK   11  A    between atoms: C_27  and  C_28
REMARK   12  A    between atoms: C_28  and  C_29
REMARK   13  A    between atoms: C_35  and  C_36
REMARK   14  A    between atoms: C_35  and  C_37
REMARK   15  A    between atoms: C_35  and  C_38
REMARK                            x       y       z     vdW  Elec       q    Type
REMARK                         _______ _______ _______ _____ _____    ______ ____
ROOT
ATOM      1  C   UNL     1       2.682  -4.619   3.418  0.00  0.00    +0.196 C 
ENDROOT
BRANCH   1   2
ATOM      2  C   UNL     1       3.025  -4.711   1.953  0.00  0.00    +0.023 A 
ATOM      3  C   UNL     1       4.277  -4.329   1.511  0.00  0.00    +0.009 A 
ATOM      4  C   UNL     1       4.592  -4.412   0.168  0.00  0.00    +0.001 A 
ATOM      5  C   UNL     1       3.656  -4.880  -0.737  0.00  0.00    +0.004 A 
ATOM      6  C   UNL     1       2.403  -5.263  -0.299  0.00  0.00    +0.046 A 
ATOM      7  C   UNL     1       2.086  -5.185   1.049  0.00  0.00    +0.122 A 
BRANCH   7   8
ATOM      8  O   UNL     1       0.856  -5.567   1.482  0.00  0.00    -0.506 OA
ATOM      9  H   UNL     1       0.183  -4.877   1.413  0.00  0.00    +0.292 HD
ENDBRANCH   7   8
ENDBRANCH   1   2
BRANCH   1  11
ATOM     10  N   UNL     1       3.668  -2.409   3.932  0.00  0.00    -0.294 N 
ATOM     11  C   UNL     1       3.691  -3.744   4.116  0.00  0.00    +0.239 C 
ATOM     12  O   UNL     1       4.525  -4.241   4.843  0.00  0.00    -0.273 OA
ATOM     13  H   UNL     1       3.052  -2.018   3.293  0.00  0.00    +0.150 HD
BRANCH  10  14
ATOM     14  C   UNL     1       4.574  -1.548   4.697  0.00  0.00    +0.278 C 
BRANCH  14  15
ATOM     15  S   UNL     1       6.067  -1.221   3.720  0.00  0.00    +0.013 S 
ATOM     16  O   UNL     1       6.566  -2.433   3.169  0.00  0.00    -0.168 OA
ATOM     17  O   UNL     1       6.928  -0.336   4.423  0.00  0.00    -0.168 OA
BRANCH  15  22
ATOM     18  C   UNL     1       4.146   1.955  -1.037  0.00  0.00    +0.044 C 
ATOM     19  C   UNL     1       4.626   1.161   0.151  0.00  0.00    -0.050 A 
ATOM     20  C   UNL     1       5.020   1.814   1.304  0.00  0.00    +0.005 A 
ATOM     21  C   UNL     1       5.460   1.086   2.394  0.00  0.00    +0.027 A 
ATOM     22  C   UNL     1       5.505  -0.294   2.331  0.00  0.00    +0.090 A 
ATOM     23  C   UNL     1       5.110  -0.946   1.178  0.00  0.00    +0.027 A 
ATOM     24  C   UNL     1       4.666  -0.219   0.090  0.00  0.00    +0.005 A 
ENDBRANCH  15  22
ENDBRANCH  14  15
ENDBRANCH  10  14
ENDBRANCH   1  11
BRANCH   1  25
ATOM     25  N   UNL     1       2.704  -5.958   4.010  0.00  0.00    -0.281 N 
ATOM     26  C   UNL     1       3.791  -6.742   3.864  0.00  0.00    +0.217 C 
ATOM     27  O   UNL     1       4.786  -6.304   3.327  0.00  0.00    -0.276 OA
BRANCH  25  28
ATOM     28  C   UNL     1       1.545  -6.447   4.761  0.00  0.00    +0.030 C 
ATOM     29  C   UNL     1       0.376  -5.476   4.581  0.00  0.00    +0.031 C 
ATOM     30  C   UNL     1       1.145  -7.829   4.239  0.00  0.00    +0.031 C 
ATOM     31  C   UNL     1       1.903  -6.545   6.245  0.00  0.00    +0.031 C 
ENDBRANCH  25  28
BRANCH  26  32
ATOM     32  C   UNL     1       3.770  -8.161   4.370  0.00  0.00    +0.096 C 
BRANCH  32  33
ATOM     33  C   UNL     1       5.160  -8.781   4.207  0.00  0.00    +0.013 C 
BRANCH  33  34
ATOM     34  C   UNL     1       5.138 -10.222   4.720  0.00  0.00    -0.011 C 
ATOM     35  C   UNL     1       4.868 -10.224   6.226  0.00  0.00    +0.003 C 
ATOM     36  C   UNL     1       4.847 -11.665   6.739  0.00  0.00    +0.000 C 
ATOM     37  C   UNL     1       6.199 -12.325   6.463  0.00  0.00    +0.000 C 
ATOM     38  C   UNL     1       6.470 -12.323   4.957  0.00  0.00    +0.000 C 
ATOM     39  C   UNL     1       6.491 -10.882   4.444  0.00  0.00    +0.003 C 
ENDBRANCH  33  34
ENDBRANCH  32  33
ENDBRANCH  26  32
ENDBRANCH   1  25
TORSDOF 11
