REMARK  Name = ZINC22528191
REMARK  11 active torsions:
REMARK  status: ('A' for Active; 'I' for Inactive)
REMARK    1  A    between atoms: C_1  and  C_2
REMARK    2  A    between atoms: C_3  and  C_13
REMARK    3  A    between atoms: C_4  and  C_12
REMARK    4  A    between atoms: C_9  and  C_10
REMARK    5  A    between atoms: C_13  and  C_14
REMARK    6  A    between atoms: C_14  and  C_15
REMARK    7  A    between atoms: C_27  and  O_29
REMARK    8  A    between atoms: O_29  and  C_30
REMARK    9  A    between atoms: C_30  and  C_31
REMARK   10  A    between atoms: C_30  and  C_32
REMARK   11  A    between atoms: C_30  and  C_33
REMARK                            x       y       z     vdW  Elec       q    Type
REMARK                         _______ _______ _______ _____ _____    ______ ____
ROOT
ATOM      1  C   UNL     1       4.171   5.318   1.429  0.00  0.00    +0.219 C 
ATOM      2  O   UNL     1       4.625   5.725   0.380  0.00  0.00    -0.275 OA
ATOM      3  N   UNL     1       4.806   5.586   2.587  0.00  0.00    -0.265 N 
ATOM      4  C   UNL     1       5.980   6.330   2.580  0.00  0.00    +0.165 A 
ATOM      5  N   UNL     1       6.734   6.696   3.596  0.00  0.00    -0.229 NA
ATOM      6  C   UNL     1       7.845   7.412   3.435  0.00  0.00    +0.057 A 
ATOM      7  C   UNL     1       8.151   7.751   2.155  0.00  0.00    +0.032 A 
ATOM      8  S   UNL     1       6.828   7.021   1.229  0.00  0.00    -0.055 S 
ATOM      9  C   UNL     1       9.323   8.542   1.679  0.00  0.00    +0.155 C 
ATOM     10  N   UNL     1       9.989   9.093   2.878  0.00  0.00    -0.262 N 
ATOM     11  C   UNL     1      10.125   8.206   4.043  0.00  0.00    +0.117 C 
ATOM     12  C   UNL     1       8.740   7.849   4.588  0.00  0.00    +0.075 C 
ATOM     13  C   UNL     1      10.453  10.358   2.903  0.00  0.00    +0.404 C 
ATOM     14  O   UNL     1      10.996  10.786   3.901  0.00  0.00    -0.226 OA
ATOM     15  H   UNL     1       4.394   5.217   3.538  0.00  0.00    +0.157 HD
ENDROOT
BRANCH   1  16
ATOM     16  C   UNL     1       2.898   4.512   1.436  0.00  0.00    +0.101 C 
BRANCH  16  17
ATOM     17  C   UNL     1       2.387   4.353   0.003  0.00  0.00    +0.046 C 
BRANCH  17  20
ATOM     18  C   UNL     1       2.501   1.442  -0.013  0.00  0.00    +0.045 C 
ATOM     19  C   UNL     1       1.172   2.153   0.002  0.00  0.00    -0.023 A 
ATOM     20  C   UNL     1       1.113   3.547   0.010  0.00  0.00    -0.024 A 
ATOM     21  C   UNL     1      -0.087   4.178   0.024  0.00  0.00    +0.019 A 
ATOM     22  N   UNL     1      -1.248   3.480   0.032  0.00  0.00    -0.325 N 
ATOM     23  H   UNL     1      -2.211   4.013   0.048  0.00  0.00    +0.169 HD
ATOM     24  C   UNL     1      -1.249   2.133   0.019  0.00  0.00    +0.267 A 
ATOM     25  O   UNL     1      -2.304   1.522   0.021  0.00  0.00    -0.266 OA
ATOM     26  C   UNL     1      -0.017   1.428   0.010  0.00  0.00    +0.119 A 
ATOM     27  C   UNL     1      -0.131   5.685   0.033  0.00  0.00    +0.063 C 
BRANCH  26  28
ATOM     28  C   UNL     1       0.002  -0.004   0.002  0.00  0.00    +0.105 C 
ATOM     29  N   UNL     1       0.018  -1.140  -0.004  0.00  0.00    -0.191 NA
ENDBRANCH  26  28
ENDBRANCH  17  20
ENDBRANCH  16  17
ENDBRANCH   1  16
BRANCH  13  30
ATOM     30  O   UNL     1      10.314  11.147   1.821  0.00  0.00    -0.445 OA
BRANCH  30  31
ATOM     31  C   UNL     1      10.837  12.498   1.919  0.00  0.00    +0.107 C 
ATOM     32  C   UNL     1      12.340  12.443   2.197  0.00  0.00    +0.055 C 
ATOM     33  C   UNL     1      10.589  13.237   0.603  0.00  0.00    +0.055 C 
ATOM     34  C   UNL     1      10.133  13.236   3.059  0.00  0.00    +0.055 C 
ENDBRANCH  30  31
ENDBRANCH  13  30
TORSDOF 6
