REMARK  Name = ZINC66930089
REMARK  6 active torsions:
REMARK  status: ('A' for Active; 'I' for Inactive)
REMARK    1  A    between atoms: C_10  and  C_11
REMARK    2  A    between atoms: C_10  and  O_30
REMARK    3  A    between atoms: C_11  and  N_12
REMARK    4  A    between atoms: C_13  and  C_15
REMARK    5  A    between atoms: C_19  and  N_21
REMARK    6  A    between atoms: C_22  and  C_24
REMARK                            x       y       z     vdW  Elec       q    Type
REMARK                         _______ _______ _______ _____ _____    ______ ____
ROOT
ATOM      1  N   UNL     1       4.775   1.462  -0.618  0.00  0.00    -0.308 N 
ATOM      2  C   UNL     1       5.453   2.332  -1.391  0.00  0.00    +0.244 C 
ATOM      3  O   UNL     1       6.023   1.940  -2.391  0.00  0.00    -0.270 OA
ATOM      4  H   UNL     1       4.320   1.774   0.181  0.00  0.00    +0.149 HD
ENDROOT
BRANCH   2   5
ATOM      5  C   UNL     1       5.505   3.763  -1.023  0.00  0.00    +0.038 A 
ATOM      6  C   UNL     1       4.857   4.214   0.128  0.00  0.00    +0.013 A 
ATOM      7  C   UNL     1       4.907   5.550   0.469  0.00  0.00    +0.003 A 
ATOM      8  C   UNL     1       5.597   6.446  -0.326  0.00  0.00    +0.023 A 
ATOM      9  C   UNL     1       6.246   6.007  -1.473  0.00  0.00    +0.034 A 
ATOM     10  C   UNL     1       6.207   4.666  -1.822  0.00  0.00    +0.036 A 
BRANCH   9  11
ATOM     11  N   UNL     1       6.944   6.918  -2.275  0.00  0.00    -0.283 N 
ATOM     12  C   UNL     1       6.963   6.761  -3.613  0.00  0.00    +0.246 C 
ATOM     13  O   UNL     1       6.447   5.786  -4.117  0.00  0.00    -0.273 OA
ATOM     14  H   UNL     1       7.413   7.662  -1.867  0.00  0.00    +0.155 HD
BRANCH  12  15
ATOM     15  C   UNL     1       7.626   7.798  -4.484  0.00  0.00    +0.204 C 
ATOM     16  C   UNL     1       9.154   7.818  -4.227  0.00  0.00    +0.043 C 
ATOM     17  C   UNL     1       9.671   8.396  -5.573  0.00  0.00    +0.031 C 
ATOM     18  C   UNL     1       8.669   7.807  -6.589  0.00  0.00    +0.161 C 
ATOM     19  O   UNL     1       7.481   7.451  -5.870  0.00  0.00    -0.367 OA
ENDBRANCH  12  15
ENDBRANCH   9  11
ENDBRANCH   2   5
BRANCH   1  20
ATOM     20  C   UNL     1       4.723   0.043  -0.982  0.00  0.00    +0.144 C 
BRANCH  20  30
ATOM     21  C   UNL     1       3.641  -4.801  -1.214  0.00  0.00    +0.000 A 
ATOM     22  C   UNL     1       3.616  -3.788  -2.155  0.00  0.00    +0.000 A 
ATOM     23  C   UNL     1       3.669  -2.471  -1.745  0.00  0.00    +0.007 A 
ATOM     24  C   UNL     1       3.749  -2.155  -0.395  0.00  0.00    -0.011 A 
ATOM     25  C   UNL     1       3.778  -3.164   0.541  0.00  0.00    -0.041 A 
ATOM     26  C   UNL     1       3.721  -4.489   0.127  0.00  0.00    +0.004 A 
ATOM     27  C   UNL     1       3.880  -2.896   2.020  0.00  0.00    +0.035 C 
ATOM     28  C   UNL     1       3.504  -1.449   2.330  0.00  0.00    +0.008 C 
ATOM     29  C   UNL     1       4.314  -0.529   1.409  0.00  0.00    +0.041 C 
ATOM     30  C   UNL     1       3.796  -0.698  -0.017  0.00  0.00    +0.107 C 
BRANCH  30  31
ATOM     31  O   UNL     1       2.481  -0.144  -0.109  0.00  0.00    -0.382 OA
ATOM     32  H   UNL     1       2.092  -0.200  -0.993  0.00  0.00    +0.211 HD
ENDBRANCH  30  31
ENDBRANCH  20  30
ENDBRANCH   1  20
TORSDOF 6
