REMARK  Name = ZINC64717648
REMARK  7 active torsions:
REMARK  status: ('A' for Active; 'I' for Inactive)
REMARK    1  A    between atoms: C_6  and  C_11
REMARK    2  A    between atoms: C_11  and  C_12
REMARK    3  A    between atoms: C_12  and  N_13
REMARK    4  A    between atoms: C_16  and  C_21
REMARK    5  A    between atoms: C_21  and  C_22
REMARK    6  A    between atoms: C_22  and  C_23
REMARK    7  A    between atoms: N_25  and  C_26
REMARK                            x       y       z     vdW  Elec       q    Type
REMARK                         _______ _______ _______ _____ _____    ______ ____
ROOT
ATOM      1  N   UNL     1       5.001  -3.593  -1.505  0.00  0.00    -0.224 N 
ATOM      2  C   UNL     1       6.302  -3.933  -1.418  0.00  0.00    +0.243 C 
ATOM      3  O   UNL     1       7.249  -3.183  -1.317  0.00  0.00    -0.273 OA
ATOM      4  C   UNL     1       6.335  -5.447  -1.470  0.00  0.00    +0.161 C 
ATOM      5  N   UNL     1       4.915  -5.820  -1.592  0.00  0.00    -0.288 N 
ATOM      6  C   UNL     1       4.215  -4.672  -1.599  0.00  0.00    +0.309 C 
ATOM      7  O   UNL     1       3.003  -4.619  -1.685  0.00  0.00    -0.252 OA
ATOM      8  H   UNL     1       4.554  -6.719  -1.653  0.00  0.00    +0.151 HD
ENDROOT
BRANCH   1   9
ATOM      9  C   UNL     1       4.508  -2.214  -1.492  0.00  0.00    +0.122 C 
BRANCH   9  10
ATOM     10  C   UNL     1       4.232  -1.784  -0.050  0.00  0.00    +0.052 C 
BRANCH  10  16
ATOM     11  C   UNL     1      -0.017   1.400   0.010  0.00  0.00    +0.040 A 
ATOM     12  C   UNL     1       1.109   2.144   0.003  0.00  0.00    +0.029 A 
ATOM     13  C   UNL     1       2.386   1.516  -0.013  0.00  0.00    +0.043 A 
ATOM     14  N   UNL     1       3.600   2.010  -0.023  0.00  0.00    -0.380 N 
ATOM     15  C   UNL     1       4.557   0.898  -0.038  0.00  0.00    +0.144 C 
ATOM     16  C   UNL     1       3.725  -0.365  -0.037  0.00  0.00    -0.040 C 
ATOM     17  C   UNL     1       2.434   0.037  -0.021  0.00  0.00    +0.002 A 
ATOM     18  C   UNL     1       1.164  -0.699  -0.013  0.00  0.00    +0.048 A 
ATOM     19  C   UNL     1       0.002  -0.004   0.002  0.00  0.00    +0.124 A 
ATOM     20  F   UNL     1      -1.169  -0.678   0.010  0.00  0.00    -0.205 F 
ATOM     21  H   UNL     1       3.828   2.953  -0.020  0.00  0.00    +0.160 HD
ENDBRANCH  10  16
ENDBRANCH   9  10
ENDBRANCH   1   9
BRANCH   4  22
ATOM     22  C   UNL     1       7.127  -5.927  -2.687  0.00  0.00    +0.041 C 
BRANCH  22  23
ATOM     23  C   UNL     1       7.250  -7.452  -2.648  0.00  0.00    +0.098 C 
BRANCH  23  24
ATOM     24  C   UNL     1       8.031  -7.924  -3.847  0.00  0.00    +0.213 C 
ATOM     25  O   UNL     1       8.448  -7.121  -4.654  0.00  0.00    -0.276 OA
ATOM     26  N   UNL     1       8.265  -9.240  -4.023  0.00  0.00    -0.312 N 
ATOM     27  H   UNL     1       7.931  -9.882  -3.377  0.00  0.00    +0.149 HD
BRANCH  26  28
ATOM     28  C   UNL     1       9.024  -9.699  -5.189  0.00  0.00    +0.073 C 
ATOM     29  C   UNL     1       8.080  -9.858  -6.382  0.00  0.00    +0.022 C 
ATOM     30  C   UNL     1       8.872 -10.338  -7.599  0.00  0.00    +0.002 C 
ATOM     31  C   UNL     1       9.526 -11.684  -7.284  0.00  0.00    +0.000 C 
ATOM     32  C   UNL     1      10.471 -11.526  -6.091  0.00  0.00    +0.002 C 
ATOM     33  C   UNL     1       9.678 -11.046  -4.873  0.00  0.00    +0.022 C 
ENDBRANCH  26  28
ENDBRANCH  23  24
ENDBRANCH  22  23
ENDBRANCH   4  22
TORSDOF 7
