REMARK  Name = ZINC36956093
REMARK  3 active torsions:
REMARK  status: ('A' for Active; 'I' for Inactive)
REMARK    1  A    between atoms: C_1  and  C_2
REMARK    2  A    between atoms: C_7  and  N_11
REMARK    3  A    between atoms: N_11  and  C_12
REMARK                            x       y       z     vdW  Elec       q    Type
REMARK                         _______ _______ _______ _____ _____    ______ ____
ROOT
ATOM      1  N   UNL     1       0.085  -6.279   0.011  0.00  0.00    -0.337 N 
ATOM      2  H   UNL     1       0.092  -6.582   0.933  0.00  0.00    +0.147 HD
ENDROOT
BRANCH   1   9
ATOM      3  C   UNL     1      -0.018   1.503   0.010  0.00  0.00    +0.073 C 
ATOM      4  C   UNL     1       0.002  -0.004   0.002  0.00  0.00    +0.076 A 
ATOM      5  N   UNL     1       0.009  -0.817  -1.019  0.00  0.00    -0.244 NA
ATOM      6  C   UNL     1       0.028  -2.161  -0.883  0.00  0.00    +0.079 A 
ATOM      7  C   UNL     1       0.037  -3.142  -1.902  0.00  0.00    +0.031 A 
ATOM      8  C   UNL     1       0.055  -4.466  -1.596  0.00  0.00    +0.025 A 
ATOM      9  C   UNL     1       0.066  -4.911  -0.275  0.00  0.00    +0.029 A 
ATOM     10  C   UNL     1       0.058  -3.978   0.753  0.00  0.00    +0.040 A 
ATOM     11  C   UNL     1       0.040  -2.639   0.447  0.00  0.00    +0.041 A 
ATOM     12  S   UNL     1       0.031  -1.132   1.388  0.00  0.00    -0.072 S 
ENDBRANCH   1   9
BRANCH   1  13
ATOM     13  C   UNL     1       0.092  -7.256  -1.081  0.00  0.00    +0.107 C 
ATOM     14  C   UNL     1      -0.501  -8.578  -0.587  0.00  0.00    +0.068 C 
ATOM     15  C   UNL     1      -0.214  -9.658  -1.637  0.00  0.00    +0.231 C 
ATOM     16  O   UNL     1       1.199  -9.849  -1.712  0.00  0.00    -0.492 OA
ATOM     17  C   UNL     1       1.983  -8.746  -1.836  0.00  0.00    +0.125 A 
ATOM     18  C   UNL     1       1.509  -7.479  -1.545  0.00  0.00    +0.014 A 
ATOM     19  C   UNL     1       2.346  -6.384  -1.680  0.00  0.00    +0.009 A 
ATOM     20  C   UNL     1       3.650  -6.551  -2.107  0.00  0.00    +0.001 A 
ATOM     21  C   UNL     1       4.124  -7.816  -2.400  0.00  0.00    +0.004 A 
ATOM     22  C   UNL     1       3.295  -8.909  -2.267  0.00  0.00    +0.046 A 
ENDBRANCH   1  13
TORSDOF 2
