REMARK  Name = ZINC08473753
REMARK  4 active torsions:
REMARK  status: ('A' for Active; 'I' for Inactive)
REMARK    1  A    between atoms: C_1  and  O_2
REMARK    2  A    between atoms: O_2  and  C_3
REMARK    3  A    between atoms: C_6  and  C_9
REMARK    4  A    between atoms: N_15  and  C_16
REMARK                            x       y       z     vdW  Elec       q    Type
REMARK                         _______ _______ _______ _____ _____    ______ ____
ROOT
ATOM      1  C   UNL     1      -0.363   1.578   1.192  0.00  0.00    +0.028 C 
ATOM      2  C   UNL     1      -1.603   2.120   1.097  0.00  0.00    +0.078 C 
ATOM      3  C   UNL     1      -2.027   3.524   1.264  0.00  0.00    +0.256 C 
ATOM      4  O   UNL     1      -1.227   4.403   1.525  0.00  0.00    -0.269 OA
ATOM      5  N   UNL     1      -3.315   3.783   1.115  0.00  0.00    -0.260 N 
ATOM      6  C   UNL     1      -4.205   2.773   0.818  0.00  0.00    +0.166 C 
ATOM      7  N   UNL     1      -5.504   2.856   0.639  0.00  0.00    -0.223 NA
ATOM      8  S   UNL     1      -3.162   1.327   0.729  0.00  0.00    -0.049 S 
ATOM      9  H   UNL     1      -3.685   4.813   1.228  0.00  0.00    +0.157 HD
ENDROOT
BRANCH   7  10
ATOM     10  C   UNL     1      -6.118   4.080   0.632  0.00  0.00    +0.102 A 
ATOM     11  C   UNL     1      -5.627   5.106  -0.176  0.00  0.00    +0.031 A 
ATOM     12  C   UNL     1      -6.253   6.336  -0.182  0.00  0.00    +0.002 A 
ATOM     13  C   UNL     1      -7.359   6.557   0.620  0.00  0.00    +0.003 A 
ATOM     14  C   UNL     1      -7.849   5.547   1.428  0.00  0.00    +0.040 A 
ATOM     15  C   UNL     1      -7.236   4.310   1.440  0.00  0.00    +0.149 A 
ATOM     16  F   UNL     1      -7.715   3.324   2.231  0.00  0.00    -0.203 F 
ENDBRANCH   7  10
BRANCH   1  20
ATOM     17  C   UNL     1       3.032   4.097   1.530  0.00  0.00    +0.120 A 
ATOM     18  C   UNL     1       2.952   2.936   2.291  0.00  0.00    +0.046 A 
ATOM     19  C   UNL     1       1.853   2.115   2.185  0.00  0.00    +0.011 A 
ATOM     20  C   UNL     1       0.813   2.450   1.310  0.00  0.00    -0.024 A 
ATOM     21  C   UNL     1       0.900   3.618   0.542  0.00  0.00    +0.011 A 
ATOM     22  C   UNL     1       2.002   4.436   0.660  0.00  0.00    +0.046 A 
BRANCH  17  24
ATOM     23  C   UNL     1       4.136   6.081   0.828  0.00  0.00    +0.277 C 
ATOM     24  O   UNL     1       4.119   4.904   1.638  0.00  0.00    -0.495 OA
ENDBRANCH  17  24
ENDBRANCH   1  20
TORSDOF 3
