REMARK  Name = ZINC15431246
REMARK  5 active torsions:
REMARK  status: ('A' for Active; 'I' for Inactive)
REMARK    1  A    between atoms: C_1  and  C_2
REMARK    2  A    between atoms: C_10  and  C_11
REMARK    3  A    between atoms: N_13  and  N_14
REMARK    4  A    between atoms: C_15  and  C_17
REMARK    5  A    between atoms: C_17  and  C_18
REMARK                            x       y       z     vdW  Elec       q    Type
REMARK                         _______ _______ _______ _____ _____    ______ ____
ROOT
ATOM      1  N   UNL     1       2.366   1.218  -0.014  0.00  0.00    -0.234 N 
ATOM      2  C   UNL     1       3.524   1.908  -0.021  0.00  0.00    +0.230 C 
ATOM      3  O   UNL     1       3.508   3.120  -0.015  0.00  0.00    -0.274 OA
ATOM      4  H   UNL     1       2.379   0.248  -0.019  0.00  0.00    +0.173 HD
ENDROOT
BRANCH   1   7
ATOM      5  C   UNL     1      -0.014   1.212   0.009  0.00  0.00    +0.296 C 
ATOM      6  O   UNL     1       0.002  -0.004   0.002  0.00  0.00    -0.265 OA
ATOM      7  N   UNL     1       1.143   1.902   0.001  0.00  0.00    -0.228 N 
ATOM      8  H   UNL     1       1.130   2.872   0.007  0.00  0.00    +0.173 HD
BRANCH   5  18
ATOM      9  C   UNL     1      -2.817  -0.136   0.003  0.00  0.00    +0.048 C 
ATOM     10  C   UNL     1      -2.521   1.342   0.016  0.00  0.00    +0.008 A 
ATOM     11  C   UNL     1      -3.495   2.433   0.031  0.00  0.00    +0.024 A 
ATOM     12  C   UNL     1      -4.891   2.494   0.037  0.00  0.00    +0.012 A 
ATOM     13  C   UNL     1      -5.516   3.708   0.046  0.00  0.00    +0.001 A 
ATOM     14  C   UNL     1      -4.774   4.881   0.049  0.00  0.00    +0.004 A 
ATOM     15  C   UNL     1      -3.397   4.844   0.043  0.00  0.00    +0.047 A 
ATOM     16  C   UNL     1      -2.738   3.620   0.034  0.00  0.00    +0.136 A 
ATOM     17  O   UNL     1      -1.436   3.272   0.026  0.00  0.00    -0.450 OA
ATOM     18  C   UNL     1      -1.297   1.930   0.019  0.00  0.00    +0.195 A 
ENDBRANCH   5  18
ENDBRANCH   1   7
BRANCH   2  19
ATOM     19  C   UNL     1       4.839   1.172  -0.038  0.00  0.00    +0.104 C 
BRANCH  19  20
ATOM     20  C   UNL     1       5.988   2.182  -0.043  0.00  0.00    -0.020 C 
ATOM     21  C   UNL     1       5.883   3.067  -1.287  0.00  0.00    +0.011 C 
ATOM     22  C   UNL     1       7.033   4.077  -1.292  0.00  0.00    -0.010 C 
ATOM     23  C   UNL     1       8.368   3.330  -1.309  0.00  0.00    +0.007 C 
ATOM     24  C   UNL     1       8.473   2.445  -0.066  0.00  0.00    -0.010 C 
ATOM     25  C   UNL     1       7.324   1.435  -0.060  0.00  0.00    +0.011 C 
ATOM     26  C   UNL     1       8.392   3.317   1.189  0.00  0.00    +0.007 C 
ATOM     27  C   UNL     1       7.057   4.064   1.206  0.00  0.00    -0.010 C 
ATOM     28  C   UNL     1       6.952   4.949  -0.038  0.00  0.00    +0.007 C 
ATOM     29  C   UNL     1       5.907   3.054   1.211  0.00  0.00    +0.011 C 
ENDBRANCH  19  20
ENDBRANCH   2  19
TORSDOF 4
