REMARK  Name = ZINC09459341
REMARK  6 active torsions:
REMARK  status: ('A' for Active; 'I' for Inactive)
REMARK    1  A    between atoms: C_9  and  C_22
REMARK    2  A    between atoms: C_10  and  N_21
REMARK    3  A    between atoms: N_11  and  N_14
REMARK    4  A    between atoms: C_15  and  C_16
REMARK    5  A    between atoms: N_24  and  C_25
REMARK    6  A    between atoms: C_25  and  C_26
REMARK                            x       y       z     vdW  Elec       q    Type
REMARK                         _______ _______ _______ _____ _____    ______ ____
ROOT
ATOM      1  C   UNL     1      -1.246   3.389   0.031  0.00  0.00    +0.002 A 
ATOM      2  C   UNL     1      -0.054   4.110   0.024  0.00  0.00    +0.002 A 
ATOM      3  C   UNL     1       1.149   3.474   0.009  0.00  0.00    +0.030 A 
ATOM      4  C   UNL     1       1.197   2.067   0.002  0.00  0.00    +0.092 A 
ATOM      5  C   UNL     1      -0.016   1.334   0.009  0.00  0.00    +0.090 A 
ATOM      6  C   UNL     1      -1.240   2.028   0.019  0.00  0.00    +0.030 A 
ATOM      7  N   UNL     1       0.002  -0.004   0.002  0.00  0.00    -0.241 NA
ATOM      8  C   UNL     1       1.157  -0.638  -0.012  0.00  0.00    +0.124 A 
ATOM      9  C   UNL     1       1.555  -2.056  -0.023  0.00  0.00    +0.105 A 
ATOM     10  C   UNL     1       2.946  -2.076  -0.036  0.00  0.00    +0.134 A 
ATOM     11  N   UNL     1       3.440  -0.806  -0.034  0.00  0.00    -0.198 N 
ATOM     12  C   UNL     1       2.413   0.118  -0.019  0.00  0.00    +0.183 A 
ATOM     13  N   UNL     1       2.376   1.433  -0.012  0.00  0.00    -0.224 NA
ENDROOT
BRANCH   9  14
ATOM     14  C   UNL     1       0.690  -3.180  -0.021  0.00  0.00    +0.250 C 
ATOM     15  O   UNL     1       0.309  -3.657  -1.075  0.00  0.00    -0.270 OA
ATOM     16  N   UNL     1       0.290  -3.720   1.147  0.00  0.00    -0.307 N 
ATOM     17  H   UNL     1       0.594  -3.341   1.986  0.00  0.00    +0.149 HD
BRANCH  16  18
ATOM     18  C   UNL     1      -0.603  -4.881   1.148  0.00  0.00    +0.147 C 
BRANCH  18  19
ATOM     19  C   UNL     1      -0.896  -5.287   2.570  0.00  0.00    +0.007 A 
ATOM     20  C   UNL     1      -1.894  -4.871   3.388  0.00  0.00    +0.013 A 
ATOM     21  C   UNL     1      -1.971  -5.388   4.668  0.00  0.00    +0.008 A 
ATOM     22  C   UNL     1      -1.041  -6.288   5.070  0.00  0.00    +0.045 A 
ATOM     23  S   UNL     1      -0.016  -6.435   3.616  0.00  0.00    -0.100 S 
ENDBRANCH  18  19
ENDBRANCH  16  18
ENDBRANCH   9  14
BRANCH  10  24
ATOM     24  N   UNL     1       3.713  -3.213  -0.049  0.00  0.00    -0.342 N 
ATOM     25  H   UNL     1       3.287  -4.085  -0.049  0.00  0.00    +0.144 HD
ATOM     26  H   UNL     1       4.680  -3.146  -0.057  0.00  0.00    +0.144 HD
ENDBRANCH  10  24
BRANCH  11  27
ATOM     27  N   UNL     1       4.803  -0.481  -0.044  0.00  0.00    -0.171 NA
ATOM     28  C   UNL     1       5.425  -0.324  -1.175  0.00  0.00    +0.148 C 
BRANCH  28  29
ATOM     29  C   UNL     1       6.852   0.016  -1.186  0.00  0.00    +0.032 A 
ATOM     30  C   UNL     1       7.691   0.224  -2.267  0.00  0.00    +0.017 A 
ATOM     31  C   UNL     1       9.008   0.536  -2.021  0.00  0.00    +0.008 A 
ATOM     32  C   UNL     1       9.441   0.629  -0.736  0.00  0.00    +0.046 A 
ATOM     33  S   UNL     1       7.957   0.276   0.192  0.00  0.00    -0.096 S 
ENDBRANCH  28  29
ENDBRANCH  11  27
TORSDOF 6
