REMARK  Name = ZINC12462719
REMARK  6 active torsions:
REMARK  status: ('A' for Active; 'I' for Inactive)
REMARK    1  A    between atoms: C_1  and  C_2
REMARK    2  A    between atoms: C_6  and  N_8
REMARK    3  A    between atoms: C_14  and  C_15
REMARK    4  A    between atoms: C_18  and  N_21
REMARK    5  A    between atoms: N_21  and  C_22
REMARK    6  A    between atoms: N_21  and  C_23
REMARK                            x       y       z     vdW  Elec       q    Type
REMARK                         _______ _______ _______ _____ _____    ______ ____
ROOT
ATOM      1  N   UNL     1       0.148  -2.873   2.304  0.00  0.00    -0.226 NA
ATOM      2  C   UNL     1      -0.622  -3.928   2.447  0.00  0.00    +0.166 C 
ATOM      3  N   UNL     1      -0.544  -4.922   3.398  0.00  0.00    -0.260 N 
ATOM      4  C   UNL     1      -1.408  -5.923   3.398  0.00  0.00    +0.256 C 
ATOM      5  O   UNL     1      -1.354  -6.810   4.231  0.00  0.00    -0.269 OA
ATOM      6  C   UNL     1      -2.440  -5.917   2.345  0.00  0.00    +0.078 C 
ATOM      7  C   UNL     1      -3.439  -6.807   2.112  0.00  0.00    +0.028 C 
ATOM      8  S   UNL     1      -2.028  -4.419   1.463  0.00  0.00    -0.049 S 
ATOM      9  H   UNL     1       0.151  -4.887   4.074  0.00  0.00    +0.157 HD
ENDROOT
BRANCH   1  15
ATOM     10  C   UNL     1      -0.280   1.762   0.787  0.00  0.00    +0.044 C 
ATOM     11  C   UNL     1      -0.308   0.280   0.518  0.00  0.00    -0.048 A 
ATOM     12  C   UNL     1      -0.576  -0.185  -0.758  0.00  0.00    +0.003 A 
ATOM     13  C   UNL     1      -0.602  -1.544  -1.014  0.00  0.00    +0.002 A 
ATOM     14  C   UNL     1      -0.362  -2.446   0.001  0.00  0.00    +0.028 A 
ATOM     15  C   UNL     1      -0.091  -1.984   1.291  0.00  0.00    +0.067 A 
ATOM     16  C   UNL     1      -0.060  -0.610   1.542  0.00  0.00    +0.031 A 
ENDBRANCH   1  15
BRANCH   7  17
ATOM     17  C   UNL     1      -3.703  -7.882   3.076  0.00  0.00    -0.024 A 
ATOM     18  C   UNL     1      -3.639  -7.625   4.451  0.00  0.00    +0.010 A 
ATOM     19  C   UNL     1      -3.887  -8.632   5.348  0.00  0.00    +0.023 A 
ATOM     20  C   UNL     1      -4.202  -9.910   4.893  0.00  0.00    +0.029 A 
ATOM     21  C   UNL     1      -4.266 -10.171   3.527  0.00  0.00    +0.023 A 
ATOM     22  C   UNL     1      -4.026  -9.168   2.623  0.00  0.00    +0.010 A 
BRANCH  20  23
ATOM     23  N   UNL     1      -4.453 -10.930   5.807  0.00  0.00    -0.336 N 
ATOM     24  C   UNL     1      -4.385 -10.658   7.245  0.00  0.00    +0.129 C 
ATOM     25  C   UNL     1      -4.785 -12.275   5.331  0.00  0.00    +0.129 C 
ENDBRANCH  20  23
ENDBRANCH   7  17
TORSDOF 3
