REMARK  Name = ZINC13124627
REMARK  4 active torsions:
REMARK  status: ('A' for Active; 'I' for Inactive)
REMARK    1  A    between atoms: C_1  and  O_2
REMARK    2  A    between atoms: O_2  and  C_3
REMARK    3  A    between atoms: C_6  and  C_9
REMARK    4  A    between atoms: C_14  and  C_22
REMARK                            x       y       z     vdW  Elec       q    Type
REMARK                         _______ _______ _______ _____ _____    ______ ____
ROOT
ATOM      1  C   UNL     1       2.505  -2.503  -4.381  0.00  0.00    +0.032 C 
ATOM      2  C   UNL     1       3.655  -3.382  -3.886  0.00  0.00    +0.060 C 
ATOM      3  C   UNL     1       4.298  -4.086  -5.058  0.00  0.00    +0.020 C 
ATOM      4  C   UNL     1       3.574  -4.422  -6.148  0.00  0.00    +0.041 C 
ATOM      5  C   UNL     1       4.191  -5.125  -7.337  0.00  0.00    +0.175 C 
ATOM      6  N   UNL     1       5.505  -5.645  -6.983  0.00  0.00    -0.221 N 
ATOM      7  C   UNL     1       6.177  -5.276  -5.864  0.00  0.00    +0.218 A 
ATOM      8  N   UNL     1       7.316  -5.912  -5.849  0.00  0.00    -0.201 NA
ATOM      9  C   UNL     1       7.405  -6.695  -6.929  0.00  0.00    +0.247 A 
ATOM     10  N   UNL     1       6.318  -6.561  -7.649  0.00  0.00    -0.156 NA
ATOM     11  N   UNL     1       5.639  -4.372  -4.963  0.00  0.00    -0.287 N 
ATOM     12  C   UNL     1       2.202  -4.122  -6.223  0.00  0.00    +0.164 C 
ATOM     13  O   UNL     1       1.573  -4.458  -7.207  0.00  0.00    -0.292 OA
ATOM     14  C   UNL     1       1.496  -3.396  -5.112  0.00  0.00    +0.088 C 
ATOM     15  H   UNL     1       6.191  -3.954  -4.284  0.00  0.00    +0.155 HD
ENDROOT
BRANCH   1  19
ATOM     16  C   UNL     1       0.606  -0.607  -1.056  0.00  0.00    +0.120 A 
ATOM     17  C   UNL     1       1.173   0.161  -2.062  0.00  0.00    +0.046 A 
ATOM     18  C   UNL     1       1.786  -0.455  -3.136  0.00  0.00    +0.007 A 
ATOM     19  C   UNL     1       1.835  -1.835  -3.209  0.00  0.00    -0.043 A 
ATOM     20  C   UNL     1       1.270  -2.602  -2.207  0.00  0.00    +0.007 A 
ATOM     21  C   UNL     1       0.661  -1.992  -1.128  0.00  0.00    +0.046 A 
BRANCH  16  23
ATOM     22  C   UNL     1      -0.017   1.425   0.010  0.00  0.00    +0.277 C 
ATOM     23  O   UNL     1       0.002  -0.004   0.002  0.00  0.00    -0.495 OA
ENDBRANCH  16  23
ENDBRANCH   1  19
BRANCH   5  24
ATOM     24  C   UNL     1       4.331  -4.151  -8.477  0.00  0.00    -0.018 A 
ATOM     25  C   UNL     1       5.107  -3.017  -8.325  0.00  0.00    +0.006 A 
ATOM     26  C   UNL     1       5.236  -2.122  -9.371  0.00  0.00    +0.000 A 
ATOM     27  C   UNL     1       4.589  -2.362 -10.569  0.00  0.00    +0.000 A 
ATOM     28  C   UNL     1       3.814  -3.496 -10.722  0.00  0.00    +0.000 A 
ATOM     29  C   UNL     1       3.689  -4.393  -9.677  0.00  0.00    +0.006 A 
ENDBRANCH   5  24
TORSDOF 3
