REMARK  Name = ZINC09242889
REMARK  4 active torsions:
REMARK  status: ('A' for Active; 'I' for Inactive)
REMARK    1  A    between atoms: C_1  and  C_2
REMARK    2  A    between atoms: C_2  and  C_3
REMARK    3  A    between atoms: N_24  and  C_27
REMARK    4  A    between atoms: C_30  and  N_33
REMARK                            x       y       z     vdW  Elec       q    Type
REMARK                         _______ _______ _______ _____ _____    ______ ____
ROOT
ATOM      1  C   UNL     1      -1.511   5.223   2.456  0.00  0.00    -0.026 A 
ATOM      2  C   UNL     1      -0.316   5.864   2.714  0.00  0.00    +0.005 A 
ATOM      3  C   UNL     1       0.884   5.199   2.542  0.00  0.00    +0.001 A 
ATOM      4  C   UNL     1       0.888   3.885   2.108  0.00  0.00    +0.004 A 
ATOM      5  C   UNL     1      -0.302   3.242   1.850  0.00  0.00    -0.027 A 
ATOM      6  C   UNL     1      -1.516   3.901   2.019  0.00  0.00    +0.039 A 
ATOM      7  N   UNL     1      -2.576   3.050   1.698  0.00  0.00    -0.286 N 
ATOM      8  C   UNL     1      -2.150   1.831   1.313  0.00  0.00    +0.212 C 
ATOM      9  O   UNL     1      -2.844   0.895   0.977  0.00  0.00    -0.277 OA
ATOM     10  C   UNL     1      -0.647   1.857   1.380  0.00  0.00    +0.053 C 
ATOM     11  C   UNL     1      -0.151   0.790   2.342  0.00  0.00    +0.089 C 
ATOM     12  C   UNL     1       0.287  -0.391   1.433  0.00  0.00    +0.074 C 
ATOM     13  C   UNL     1      -0.006   0.075  -0.005  0.00  0.00    -0.054 C 
ATOM     14  C   UNL     1       1.379   1.980   0.065  0.00  0.00    -0.076 C 
ATOM     15  C   UNL     1       2.083   1.000  -0.895  0.00  0.00    -0.020 C 
ATOM     16  C   UNL     1       1.185  -0.252  -0.923  0.00  0.00    -0.016 C 
ATOM     17  C   UNL     1       1.783  -0.473   1.639  0.00  0.00    +0.228 C 
ATOM     18  O   UNL     1       2.520  -1.276   1.107  0.00  0.00    -0.275 OA
ATOM     19  N   UNL     1       2.166   0.477   2.499  0.00  0.00    -0.210 N 
ATOM     20  C   UNL     1       1.171   1.246   2.956  0.00  0.00    +0.229 C 
ATOM     21  O   UNL     1       1.297   2.162   3.740  0.00  0.00    -0.275 OA
ATOM     22  H   UNL     1      -3.510   3.306   1.746  0.00  0.00    +0.155 HD
ATOM     23  N   UNL     1      -0.024   1.517   0.097  0.00  0.00    +0.395 N 
ATOM     24  H   UNL     1      -0.554   1.933  -0.677  0.00  0.00    -0.079 HD
ENDROOT
BRANCH  19  25
ATOM     25  C   UNL     1       3.501   0.653   2.890  0.00  0.00    +0.044 A 
ATOM     26  C   UNL     1       4.131  -0.310   3.665  0.00  0.00    +0.026 A 
ATOM     27  C   UNL     1       5.448  -0.137   4.044  0.00  0.00    +0.034 A 
ATOM     28  C   UNL     1       6.135   1.000   3.660  0.00  0.00    +0.126 A 
ATOM     29  C   UNL     1       5.508   1.964   2.892  0.00  0.00    +0.034 A 
ATOM     30  C   UNL     1       4.193   1.794   2.506  0.00  0.00    +0.026 A 
BRANCH  28  31
ATOM     31  N   UNL     1       7.545   1.186   4.072  0.00  0.00    +0.056 N 
ATOM     32  O   UNL     1       8.151   2.187   3.734  0.00  0.00    -0.126 OA
ATOM     33  O   UNL     1       8.099   0.338   4.748  0.00  0.00    -0.126 OA
ENDBRANCH  28  31
ENDBRANCH  19  25
BRANCH   1  35
ATOM     34  C   UNL     1      -3.371   5.654   4.037  0.00  0.00    +0.009 C 
ATOM     35  C   UNL     1      -2.813   5.957   2.646  0.00  0.00    +0.033 C 
ENDBRANCH   1  35
TORSDOF 3
