REMARK  Name = ZINC13539872
REMARK  6 active torsions:
REMARK  status: ('A' for Active; 'I' for Inactive)
REMARK    1  A    between atoms: C_1  and  C_2
REMARK    2  A    between atoms: C_4  and  C_15
REMARK    3  A    between atoms: C_5  and  C_14
REMARK    4  A    between atoms: N_6  and  C_7
REMARK    5  A    between atoms: C_10  and  O_13
REMARK    6  A    between atoms: N_22  and  C_25
REMARK                            x       y       z     vdW  Elec       q    Type
REMARK                         _______ _______ _______ _____ _____    ______ ____
ROOT
ATOM      1  C   UNL     1      -0.860  -3.706  -1.112  0.00  0.00    +0.028 C 
ATOM      2  C   UNL     1      -1.098  -3.547  -2.472  0.00  0.00    +0.102 C 
ATOM      3  C   UNL     1      -0.681  -4.564  -3.448  0.00  0.00    +0.276 C 
ATOM      4  O   UNL     1      -0.051  -5.688  -3.047  0.00  0.00    -0.268 OA
ATOM      5  N   UNL     1      -0.939  -4.352  -4.728  0.00  0.00    -0.123 NA
ATOM      6  C   UNL     1      -1.559  -3.254  -5.152  0.00  0.00    +0.340 C 
ATOM      7  O   UNL     1      -1.761  -3.131  -6.347  0.00  0.00    -0.250 OA
ATOM      8  N   UNL     1      -1.974  -2.275  -4.335  0.00  0.00    -0.188 N 
ATOM      9  C   UNL     1      -1.786  -2.354  -3.000  0.00  0.00    +0.264 C 
ATOM     10  O   UNL     1      -2.167  -1.468  -2.257  0.00  0.00    -0.269 OA
ENDROOT
BRANCH   1  14
ATOM     11  C   UNL     1      -0.916   0.910   0.928  0.00  0.00    +0.064 C 
ATOM     12  C   UNL     1      -1.105  -0.564   0.677  0.00  0.00    +0.022 A 
ATOM     13  C   UNL     1      -0.685  -1.226  -0.412  0.00  0.00    +0.031 A 
ATOM     14  C   UNL     1      -1.086  -2.629  -0.225  0.00  0.00    -0.003 A 
ATOM     15  C   UNL     1      -1.733  -2.678   1.003  0.00  0.00    +0.028 A 
ATOM     16  N   UNL     1      -1.728  -1.438   1.526  0.00  0.00    -0.317 N 
ATOM     17  C   UNL     1      -2.330  -3.905   1.641  0.00  0.00    +0.064 C 
BRANCH  16  18
ATOM     18  C   UNL     1      -2.286  -1.090   2.764  0.00  0.00    +0.047 A 
ATOM     19  C   UNL     1      -1.747  -1.601   3.937  0.00  0.00    +0.030 A 
ATOM     20  C   UNL     1      -2.297  -1.258   5.156  0.00  0.00    +0.047 A 
ATOM     21  C   UNL     1      -3.389  -0.403   5.209  0.00  0.00    +0.117 A 
ATOM     22  C   UNL     1      -3.928   0.107   4.037  0.00  0.00    +0.047 A 
ATOM     23  C   UNL     1      -3.375  -0.230   2.818  0.00  0.00    +0.030 A 
BRANCH  21  24
ATOM     24  O   UNL     1      -3.930  -0.067   6.410  0.00  0.00    -0.507 OA
ATOM     25  H   UNL     1      -3.541   0.724   6.808  0.00  0.00    +0.292 HD
ENDBRANCH  21  24
ENDBRANCH  16  18
ENDBRANCH   1  14
BRANCH   8  26
ATOM     26  C   UNL     1      -2.619  -1.153  -4.875  0.00  0.00    +0.046 A 
ATOM     27  C   UNL     1      -1.877  -0.054  -5.283  0.00  0.00    +0.027 A 
ATOM     28  C   UNL     1      -2.514   1.050  -5.815  0.00  0.00    +0.040 A 
ATOM     29  C   UNL     1      -3.893   1.060  -5.941  0.00  0.00    +0.124 A 
ATOM     30  C   UNL     1      -4.635  -0.035  -5.535  0.00  0.00    +0.040 A 
ATOM     31  C   UNL     1      -4.001  -1.143  -5.007  0.00  0.00    +0.027 A 
ATOM     32  F   UNL     1      -4.514   2.141  -6.462  0.00  0.00    -0.205 F 
ENDBRANCH   8  26
TORSDOF 4
