REMARK  Name = ZINC63294014
REMARK  4 active torsions:
REMARK  status: ('A' for Active; 'I' for Inactive)
REMARK    1  A    between atoms: C_7  and  C_10
REMARK    2  A    between atoms: C_10  and  C_11
REMARK    3  A    between atoms: C_17  and  C_20
REMARK    4  A    between atoms: N_22  and  C_23
REMARK                            x       y       z     vdW  Elec       q    Type
REMARK                         _______ _______ _______ _____ _____    ______ ____
ROOT
ATOM      1  C   UNL     1       0.460  -3.646  -1.440  0.00  0.00    +0.220 C 
ATOM      2  O   UNL     1       1.006  -3.075  -2.360  0.00  0.00    -0.275 OA
ATOM      3  N   UNL     1      -0.353  -4.693  -1.684  0.00  0.00    -0.300 N 
ATOM      4  C   UNL     1      -1.026  -5.391  -0.581  0.00  0.00    +0.108 C 
ATOM      5  C   UNL     1      -0.714  -6.888  -0.680  0.00  0.00    +0.020 C 
ATOM      6  C   UNL     1      -1.100  -7.394  -2.072  0.00  0.00    +0.016 C 
ATOM      7  C   UNL     1      -0.276  -6.657  -3.131  0.00  0.00    +0.092 C 
ATOM      8  C   UNL     1      -0.588  -5.154  -3.059  0.00  0.00    +0.120 C 
ENDROOT
BRANCH   7   9
ATOM      9  C   UNL     1      -0.632  -7.179  -4.499  0.00  0.00    +0.218 C 
ATOM     10  O   UNL     1      -1.463  -8.054  -4.617  0.00  0.00    -0.275 OA
ATOM     11  N   UNL     1      -0.028  -6.673  -5.592  0.00  0.00    -0.312 N 
ATOM     12  H   UNL     1       0.637  -5.973  -5.498  0.00  0.00    +0.149 HD
BRANCH  11  13
ATOM     13  C   UNL     1      -0.374  -7.180  -6.922  0.00  0.00    +0.073 C 
ATOM     14  C   UNL     1       0.455  -8.431  -7.223  0.00  0.00    +0.022 C 
ATOM     15  C   UNL     1       0.093  -8.961  -8.611  0.00  0.00    +0.002 C 
ATOM     16  C   UNL     1       0.391  -7.888  -9.660  0.00  0.00    +0.000 C 
ATOM     17  C   UNL     1      -0.438  -6.637  -9.360  0.00  0.00    +0.002 C 
ATOM     18  C   UNL     1      -0.076  -6.107  -7.971  0.00  0.00    +0.022 C 
ENDBRANCH  11  13
ENDBRANCH   7   9
BRANCH   1  19
ATOM     19  C   UNL     1       0.691  -3.186  -0.024  0.00  0.00    +0.129 C 
BRANCH  19  26
ATOM     20  C   UNL     1      -0.016   1.348   0.009  0.00  0.00    +0.001 A 
ATOM     21  C   UNL     1       1.166   2.101   0.002  0.00  0.00    +0.002 A 
ATOM     22  C   UNL     1       2.391   1.535  -0.013  0.00  0.00    +0.026 A 
ATOM     23  C   UNL     1       2.529   0.120  -0.022  0.00  0.00    +0.043 A 
ATOM     24  N   UNL     1       3.587  -0.654  -0.037  0.00  0.00    -0.380 N 
ATOM     25  C   UNL     1       3.143  -2.053  -0.041  0.00  0.00    +0.145 C 
ATOM     26  C   UNL     1       1.631  -2.008  -0.025  0.00  0.00    -0.033 C 
ATOM     27  C   UNL     1       1.295  -0.698  -0.014  0.00  0.00    -0.001 A 
ATOM     28  C   UNL     1       0.002  -0.004   0.002  0.00  0.00    +0.010 A 
ATOM     29  H   UNL     1       4.509  -0.353  -0.045  0.00  0.00    +0.160 HD
ENDBRANCH  19  26
ENDBRANCH   1  19
TORSDOF 4
