REMARK  Name = ZINC31162689
REMARK  5 active torsions:
REMARK  status: ('A' for Active; 'I' for Inactive)
REMARK    1  A    between atoms: C_1  and  C_2
REMARK    2  A    between atoms: C_11  and  O_30
REMARK    3  A    between atoms: C_15  and  O_29
REMARK    4  A    between atoms: C_19  and  O_25
REMARK    5  A    between atoms: C_21  and  O_24
REMARK                            x       y       z     vdW  Elec       q    Type
REMARK                         _______ _______ _______ _____ _____    ______ ____
ROOT
ATOM      1  C   UNL     1       1.452   2.776   1.302  0.00  0.00    +0.052 C 
ATOM      2  C   UNL     1       1.279   1.991   0.001  0.00  0.00    +0.176 C 
ATOM      3  C   UNL     1       1.674   2.878  -1.182  0.00  0.00    +0.078 C 
ATOM      4  C   UNL     1       0.886   4.182  -1.069  0.00  0.00    +0.151 C 
ATOM      5  C   UNL     1       0.233   4.718  -2.349  0.00  0.00    +0.150 C 
ATOM      6  O   UNL     1       1.349   5.356  -1.738  0.00  0.00    -0.368 OA
ATOM      7  C   UNL     1      -1.181   5.275  -2.159  0.00  0.00    +0.069 C 
ATOM      8  C   UNL     1      -1.821   4.512  -0.991  0.00  0.00    +0.140 C 
ATOM      9  C   UNL     1      -3.313   4.666  -1.041  0.00  0.00    +0.007 C 
ATOM     10  C   UNL     1      -4.121   3.603  -1.053  0.00  0.00    +0.043 C 
ATOM     11  C   UNL     1      -3.628   2.228  -1.016  0.00  0.00    +0.117 C 
ATOM     12  C   UNL     1      -3.023   1.681   0.070  0.00  0.00    +0.055 C 
ATOM     13  C   UNL     1      -2.845   0.224   0.098  0.00  0.00    +0.018 A 
ATOM     14  C   UNL     1      -1.603  -0.427   0.000  0.00  0.00    +0.109 A 
ATOM     15  C   UNL     1      -1.570  -1.846   0.003  0.00  0.00    +0.135 A 
ATOM     16  C   UNL     1      -2.730  -2.575   0.115  0.00  0.00    +0.093 A 
ATOM     17  C   UNL     1      -3.962  -1.938   0.232  0.00  0.00    +0.139 A 
ATOM     18  C   UNL     1      -4.018  -0.556   0.226  0.00  0.00    +0.091 A 
ATOM     19 CL   UNL     1      -5.556   0.236   0.379  0.00  0.00    -0.079 Cl
ATOM     20  C   UNL     1      -0.329   0.256  -0.110  0.00  0.00    +0.344 C 
ATOM     21  O   UNL     1       0.654  -0.455  -0.201  0.00  0.00    -0.245 OA
ATOM     22  O   UNL     1      -0.108   1.566  -0.124  0.00  0.00    -0.458 OA
ENDROOT
BRANCH  17  23
ATOM     23  O   UNL     1      -5.101  -2.667   0.352  0.00  0.00    -0.505 OA
ATOM     24  H   UNL     1      -6.072  -2.160   0.444  0.00  0.00    +0.292 HD
ENDBRANCH  17  23
BRANCH  15  25
ATOM     25  O   UNL     1      -0.380  -2.490  -0.104  0.00  0.00    -0.506 OA
ATOM     26  H   UNL     1      -0.348  -3.589  -0.102  0.00  0.00    +0.292 HD
ENDBRANCH  15  25
BRANCH  11  27
ATOM     27  O   UNL     1      -3.844   1.427  -2.096  0.00  0.00    -0.507 OA
ATOM     28  H   UNL     1      -3.483   0.388  -2.091  0.00  0.00    +0.292 HD
ENDBRANCH  11  27
BRANCH   8  29
ATOM     29  O   UNL     1      -1.330   5.037   0.244  0.00  0.00    -0.388 OA
ATOM     30  H   UNL     1      -1.677   4.614   1.198  0.00  0.00    +0.210 HD
ENDBRANCH   8  29
TORSDOF 4
