REMARK  Name = ZINC27550455
REMARK  7 active torsions:
REMARK  status: ('A' for Active; 'I' for Inactive)
REMARK    1  A    between atoms: C_1  and  C_2
REMARK    2  A    between atoms: C_4  and  C_8
REMARK    3  A    between atoms: C_5  and  C_7
REMARK    4  A    between atoms: C_10  and  C_31
REMARK    5  A    between atoms: C_11  and  N_30
REMARK    6  A    between atoms: N_12  and  C_20
REMARK    7  A    between atoms: C_24  and  N_26
REMARK                            x       y       z     vdW  Elec       q    Type
REMARK                         _______ _______ _______ _____ _____    ______ ____
ROOT
ATOM      1  C   UNL     1      -2.962   3.703  -0.093  0.00  0.00    +0.098 C 
ATOM      2  C   UNL     1      -1.798   3.111   0.645  0.00  0.00    +0.077 C 
ATOM      3  C   UNL     1      -1.559   1.774   0.622  0.00  0.00    +0.107 C 
ATOM      4  N   UNL     1      -2.391   0.936  -0.086  0.00  0.00    -0.260 N 
ATOM      5  C   UNL     1      -3.196   1.431  -1.077  0.00  0.00    +0.024 C 
ATOM      6  C   UNL     1      -3.499   2.745  -1.126  0.00  0.00    +0.025 C 
ATOM      7  C   UNL     1      -4.327   3.261  -2.139  0.00  0.00    +0.162 C 
ATOM      8  O   UNL     1      -4.566   4.452  -2.164  0.00  0.00    -0.292 OA
ATOM      9  C   UNL     1      -4.923   2.366  -3.191  0.00  0.00    +0.080 C 
ATOM     10  C   UNL     1      -5.093   0.959  -2.609  0.00  0.00    +0.014 C 
ATOM     11  C   UNL     1      -3.731   0.471  -2.112  0.00  0.00    +0.052 C 
ENDROOT
BRANCH   1  15
ATOM     12  C   UNL     1      -6.407   2.454   3.443  0.00  0.00    +0.051 C 
ATOM     13  C   UNL     1      -5.620   3.351   2.523  0.00  0.00    -0.013 A 
ATOM     14  C   UNL     1      -4.641   3.026   1.644  0.00  0.00    +0.015 A 
ATOM     15  C   UNL     1      -4.053   4.027   0.894  0.00  0.00    -0.025 A 
ATOM     16  C   UNL     1      -4.468   5.306   1.065  0.00  0.00    -0.009 A 
ATOM     17  S   UNL     1      -5.736   5.120   2.308  0.00  0.00    -0.098 S 
ATOM     18  C   UNL     1      -3.986   6.560   0.382  0.00  0.00    +0.052 C 
ENDBRANCH   1  15
BRANCH   4  19
ATOM     19  C   UNL     1      -2.414  -0.432   0.211  0.00  0.00    +0.042 A 
ATOM     20  C   UNL     1      -1.547  -1.300  -0.441  0.00  0.00    +0.025 A 
ATOM     21  C   UNL     1      -1.572  -2.649  -0.146  0.00  0.00    +0.024 A 
ATOM     22  C   UNL     1      -2.460  -3.137   0.797  0.00  0.00    +0.071 A 
ATOM     23  C   UNL     1      -3.325  -2.274   1.447  0.00  0.00    +0.146 A 
ATOM     24  C   UNL     1      -3.301  -0.923   1.160  0.00  0.00    +0.058 A 
ATOM     25 CL   UNL     1      -2.489  -4.833   1.164  0.00  0.00    -0.081 Cl
BRANCH  23  26
ATOM     26  N   UNL     1      -4.273  -2.799   2.455  0.00  0.00    +0.058 N 
ATOM     27  O   UNL     1      -5.035  -2.041   3.028  0.00  0.00    -0.126 OA
ATOM     28  O   UNL     1      -4.292  -3.990   2.712  0.00  0.00    -0.126 OA
ENDBRANCH  23  26
ENDBRANCH   4  19
BRANCH   3  29
ATOM     29  N   UNL     1      -0.488   1.256   1.310  0.00  0.00    -0.345 N 
ATOM     30  H   UNL     1      -0.294   0.173   1.292  0.00  0.00    +0.144 HD
ATOM     31  H   UNL     1       0.175   1.924   1.880  0.00  0.00    +0.144 HD
ENDBRANCH   3  29
BRANCH   2  32
ATOM     32  C   UNL     1      -0.921   3.970   1.382  0.00  0.00    +0.099 C 
ATOM     33  N   UNL     1      -0.225   4.651   1.967  0.00  0.00    -0.191 NA
ENDBRANCH   2  32
TORSDOF 5
