REMARK  Name = ZINC39631448
REMARK  12 active torsions:
REMARK  status: ('A' for Active; 'I' for Inactive)
REMARK    1  A    between atoms: C_1  and  C_2
REMARK    2  A    between atoms: C_2  and  C_4
REMARK    3  A    between atoms: C_2  and  N_11
REMARK    4  A    between atoms: C_4  and  C_5
REMARK    5  A    between atoms: C_5  and  C_6
REMARK    6  A    between atoms: C_6  and  C_7
REMARK    7  A    between atoms: C_7  and  C_8
REMARK    8  A    between atoms: C_7  and  C_9
REMARK    9  A    between atoms: C_7  and  O_10
REMARK   10  A    between atoms: C_12  and  C_14
REMARK   11  A    between atoms: C_25  and  C_27
REMARK   12  A    between atoms: C_30  and  C_34
REMARK                            x       y       z     vdW  Elec       q    Type
REMARK                         _______ _______ _______ _____ _____    ______ ____
ROOT
ATOM      1  C   UNL     1      -3.330  -0.544   1.293  0.00  0.00    +0.100 C 
ATOM      2  C   UNL     1      -4.435   0.197   0.508  0.00  0.00    +0.121 C 
ATOM      3  N   UNL     1      -5.652   0.043   1.338  0.00  0.00    -0.296 N 
ATOM      4  C   UNL     1      -5.169   0.192   2.732  0.00  0.00    +0.115 C 
ATOM      5  C   UNL     1      -3.816  -0.545   2.752  0.00  0.00    -0.004 C 
ATOM      6  C   UNL     1      -4.002  -1.977   3.246  0.00  0.00    -0.010 C 
ATOM      7  C   UNL     1      -4.430  -1.953   4.716  0.00  0.00    -0.082 C 
ATOM      8  N   UNL     1      -3.407  -1.267   5.515  0.00  0.00    +0.379 N 
ATOM      9  C   UNL     1      -3.299   0.135   5.095  0.00  0.00    -0.082 C 
ATOM     10  C   UNL     1      -2.824   0.199   3.640  0.00  0.00    -0.010 C 
ATOM     11  C   UNL     1      -6.914  -0.182   0.921  0.00  0.00    +0.247 C 
ATOM     12  O   UNL     1      -7.137  -0.391  -0.256  0.00  0.00    -0.270 OA
ATOM     13  H   UNL     1      -3.661  -1.306   6.490  0.00  0.00    -0.086 HD
ATOM     14  H   UNL     1      -2.517  -1.726   5.384  0.00  0.00    -0.086 HD
ENDROOT
BRANCH  11  15
ATOM     15  C   UNL     1      -8.027  -0.174   1.894  0.00  0.00    +0.040 A 
ATOM     16  C   UNL     1      -7.885   0.484   3.116  0.00  0.00    +0.014 A 
ATOM     17  C   UNL     1      -8.926   0.489   4.021  0.00  0.00    +0.016 A 
ATOM     18  C   UNL     1     -10.112  -0.157   3.719  0.00  0.00    +0.090 A 
ATOM     19  C   UNL     1     -10.261  -0.813   2.508  0.00  0.00    +0.136 A 
ATOM     20  C   UNL     1      -9.226  -0.820   1.591  0.00  0.00    +0.052 A 
ATOM     21  F   UNL     1     -11.421  -1.443   2.220  0.00  0.00    -0.205 F 
BRANCH  18  22
ATOM     22  C   UNL     1     -11.245  -0.147   4.712  0.00  0.00    +0.420 C 
ATOM     23  F   UNL     1     -10.863   0.571   5.850  0.00  0.00    -0.166 F 
ATOM     24  F   UNL     1     -12.367   0.458   4.134  0.00  0.00    -0.166 F 
ATOM     25  F   UNL     1     -11.559  -1.462   5.074  0.00  0.00    -0.166 F 
ENDBRANCH  18  22
ENDBRANCH  11  15
BRANCH   1  27
ATOM     26  N   UNL     1      -0.858  -0.489   1.243  0.00  0.00    -0.312 N 
ATOM     27  C   UNL     1      -2.020   0.191   1.177  0.00  0.00    +0.218 C 
ATOM     28  O   UNL     1      -2.011   1.394   1.024  0.00  0.00    -0.275 OA
ATOM     29  H   UNL     1      -0.865  -1.451   1.365  0.00  0.00    +0.149 HD
BRANCH  26  31
ATOM     30  C   UNL     1       0.773   0.402  -0.348  0.00  0.00    +0.028 C 
ATOM     31  C   UNL     1       0.416   0.226   1.130  0.00  0.00    +0.070 C 
BRANCH  31  32
ATOM     32  C   UNL     1       1.516  -0.578   1.827  0.00  0.00    +0.022 C 
BRANCH  32  33
ATOM     33  C   UNL     1       1.222  -0.647   3.327  0.00  0.00    +0.005 C 
BRANCH  33  34
ATOM     34  C   UNL     1       2.322  -1.451   4.025  0.00  0.00    +0.034 C 
BRANCH  34  35
ATOM     35  C   UNL     1       2.029  -1.520   5.525  0.00  0.00    +0.061 C 
ATOM     36  C   UNL     1       3.189  -2.216   6.240  0.00  0.00    +0.041 C 
ATOM     37  C   UNL     1       1.864  -0.104   6.079  0.00  0.00    +0.041 C 
BRANCH  35  38
ATOM     38  O   UNL     1       0.825  -2.260   5.741  0.00  0.00    -0.389 OA
ATOM     39  H   UNL     1       0.858  -3.169   5.415  0.00  0.00    +0.210 HD
ENDBRANCH  35  38
ENDBRANCH  34  35
ENDBRANCH  33  34
ENDBRANCH  32  33
ENDBRANCH  31  32
ENDBRANCH  26  31
ENDBRANCH   1  27
TORSDOF 9
