REMARK  Name = ZINC36189839
REMARK  8 active torsions:
REMARK  status: ('A' for Active; 'I' for Inactive)
REMARK    1  A    between atoms: C_1  and  C_2
REMARK    2  A    between atoms: C_2  and  O_3
REMARK    3  A    between atoms: O_3  and  C_4
REMARK    4  A    between atoms: C_6  and  C_14
REMARK    5  A    between atoms: C_8  and  N_11
REMARK    6  A    between atoms: C_9  and  O_10
REMARK    7  A    between atoms: N_18  and  C_22
REMARK    8  A    between atoms: C_22  and  C_23
REMARK                            x       y       z     vdW  Elec       q    Type
REMARK                         _______ _______ _______ _____ _____    ______ ____
ROOT
ATOM      1  C   UNL     1      -0.208  -4.963   0.442  0.00  0.00    +0.036 C 
ATOM      2  C   UNL     1      -0.190  -6.302   0.226  0.00  0.00    +0.098 C 
ATOM      3  C   UNL     1       0.442  -7.018  -0.893  0.00  0.00    +0.269 C 
ATOM      4  O   UNL     1       1.060  -6.527  -1.820  0.00  0.00    -0.268 OA
ATOM      5  N   UNL     1       0.200  -8.329  -0.685  0.00  0.00    -0.216 N 
ATOM      6  C   UNL     1      -0.512  -8.487   0.441  0.00  0.00    +0.313 C 
ATOM      7  O   UNL     1      -0.876  -9.561   0.880  0.00  0.00    -0.252 OA
ATOM      8  N   UNL     1      -0.765  -7.301   1.023  0.00  0.00    -0.265 N 
ATOM      9  H   UNL     1      -1.258  -7.162   1.847  0.00  0.00    +0.157 HD
ENDROOT
BRANCH   1  12
ATOM     10  C   UNL     1       1.480  -2.048  -1.208  0.00  0.00    +0.165 A 
ATOM     11  C   UNL     1       1.016  -2.906  -0.230  0.00  0.00    +0.057 A 
ATOM     12  C   UNL     1       0.287  -4.045  -0.593  0.00  0.00    -0.017 A 
ATOM     13  C   UNL     1       0.033  -4.308  -1.944  0.00  0.00    +0.044 A 
ATOM     14  C   UNL     1       0.499  -3.445  -2.912  0.00  0.00    +0.172 A 
ATOM     15  C   UNL     1       1.217  -2.313  -2.551  0.00  0.00    +0.189 A 
BRANCH  14  16
ATOM     16  N   UNL     1       0.229  -3.724  -4.341  0.00  0.00    +0.060 N 
ATOM     17  O   UNL     1      -0.399  -4.707  -4.657  0.00  0.00    -0.126 OA
ATOM     18  O   UNL     1       0.638  -2.968  -5.191  0.00  0.00    -0.126 OA
ENDBRANCH  14  16
BRANCH  15  19
ATOM     19  O   UNL     1       1.670  -1.464  -3.510  0.00  0.00    -0.502 OA
ATOM     20  H   UNL     1       2.551  -1.681  -3.843  0.00  0.00    +0.292 HD
ENDBRANCH  15  19
BRANCH  10  21
ATOM     21  O   UNL     1       2.187  -0.940  -0.859  0.00  0.00    -0.488 OA
BRANCH  21  23
ATOM     22  C   UNL     1       3.225   0.555   0.730  0.00  0.00    +0.048 C 
ATOM     23  C   UNL     1       2.419  -0.730   0.535  0.00  0.00    +0.226 C 
ENDBRANCH  21  23
ENDBRANCH  10  21
ENDBRANCH   1  12
BRANCH   5  24
ATOM     24  C   UNL     1       0.648  -9.416  -1.558  0.00  0.00    +0.153 C 
BRANCH  24  25
ATOM     25  C   UNL     1       2.006  -9.893  -1.110  0.00  0.00    -0.029 A 
ATOM     26  C   UNL     1       3.148  -9.311  -1.627  0.00  0.00    +0.006 A 
ATOM     27  C   UNL     1       4.394  -9.747  -1.217  0.00  0.00    +0.015 A 
ATOM     28  C   UNL     1       4.497 -10.767  -0.288  0.00  0.00    +0.018 A 
ATOM     29  C   UNL     1       3.354 -11.350   0.229  0.00  0.00    +0.015 A 
ATOM     30  C   UNL     1       2.109 -10.909  -0.178  0.00  0.00    +0.006 A 
ATOM     31 BR   UNL     1       6.201 -11.365   0.274  0.00  0.00    -0.050 Br
ENDBRANCH  24  25
ENDBRANCH   5  24
TORSDOF 7
