REMARK  Name = ZINC10932328
REMARK  10 active torsions:
REMARK  status: ('A' for Active; 'I' for Inactive)
REMARK    1  A    between atoms: C_1  and  C_2
REMARK    2  A    between atoms: C_2  and  C_3
REMARK    3  A    between atoms: C_2  and  C_4
REMARK    4  A    between atoms: C_2  and  N_5
REMARK    5  A    between atoms: C_9  and  C_11
REMARK    6  A    between atoms: C_11  and  O_12
REMARK    7  A    between atoms: O_12  and  C_13
REMARK    8  A    between atoms: C_13  and  C_15
REMARK    9  A    between atoms: C_19  and  N_20
REMARK   10  A    between atoms: C_21  and  C_23
REMARK                            x       y       z     vdW  Elec       q    Type
REMARK                         _______ _______ _______ _____ _____    ______ ____
ROOT
ATOM      1  C   UNL     1      -2.502   1.116   0.020  0.00  0.00    +0.091 A 
ATOM      2  C   UNL     1      -3.621   2.058   0.031  0.00  0.00    -0.021 A 
ATOM      3  C   UNL     1      -3.274   3.357   0.035  0.00  0.00    -0.004 A 
ATOM      4  S   UNL     1      -1.498   3.351   0.035  0.00  0.00    -0.077 S 
ATOM      5  C   UNL     1      -1.221   1.643   0.017  0.00  0.00    +0.086 A 
ATOM      6  C   UNL     1      -4.476   4.262   0.043  0.00  0.00    +0.043 C 
ATOM      7  C   UNL     1      -5.649   3.356  -0.392  0.00  0.00    +0.010 C 
ATOM      8  C   UNL     1      -5.147   1.964   0.043  0.00  0.00    +0.037 C 
ENDROOT
BRANCH   5   9
ATOM      9  N   UNL     1      -0.011   0.966   0.007  0.00  0.00    -0.279 N 
ATOM     10  C   UNL     1       1.147   1.655   0.000  0.00  0.00    +0.221 C 
ATOM     11  O   UNL     1       1.130   2.868   0.007  0.00  0.00    -0.275 OA
ATOM     12  H   UNL     1       0.002  -0.004   0.002  0.00  0.00    +0.155 HD
BRANCH  10  13
ATOM     13  C   UNL     1       2.462   0.920  -0.017  0.00  0.00    +0.075 C 
ATOM     14  C   UNL     1       2.567   0.035   1.227  0.00  0.00    +0.013 C 
ATOM     15  C   UNL     1       3.902  -0.712   1.210  0.00  0.00    +0.001 C 
ATOM     16  C   UNL     1       5.051   0.298   1.205  0.00  0.00    +0.000 C 
ATOM     17  C   UNL     1       4.946   1.183  -0.039  0.00  0.00    +0.001 C 
ATOM     18  C   UNL     1       3.611   1.930  -0.022  0.00  0.00    +0.013 C 
ENDBRANCH  10  13
ENDBRANCH   5   9
BRANCH   1  19
ATOM     19  C   UNL     1      -2.728  -0.331   0.013  0.00  0.00    +0.342 C 
ATOM     20  O   UNL     1      -2.816  -0.938   1.064  0.00  0.00    -0.245 OA
BRANCH  19  21
ATOM     21  O   UNL     1      -2.838  -0.991  -1.158  0.00  0.00    -0.452 OA
BRANCH  21  22
ATOM     22  C   UNL     1      -3.061  -2.424  -1.089  0.00  0.00    +0.328 C 
BRANCH  22  27
ATOM     23  N   UNL     1      -3.658  -6.126  -4.098  0.00  0.00    -0.294 N 
ATOM     24  C   UNL     1      -3.450  -4.807  -3.915  0.00  0.00    +0.306 C 
ATOM     25  O   UNL     1      -3.341  -4.070  -4.875  0.00  0.00    -0.252 OA
ATOM     26  N   UNL     1      -3.365  -4.305  -2.667  0.00  0.00    -0.237 N 
ATOM     27  C   UNL     1      -3.157  -2.985  -2.484  0.00  0.00    +0.258 C 
ATOM     28  O   UNL     1      -3.049  -2.250  -3.442  0.00  0.00    -0.272 OA
ATOM     29  H   UNL     1      -3.745  -6.714  -3.331  0.00  0.00    +0.151 HD
ATOM     30  H   UNL     1      -3.452  -4.893  -1.901  0.00  0.00    +0.159 HD
BRANCH  23  32
ATOM     31  C   UNL     1      -2.448  -6.394  -6.206  0.00  0.00    +0.031 C 
ATOM     32  C   UNL     1      -3.751  -6.671  -5.454  0.00  0.00    +0.028 C 
ATOM     33  C   UNL     1      -3.986  -8.181  -5.381  0.00  0.00    +0.031 C 
ATOM     34  C   UNL     1      -4.916  -6.009  -6.191  0.00  0.00    +0.031 C 
ENDBRANCH  23  32
ENDBRANCH  22  27
ENDBRANCH  21  22
ENDBRANCH  19  21
ENDBRANCH   1  19
TORSDOF 7
