REMARK  Name = ZINC63186674
REMARK  7 active torsions:
REMARK  status: ('A' for Active; 'I' for Inactive)
REMARK    1  A    between atoms: C_1  and  C_2
REMARK    2  A    between atoms: C_4  and  C_7
REMARK    3  A    between atoms: C_7  and  N_8
REMARK    4  A    between atoms: N_8  and  S_9
REMARK    5  A    between atoms: S_9  and  C_12
REMARK    6  A    between atoms: C_14  and  N_20
REMARK    7  A    between atoms: C_15  and  C_19
REMARK                            x       y       z     vdW  Elec       q    Type
REMARK                         _______ _______ _______ _____ _____    ______ ____
ROOT
ATOM      1  S   UNL     1      -2.225  -5.343  -1.506  0.00  0.00    +0.059 S 
ATOM      2  O   UNL     1      -2.214  -5.749  -2.868  0.00  0.00    -0.153 OA
ATOM      3  O   UNL     1      -1.468  -6.011  -0.506  0.00  0.00    -0.153 OA
ENDROOT
BRANCH   1   4
ATOM      4  C   UNL     1      -3.906  -5.390  -0.980  0.00  0.00    +0.109 A 
ATOM      5  C   UNL     1      -4.207  -5.529   0.362  0.00  0.00    +0.061 A 
ATOM      6  C   UNL     1      -5.526  -5.566   0.775  0.00  0.00    +0.132 A 
ATOM      7  C   UNL     1      -6.545  -5.464  -0.154  0.00  0.00    -0.002 A 
ATOM      8  C   UNL     1      -6.244  -5.325  -1.497  0.00  0.00    +0.048 A 
ATOM      9  C   UNL     1      -4.924  -5.283  -1.909  0.00  0.00    +0.049 A 
ATOM     10 CL   UNL     1      -7.523  -5.198  -2.664  0.00  0.00    -0.083 Cl
ATOM     11  C   UNL     1      -7.982  -5.505   0.296  0.00  0.00    +0.047 C 
BRANCH   6  12
ATOM     12  N   UNL     1      -5.847  -5.714   2.212  0.00  0.00    +0.057 N 
ATOM     13  O   UNL     1      -6.794  -5.129   2.683  0.00  0.00    -0.126 OA
ATOM     14  O   UNL     1      -5.163  -6.421   2.915  0.00  0.00    -0.126 OA
ENDBRANCH   6  12
ENDBRANCH   1   4
BRANCH   1  15
ATOM     15  N   UNL     1      -1.749  -3.757  -1.480  0.00  0.00    -0.184 NA
ATOM     16  H   UNL     1      -1.514  -3.308  -2.308  0.00  0.00    +0.148 HD
BRANCH  15  17
ATOM     17  C   UNL     1      -1.681  -3.033  -0.209  0.00  0.00    +0.164 C 
BRANCH  17  21
ATOM     18  C   UNL     1      -0.510   1.854  -1.046  0.00  0.00    +0.089 C 
ATOM     19  C   UNL     1      -0.396   0.378  -0.762  0.00  0.00    +0.135 A 
ATOM     20  C   UNL     1      -1.420  -0.491  -0.667  0.00  0.00    +0.072 A 
ATOM     21  C   UNL     1      -0.889  -1.765  -0.394  0.00  0.00    +0.099 A 
ATOM     22  N   UNL     1       0.408  -1.657  -0.330  0.00  0.00    -0.082 NA
ATOM     23  O   UNL     1       0.744  -0.301  -0.567  0.00  0.00    -0.360 OA
ENDBRANCH  17  21
ENDBRANCH  15  17
ENDBRANCH   1  15
TORSDOF 5
