REMARK  Name = ZINC16267053
REMARK  13 active torsions:
REMARK  status: ('A' for Active; 'I' for Inactive)
REMARK    1  A    between atoms: C_1  and  C_2
REMARK    2  A    between atoms: C_4  and  O_31
REMARK    3  A    between atoms: C_5  and  C_9
REMARK    4  A    between atoms: C_9  and  C_10
REMARK    5  A    between atoms: C_9  and  C_22
REMARK    6  A    between atoms: C_12  and  O_20
REMARK    7  A    between atoms: C_13  and  O_18
REMARK    8  A    between atoms: C_14  and  O_16
REMARK    9  A    between atoms: O_16  and  C_17
REMARK   10  A    between atoms: O_18  and  C_19
REMARK   11  A    between atoms: O_20  and  C_21
REMARK   12  A    between atoms: C_23  and  O_30
REMARK   13  A    between atoms: C_25  and  C_29
REMARK                            x       y       z     vdW  Elec       q    Type
REMARK                         _______ _______ _______ _____ _____    ______ ____
ROOT
ATOM      1  C   UNL     1       3.748  -0.637  -0.038  0.00  0.00    +0.100 C 
ENDROOT
BRANCH   1   6
ATOM      2  C   UNL     1      -1.186   2.329  -0.224  0.00  0.00    +0.086 C 
ATOM      3  C   UNL     1       0.096   1.539  -0.167  0.00  0.00    +0.110 A 
ATOM      4  C   UNL     1       0.052   0.227   0.132  0.00  0.00    +0.087 A 
ATOM      5  C   UNL     1       1.249  -0.521   0.182  0.00  0.00    +0.131 A 
ATOM      6  C   UNL     1       2.446   0.121  -0.079  0.00  0.00    +0.090 A 
ATOM      7  C   UNL     1       2.427   1.488  -0.384  0.00  0.00    +0.345 A 
ATOM      8  O   UNL     1       3.471   2.074  -0.617  0.00  0.00    -0.245 OA
ATOM      9  O   UNL     1       1.260   2.155  -0.419  0.00  0.00    -0.427 OA
BRANCH   5  10
ATOM     10  O   UNL     1       1.226  -1.842   0.481  0.00  0.00    -0.506 OA
ATOM     11  H   UNL     1       1.135  -2.418  -0.291  0.00  0.00    +0.292 HD
ENDBRANCH   5  10
ENDBRANCH   1   6
BRANCH   1  12
ATOM     12  C   UNL     1       4.485  -0.440  -1.337  0.00  0.00    +0.090 A 
ATOM     13  C   UNL     1       5.860  -0.578  -1.394  0.00  0.00    +0.131 A 
ATOM     14  C   UNL     1       6.511  -0.385  -2.633  0.00  0.00    +0.087 A 
ATOM     15  C   UNL     1       5.789  -0.075  -3.726  0.00  0.00    +0.110 A 
ATOM     16  O   UNL     1       4.456   0.056  -3.663  0.00  0.00    -0.427 OA
ATOM     17  C   UNL     1       3.789  -0.122  -2.510  0.00  0.00    +0.345 A 
ATOM     18  O   UNL     1       2.575  -0.001  -2.483  0.00  0.00    -0.245 OA
ATOM     19  C   UNL     1       6.491   0.128  -5.044  0.00  0.00    +0.086 C 
BRANCH  13  20
ATOM     20  O   UNL     1       6.569  -0.889  -0.283  0.00  0.00    -0.506 OA
ATOM     21  H   UNL     1       6.681  -1.839  -0.142  0.00  0.00    +0.292 HD
ENDBRANCH  13  20
ENDBRANCH   1  12
BRANCH   1  22
ATOM     22  C   UNL     1       4.591  -0.124   1.101  0.00  0.00    -0.028 A 
ATOM     23  C   UNL     1       4.623  -0.811   2.300  0.00  0.00    +0.054 A 
ATOM     24  C   UNL     1       5.403  -0.346   3.348  0.00  0.00    +0.165 A 
ATOM     25  C   UNL     1       6.143   0.821   3.196  0.00  0.00    +0.204 A 
ATOM     26  C   UNL     1       6.104   1.512   1.991  0.00  0.00    +0.165 A 
ATOM     27  C   UNL     1       5.327   1.036   0.946  0.00  0.00    +0.054 A 
BRANCH  26  28
ATOM     28  O   UNL     1       6.827   2.654   1.837  0.00  0.00    -0.491 OA
ATOM     29  C   UNL     1       6.738   3.312   0.572  0.00  0.00    +0.277 C 
ENDBRANCH  26  28
BRANCH  25  30
ATOM     30  O   UNL     1       6.905   1.284   4.224  0.00  0.00    -0.488 OA
ATOM     31  C   UNL     1       6.281   2.188   5.138  0.00  0.00    +0.277 C 
ENDBRANCH  25  30
BRANCH  24  32
ATOM     32  O   UNL     1       5.438  -1.026   4.525  0.00  0.00    -0.491 OA
ATOM     33  C   UNL     1       4.652  -2.216   4.610  0.00  0.00    +0.277 C 
ENDBRANCH  24  32
ENDBRANCH   1  22
TORSDOF 8
