REMARK  Name = ZINC09119826
REMARK  11 active torsions:
REMARK  status: ('A' for Active; 'I' for Inactive)
REMARK    1  A    between atoms: C_1  and  N_51
REMARK    2  A    between atoms: C_2  and  N_51
REMARK    3  A    between atoms: C_3  and  C_4
REMARK    4  A    between atoms: C_3  and  N_51
REMARK    5  A    between atoms: C_4  and  N_5
REMARK    6  A    between atoms: N_5  and  S_6
REMARK    7  A    between atoms: S_6  and  C_9
REMARK    8  A    between atoms: C_12  and  N_18
REMARK    9  A    between atoms: C_13  and  N_15
REMARK   10  A    between atoms: N_18  and  C_19
REMARK   11  A    between atoms: C_19  and  C_20
REMARK                            x       y       z     vdW  Elec       q    Type
REMARK                         _______ _______ _______ _____ _____    ______ ____
ROOT
ATOM      1  C   UNL     1       8.533  -0.408   5.978  0.00  0.00    +0.108 A 
ATOM      2  C   UNL     1       8.565  -0.818   4.657  0.00  0.00    +0.030 A 
ATOM      3  C   UNL     1       7.417  -0.775   3.891  0.00  0.00    +0.027 A 
ATOM      4  C   UNL     1       6.229  -0.320   4.449  0.00  0.00    +0.058 A 
ATOM      5  C   UNL     1       6.201   0.096   5.774  0.00  0.00    +0.149 A 
ATOM      6  C   UNL     1       7.352   0.045   6.536  0.00  0.00    +0.063 A 
ENDROOT
BRANCH   1   7
ATOM      7  S   UNL     1      10.000  -0.465   6.952  0.00  0.00    +0.058 S 
ATOM      8  O   UNL     1       9.585  -0.543   8.308  0.00  0.00    -0.153 OA
ATOM      9  O   UNL     1      10.845  -1.440   6.357  0.00  0.00    -0.153 OA
BRANCH   7  10
ATOM     10  N   UNL     1      10.763   0.995   6.774  0.00  0.00    -0.192 NA
ATOM     11  H   UNL     1      11.630   1.039   6.342  0.00  0.00    +0.148 HD
BRANCH  10  12
ATOM     12  C   UNL     1      10.127   2.218   7.268  0.00  0.00    +0.087 C 
BRANCH  12  13
ATOM     13  C   UNL     1      11.162   3.343   7.327  0.00  0.00    -0.063 C 
BRANCH  13  16
ATOM     14  C   UNL     1      10.098   4.415   9.219  0.00  0.00    -0.097 C 
ATOM     15  C   UNL     1      11.418   5.726   7.670  0.00  0.00    -0.097 C 
ATOM     16  N   UNL     1      10.501   4.575   7.806  0.00  0.00    +0.377 N 
ATOM     17  H   UNL     1       9.664   4.747   7.238  0.00  0.00    -0.083 HD
ENDBRANCH  13  16
ENDBRANCH  12  13
ENDBRANCH  10  12
ENDBRANCH   7  10
ENDBRANCH   1   7
BRANCH   5  18
ATOM     18  N   UNL     1       4.939   0.587   6.370  0.00  0.00    +0.058 N 
ATOM     19  O   UNL     1       4.937   1.050   7.497  0.00  0.00    -0.126 OA
ATOM     20  O   UNL     1       3.901   0.527   5.735  0.00  0.00    -0.126 OA
ENDBRANCH   5  18
BRANCH   4  21
ATOM     21  N   UNL     1       5.065  -0.276   3.677  0.00  0.00    -0.338 N 
ATOM     22  H   UNL     1       4.219  -0.037   4.088  0.00  0.00    +0.146 HD
BRANCH  21  23
ATOM     23  C   UNL     1       5.122  -0.589   2.247  0.00  0.00    +0.137 C 
BRANCH  23  24
ATOM     24  C   UNL     1       3.744  -0.469   1.651  0.00  0.00    -0.027 A 
ATOM     25  C   UNL     1       2.906  -1.568   1.623  0.00  0.00    +0.009 A 
ATOM     26  C   UNL     1       1.640  -1.463   1.078  0.00  0.00    +0.050 A 
ATOM     27  C   UNL     1       1.208  -0.254   0.557  0.00  0.00    +0.166 A 
ATOM     28  C   UNL     1       2.052   0.854   0.585  0.00  0.00    +0.167 A 
ATOM     29  C   UNL     1       3.319   0.741   1.133  0.00  0.00    +0.054 A 
ATOM     30  O   UNL     1       1.402   1.912   0.018  0.00  0.00    -0.453 OA
ATOM     31  C   UNL     1       0.008   1.549   0.014  0.00  0.00    +0.466 C 
ATOM     32  O   UNL     1       0.029   0.110  -0.027  0.00  0.00    -0.453 OA
ENDBRANCH  23  24
ENDBRANCH  21  23
ENDBRANCH   4  21
TORSDOF 9
