REMARK  Name = ZINC49035920
REMARK  2 active torsions:
REMARK  status: ('A' for Active; 'I' for Inactive)
REMARK    1  A    between atoms: C_4  and  C_7
REMARK    2  A    between atoms: C_17  and  N_18
REMARK                            x       y       z     vdW  Elec       q    Type
REMARK                         _______ _______ _______ _____ _____    ______ ____
ROOT
ATOM      1  C   UNL     1       3.362  -0.839  -0.069  0.00  0.00    +0.068 C 
ATOM      2  C   UNL     1       3.260  -1.769  -1.278  0.00  0.00    +0.015 C 
ATOM      3  C   UNL     1       4.500  -2.671  -1.303  0.00  0.00    +0.006 C 
ATOM      4  C   UNL     1       4.409  -3.650  -0.133  0.00  0.00    +0.040 C 
ATOM      5  C   UNL     1       4.132  -2.914   1.149  0.00  0.00    +0.015 A 
ATOM      6  C   UNL     1       3.647  -1.632   1.178  0.00  0.00    +0.059 A 
ATOM      7  N   UNL     1       3.421  -1.058   2.357  0.00  0.00    -0.219 NA
ATOM      8  C   UNL     1       3.656  -1.702   3.489  0.00  0.00    +0.214 A 
ATOM      9  N   UNL     1       4.124  -2.941   3.498  0.00  0.00    -0.199 NA
ATOM     10  C   UNL     1       4.375  -3.567   2.364  0.00  0.00    +0.130 A 
ATOM     11  N   UNL     1       3.407  -1.065   4.692  0.00  0.00    -0.327 N 
ATOM     12  H   UNL     1       3.064  -0.158   4.699  0.00  0.00    +0.145 HD
ATOM     13  H   UNL     1       3.575  -1.526   5.529  0.00  0.00    +0.145 HD
ENDROOT
BRANCH  10  14
ATOM     14  N   UNL     1       4.865  -4.862   2.377  0.00  0.00    -0.316 N 
ATOM     15  C   UNL     1       6.285  -5.245   2.476  0.00  0.00    +0.108 C 
ATOM     16  C   UNL     1       6.326  -6.778   2.469  0.00  0.00    -0.006 C 
ATOM     17  C   UNL     1       7.440  -7.340   3.321  0.00  0.00    +0.002 C 
ATOM     18  C   UNL     1       7.178  -7.087   4.807  0.00  0.00    -0.019 C 
ATOM     19  C   UNL     1       5.810  -7.686   5.155  0.00  0.00    -0.082 C 
ATOM     20  N   UNL     1       4.781  -6.968   4.401  0.00  0.00    +0.382 N 
ATOM     21  C   UNL     1       4.928  -7.185   2.975  0.00  0.00    -0.050 C 
ATOM     22  C   UNL     1       4.052  -6.092   2.300  0.00  0.00    +0.091 C 
ATOM     23  H   UNL     1       3.871  -7.288   4.696  0.00  0.00    -0.085 HD
ATOM     24  H   UNL     1       4.860  -5.980   4.595  0.00  0.00    -0.085 HD
ENDBRANCH  10  14
BRANCH   1  28
ATOM     25  C   UNL     1      -0.325   1.266   0.404  0.00  0.00    +0.000 A 
ATOM     26  C   UNL     1       0.847   1.965   0.185  0.00  0.00    +0.000 A 
ATOM     27  C   UNL     1       2.040   1.284   0.032  0.00  0.00    +0.004 A 
ATOM     28  C   UNL     1       2.062  -0.097   0.099  0.00  0.00    -0.038 A 
ATOM     29  C   UNL     1       0.889  -0.796   0.318  0.00  0.00    +0.004 A 
ATOM     30  C   UNL     1      -0.304  -0.115   0.470  0.00  0.00    +0.000 A 
ENDBRANCH   1  28
TORSDOF 2
