REMARK  Name = ZINC39422118
REMARK  12 active torsions:
REMARK  status: ('A' for Active; 'I' for Inactive)
REMARK    1  A    between atoms: C_1  and  C_2
REMARK    2  A    between atoms: C_5  and  C_7
REMARK    3  A    between atoms: C_7  and  N_8
REMARK    4  A    between atoms: N_8  and  C_9
REMARK    5  A    between atoms: N_8  and  C_19
REMARK    6  A    between atoms: C_11  and  C_17
REMARK    7  A    between atoms: C_11  and  C_18
REMARK    8  A    between atoms: C_13  and  C_15
REMARK    9  A    between atoms: C_13  and  C_16
REMARK   10  A    between atoms: C_19  and  N_21
REMARK   11  A    between atoms: N_21  and  C_22
REMARK   12  A    between atoms: C_25  and  C_29
REMARK                            x       y       z     vdW  Elec       q    Type
REMARK                         _______ _______ _______ _____ _____    ______ ____
ROOT
ATOM      1  N   UNL     1       1.803  -3.666  -1.411  0.00  0.00    -0.302 N 
ENDROOT
BRANCH   1   2
ATOM      2  C   UNL     1       2.956  -3.056  -2.085  0.00  0.00    +0.073 C 
ATOM      3  C   UNL     1       4.212  -3.289  -1.243  0.00  0.00    +0.009 C 
ATOM      4  C   UNL     1       5.420  -2.648  -1.927  0.00  0.00    -0.072 C 
ATOM      5  N   UNL     1       5.200  -1.241  -2.223  0.00  0.00    +0.386 N 
ATOM      6  C   UNL     1       3.938  -0.870  -2.843  0.00  0.00    -0.072 C 
ATOM      7  C   UNL     1       2.731  -1.549  -2.204  0.00  0.00    +0.009 C 
ATOM      8  C   UNL     1       3.759   0.655  -2.655  0.00  0.00    -0.010 C 
ATOM      9  C   UNL     1       3.949  -1.136  -4.351  0.00  0.00    -0.010 C 
ATOM     10  C   UNL     1       5.806  -3.445  -3.172  0.00  0.00    -0.010 C 
ATOM     11  C   UNL     1       6.606  -2.738  -0.939  0.00  0.00    -0.010 C 
ATOM     12  H   UNL     1       5.299  -0.711  -1.353  0.00  0.00    -0.084 HD
ATOM     13  H   UNL     1       5.962  -0.915  -2.822  0.00  0.00    -0.084 HD
ENDBRANCH   1   2
BRANCH   1  14
ATOM     14  C   UNL     1       1.016  -4.534  -2.075  0.00  0.00    +0.138 C 
ATOM     15  S   UNL     1      -0.401  -5.146  -1.333  0.00  0.00    -0.018 S 
BRANCH  14  16
ATOM     16  N   UNL     1       1.343  -4.921  -3.324  0.00  0.00    -0.296 N 
ATOM     17  H   UNL     1       0.896  -4.524  -4.088  0.00  0.00    +0.154 HD
BRANCH  16  18
ATOM     18  C   UNL     1       2.329  -5.896  -3.519  0.00  0.00    +0.051 A 
ATOM     19  C   UNL     1       2.891  -6.545  -2.428  0.00  0.00    +0.025 A 
ATOM     20  C   UNL     1       3.863  -7.506  -2.623  0.00  0.00    +0.014 A 
ATOM     21  C   UNL     1       4.277  -7.823  -3.904  0.00  0.00    +0.056 A 
ATOM     22  C   UNL     1       3.720  -7.179  -4.994  0.00  0.00    +0.034 A 
ATOM     23  C   UNL     1       2.742  -6.220  -4.805  0.00  0.00    +0.063 A 
ATOM     24 CL   UNL     1       2.037  -5.417  -6.174  0.00  0.00    -0.082 Cl
BRANCH  21  25
ATOM     25  C   UNL     1       5.338  -8.873  -4.113  0.00  0.00    +0.417 C 
ATOM     26  F   UNL     1       4.733 -10.127  -4.250  0.00  0.00    -0.166 F 
ATOM     27  F   UNL     1       6.065  -8.577  -5.272  0.00  0.00    -0.166 F 
ATOM     28  F   UNL     1       6.202  -8.888  -3.013  0.00  0.00    -0.166 F 
ENDBRANCH  21  25
ENDBRANCH  16  18
ENDBRANCH  14  16
ENDBRANCH   1  14
BRANCH   1  29
ATOM     29  C   UNL     1       1.509  -3.330  -0.015  0.00  0.00    +0.181 C 
BRANCH  29  34
ATOM     30  C   UNL     1      -0.116   1.441   0.167  0.00  0.00    +0.086 C 
ATOM     31  C   UNL     1      -0.120  -0.065   0.111  0.00  0.00    +0.102 A 
ATOM     32  C   UNL     1      -1.213  -0.849   0.086  0.00  0.00    +0.045 A 
ATOM     33  C   UNL     1      -0.758  -2.186   0.035  0.00  0.00    +0.046 A 
ATOM     34  C   UNL     1       0.587  -2.140   0.032  0.00  0.00    +0.122 A 
ATOM     35  O   UNL     1       0.967  -0.853   0.072  0.00  0.00    -0.463 OA
ENDBRANCH  29  34
ENDBRANCH   1  29
TORSDOF 7
