REMARK  Name = ZINC04030702
REMARK  8 active torsions:
REMARK  status: ('A' for Active; 'I' for Inactive)
REMARK    1  A    between atoms: C_1  and  C_2
REMARK    2  A    between atoms: C_2  and  C_5
REMARK    3  A    between atoms: N_3  and  O_4
REMARK    4  A    between atoms: C_10  and  C_32
REMARK    5  A    between atoms: C_21  and  C_31
REMARK    6  A    between atoms: C_24  and  O_27
REMARK    7  A    between atoms: O_27  and  C_28
REMARK    8  A    between atoms: C_28  and  C_30
REMARK                            x       y       z     vdW  Elec       q    Type
REMARK                         _______ _______ _______ _____ _____    ______ ____
ROOT
ATOM      1  C   UNL     1      -0.000  -0.732  -1.274  0.00  0.00    -0.021 C 
ATOM      2  C   UNL     1      -0.013  -0.168  -2.484  0.00  0.00    -0.021 C 
ATOM      3  C   UNL     1      -0.013  -1.241  -3.558  0.00  0.00    +0.032 C 
ATOM      4  C   UNL     1      -0.600  -2.484  -2.814  0.00  0.00    +0.006 C 
ATOM      5  C   UNL     1       0.019  -2.231  -1.422  0.00  0.00    -0.002 C 
ATOM      6  C   UNL     1      -0.694  -2.954  -0.307  0.00  0.00    +0.012 C 
ATOM      7  C   UNL     1      -2.196  -2.678  -0.331  0.00  0.00    +0.005 C 
ATOM      8  C   UNL     1      -2.751  -3.141  -1.684  0.00  0.00    -0.001 C 
ATOM      9  C   UNL     1      -2.119  -2.298  -2.808  0.00  0.00    -0.003 C 
ATOM     10  C   UNL     1      -2.679  -2.704  -4.173  0.00  0.00    +0.004 C 
ATOM     11  C   UNL     1      -4.191  -2.480  -4.196  0.00  0.00    +0.004 C 
ATOM     12  C   UNL     1      -4.646  -1.934  -2.841  0.00  0.00    -0.001 C 
ATOM     13  C   UNL     1      -4.272  -2.957  -1.683  0.00  0.00    -0.026 C 
ATOM     14  C   UNL     1      -4.714  -2.436  -0.314  0.00  0.00    +0.011 C 
ATOM     15  C   UNL     1      -6.231  -2.238  -0.307  0.00  0.00    +0.045 C 
ATOM     16  C   UNL     1      -6.618  -1.226  -1.387  0.00  0.00    +0.177 C 
ATOM     17  C   UNL     1      -6.161  -1.720  -2.863  0.00  0.00    +0.048 C 
ATOM     18  C   UNL     1      -4.950  -4.298  -1.968  0.00  0.00    +0.012 C 
ATOM     19  C   UNL     1       1.475  -2.699  -1.441  0.00  0.00    +0.016 C 
ENDROOT
BRANCH   1  21
ATOM     20  C   UNL     1      -0.018   1.503   0.010  0.00  0.00    +0.069 C 
ATOM     21  C   UNL     1       0.002  -0.004   0.002  0.00  0.00    +0.080 C 
ATOM     22  N   UNL     1       0.022  -0.658   1.120  0.00  0.00    -0.092 NA
BRANCH  22  23
ATOM     23  O   UNL     1       0.024   0.044   2.350  0.00  0.00    -0.409 OA
ATOM     24  H   UNL     1       0.039  -0.529   3.130  0.00  0.00    +0.328 HD
ENDBRANCH  22  23
ENDBRANCH   1  21
BRANCH  16  25
ATOM     25  O   UNL     1      -8.035  -1.040  -1.380  0.00  0.00    -0.462 OA
BRANCH  25  26
ATOM     26  C   UNL     1      -8.519  -0.071  -0.587  0.00  0.00    +0.304 C 
ATOM     27  O   UNL     1      -7.764   0.597   0.079  0.00  0.00    -0.251 OA
ATOM     28  C   UNL     1     -10.003   0.183  -0.528  0.00  0.00    +0.136 C 
ENDBRANCH  25  26
ENDBRANCH  16  25
TORSDOF 4
