REMARK  Name = ZINC29563370
REMARK  7 active torsions:
REMARK  status: ('A' for Active; 'I' for Inactive)
REMARK    1  A    between atoms: N_9  and  C_10
REMARK    2  A    between atoms: C_10  and  C_11
REMARK    3  A    between atoms: C_11  and  C_12
REMARK    4  A    between atoms: C_12  and  N_13
REMARK    5  A    between atoms: C_16  and  N_19
REMARK    6  A    between atoms: N_28  and  C_29
REMARK    7  A    between atoms: C_29  and  C_30
REMARK                            x       y       z     vdW  Elec       q    Type
REMARK                         _______ _______ _______ _____ _____    ______ ____
ROOT
ATOM      1  N   UNL     1       7.378  -0.072   2.755  0.00  0.00    +0.380 N 
ATOM      2  C   UNL     1       6.736   1.065   3.425  0.00  0.00    -0.077 C 
ATOM      3  C   UNL     1       7.185   1.121   4.886  0.00  0.00    +0.003 C 
ATOM      4  C   UNL     1       8.707   1.286   4.942  0.00  0.00    +0.070 C 
ATOM      5  C   UNL     1       9.364   0.134   4.176  0.00  0.00    +0.003 C 
ATOM      6  C   UNL     1       8.834   0.115   2.741  0.00  0.00    -0.077 C 
ATOM      7  H   UNL     1       7.154  -0.922   3.250  0.00  0.00    -0.082 HD
ENDROOT
BRANCH   4   8
ATOM      8  N   UNL     1       9.151   1.264   6.338  0.00  0.00    -0.312 N 
ATOM      9  C   UNL     1      10.329   1.884   6.696  0.00  0.00    +0.198 A 
ATOM     10  N   UNL     1      11.123   2.525   5.874  0.00  0.00    -0.213 NA
ATOM     11  C   UNL     1      12.189   3.010   6.560  0.00  0.00    +0.110 A 
ATOM     12  C   UNL     1      13.316   3.752   6.196  0.00  0.00    +0.033 A 
ATOM     13  C   UNL     1      14.227   4.083   7.182  0.00  0.00    +0.022 A 
ATOM     14  C   UNL     1      13.999   3.675   8.486  0.00  0.00    +0.113 A 
ATOM     15  N   UNL     1      12.930   2.975   8.809  0.00  0.00    -0.236 NA
ATOM     16  C   UNL     1      12.027   2.633   7.905  0.00  0.00    +0.162 A 
ATOM     17  N   UNL     1      10.840   1.927   7.962  0.00  0.00    -0.292 N 
ATOM     18  H   UNL     1       8.617   0.812   7.010  0.00  0.00    +0.149 HD
BRANCH  17  19
ATOM     19  C   UNL     1      10.242   1.331   9.159  0.00  0.00    +0.161 C 
BRANCH  19  20
ATOM     20  C   UNL     1      10.747  -0.079   9.324  0.00  0.00    -0.027 A 
ATOM     21  C   UNL     1      10.066  -1.130   8.737  0.00  0.00    +0.008 A 
ATOM     22  C   UNL     1      10.529  -2.423   8.887  0.00  0.00    +0.038 A 
ATOM     23  C   UNL     1      11.674  -2.667   9.626  0.00  0.00    +0.123 A 
ATOM     24  C   UNL     1      12.354  -1.615  10.214  0.00  0.00    +0.038 A 
ATOM     25  C   UNL     1      11.893  -0.321  10.058  0.00  0.00    +0.008 A 
ATOM     26  F   UNL     1      12.126  -3.932   9.774  0.00  0.00    -0.205 F 
ENDBRANCH  19  20
ENDBRANCH  17  19
ENDBRANCH   4   8
BRANCH   1  27
ATOM     27  C   UNL     1       6.885  -0.168   1.374  0.00  0.00    -0.077 C 
BRANCH  27  28
ATOM     28  C   UNL     1       5.389  -0.487   1.388  0.00  0.00    +0.003 C 
BRANCH  28  29
ATOM     29  C   UNL     1       4.875  -0.586  -0.050  0.00  0.00    +0.125 C 
BRANCH  29  38
ATOM     30  C   UNL     1      -0.017   1.377   0.010  0.00  0.00    +0.002 A 
ATOM     31  C   UNL     1       1.169   2.091   0.002  0.00  0.00    +0.002 A 
ATOM     32  C   UNL     1       2.381   1.429  -0.013  0.00  0.00    +0.028 A 
ATOM     33  C   UNL     1       2.410   0.043  -0.021  0.00  0.00    +0.070 A 
ATOM     34  C   UNL     1       1.214  -0.678  -0.013  0.00  0.00    +0.067 A 
ATOM     35  C   UNL     1       0.002  -0.004   0.002  0.00  0.00    +0.028 A 
ATOM     36  N   UNL     1       1.557  -2.028  -0.024  0.00  0.00    -0.306 N 
ATOM     37  C   UNL     1       2.900  -2.124  -0.037  0.00  0.00    +0.328 A 
ATOM     38  N   UNL     1       3.443  -0.892  -0.036  0.00  0.00    -0.292 N 
ATOM     39  O   UNL     1       3.528  -3.166  -0.049  0.00  0.00    -0.247 OA
ATOM     40  H   UNL     1       0.934  -2.772  -0.021  0.00  0.00    +0.170 HD
ENDBRANCH  29  38
ENDBRANCH  28  29
ENDBRANCH  27  28
ENDBRANCH   1  27
TORSDOF 7
