REMARK  Name = ZINC39667089
REMARK  11 active torsions:
REMARK  status: ('A' for Active; 'I' for Inactive)
REMARK    1  A    between atoms: C_1  and  C_2
REMARK    2  A    between atoms: C_5  and  C_9
REMARK    3  A    between atoms: C_6  and  C_8
REMARK    4  A    between atoms: C_9  and  C_10
REMARK    5  A    between atoms: C_10  and  N_11
REMARK    6  A    between atoms: C_12  and  C_14
REMARK    7  A    between atoms: C_25  and  C_27
REMARK    8  A    between atoms: C_31  and  O_34
REMARK    9  A    between atoms: C_32  and  C_33
REMARK   10  A    between atoms: O_34  and  C_35
REMARK   11  A    between atoms: C_35  and  C_37
REMARK                            x       y       z     vdW  Elec       q    Type
REMARK                         _______ _______ _______ _____ _____    ______ ____
ROOT
ATOM      1  C   UNL     1      -3.183  -8.373   0.646  0.00  0.00    +0.100 C 
ATOM      2  C   UNL     1      -2.149  -8.941   1.645  0.00  0.00    +0.121 C 
ATOM      3  N   UNL     1      -2.920  -9.174   2.889  0.00  0.00    -0.296 N 
ATOM      4  C   UNL     1      -4.225  -9.699   2.421  0.00  0.00    +0.115 C 
ATOM      5  C   UNL     1      -4.543  -8.876   1.157  0.00  0.00    -0.004 C 
ATOM      6  C   UNL     1      -5.444  -7.696   1.511  0.00  0.00    -0.010 C 
ATOM      7  C   UNL     1      -6.810  -8.221   1.963  0.00  0.00    -0.082 C 
ATOM      8  N   UNL     1      -7.412  -9.016   0.885  0.00  0.00    +0.379 N 
ATOM      9  C   UNL     1      -6.586 -10.199   0.615  0.00  0.00    -0.082 C 
ATOM     10  C   UNL     1      -5.210  -9.758   0.107  0.00  0.00    -0.010 C 
ATOM     11  C   UNL     1      -2.523  -8.958   4.159  0.00  0.00    +0.247 C 
ATOM     12  O   UNL     1      -3.239  -9.289   5.083  0.00  0.00    -0.270 OA
ATOM     13  H   UNL     1      -8.336  -9.309   1.162  0.00  0.00    -0.086 HD
ATOM     14  H   UNL     1      -7.476  -8.454   0.050  0.00  0.00    -0.086 HD
ENDROOT
BRANCH  11  15
ATOM     15  C   UNL     1      -1.218  -8.318   4.427  0.00  0.00    +0.043 A 
ATOM     16  C   UNL     1      -0.123  -8.587   3.603  0.00  0.00    +0.013 A 
ATOM     17  C   UNL     1       1.094  -7.988   3.856  0.00  0.00    +0.004 A 
ATOM     18  C   UNL     1       1.233  -7.120   4.923  0.00  0.00    +0.047 A 
ATOM     19  C   UNL     1       0.151  -6.846   5.747  0.00  0.00    +0.135 A 
ATOM     20  C   UNL     1      -1.077  -7.438   5.500  0.00  0.00    +0.004 A 
ATOM     21  C   UNL     1      -2.254  -7.137   6.390  0.00  0.00    +0.048 C 
BRANCH  19  22
ATOM     22  O   UNL     1       0.294  -5.992   6.795  0.00  0.00    -0.426 OA
BRANCH  22  23
ATOM     23  C   UNL     1       0.588  -6.512   7.997  0.00  0.00    +0.309 C 
ATOM     24  O   UNL     1       0.809  -7.695   8.105  0.00  0.00    -0.251 OA
ATOM     25  C   UNL     1       0.642  -5.621   9.211  0.00  0.00    +0.136 C 
ENDBRANCH  22  23
ENDBRANCH  19  22
ENDBRANCH  11  15
BRANCH   1  27
ATOM     26  N   UNL     1      -3.508  -6.180  -0.450  0.00  0.00    -0.315 N 
ATOM     27  C   UNL     1      -3.145  -6.867   0.651  0.00  0.00    +0.218 C 
ATOM     28  O   UNL     1      -2.788  -6.272   1.646  0.00  0.00    -0.275 OA
ATOM     29  H   UNL     1      -3.794  -6.655  -1.246  0.00  0.00    +0.149 HD
BRANCH  26  30
ATOM     30  C   UNL     1      -3.471  -4.715  -0.446  0.00  0.00    +0.109 C 
BRANCH  30  31
ATOM     31  C   UNL     1      -3.928  -4.189  -1.808  0.00  0.00    +0.054 C 
BRANCH  31  36
ATOM     32  C   UNL     1      -3.781   1.588  -1.786  0.00  0.00    +0.044 C 
ATOM     33  C   UNL     1      -3.820   0.081  -1.792  0.00  0.00    -0.050 A 
ATOM     34  C   UNL     1      -4.999  -0.581  -1.505  0.00  0.00    +0.003 A 
ATOM     35  C   UNL     1      -5.034  -1.963  -1.510  0.00  0.00    +0.004 A 
ATOM     36  C   UNL     1      -3.890  -2.683  -1.803  0.00  0.00    -0.043 A 
ATOM     37  C   UNL     1      -2.712  -2.020  -2.090  0.00  0.00    -0.047 A 
ATOM     38  C   UNL     1      -2.677  -0.638  -2.089  0.00  0.00    +0.007 A 
ATOM     39  C   UNL     1      -1.465  -2.804  -2.408  0.00  0.00    +0.044 C 
ENDBRANCH  31  36
ENDBRANCH  30  31
ENDBRANCH  26  30
ENDBRANCH   1  27
TORSDOF 7
