REMARK  Name = ZINC08535468
REMARK  3 active torsions:
REMARK  status: ('A' for Active; 'I' for Inactive)
REMARK    1  A    between atoms: C_1  and  C_2
REMARK    2  A    between atoms: C_12  and  C_14
REMARK    3  A    between atoms: C_14  and  C_15
REMARK                            x       y       z     vdW  Elec       q    Type
REMARK                         _______ _______ _______ _____ _____    ______ ____
ROOT
ATOM      1  C   UNL     1      -0.759   1.596  -1.227  0.00  0.00    +0.008 C 
ATOM      2  C   UNL     1      -0.013   1.086   0.008  0.00  0.00    -0.009 C 
ATOM      3  C   UNL     1       1.423   1.619  -0.003  0.00  0.00    +0.010 C 
ATOM      4  C   UNL     1       2.250   0.924   1.080  0.00  0.00    +0.056 C 
ATOM      5  C   UNL     1       1.519   1.048   2.411  0.00  0.00    +0.054 A 
ATOM      6  C   UNL     1       0.194   1.346   2.439  0.00  0.00    +0.015 A 
ATOM      7  S   UNL     1      -0.163   1.375   4.175  0.00  0.00    -0.057 S 
ATOM      8  C   UNL     1       1.441   0.996   4.728  0.00  0.00    +0.165 A 
ATOM      9  N   UNL     1       2.103   0.881   3.595  0.00  0.00    -0.229 NA
ATOM     10  N   UNL     1       1.906   0.852   6.030  0.00  0.00    -0.264 N 
ATOM     11  C   UNL     1       3.201   0.553   6.254  0.00  0.00    +0.223 C 
ATOM     12  O   UNL     1       3.961   0.409   5.320  0.00  0.00    -0.275 OA
ATOM     13  C   UNL     1      -0.715   1.585   1.281  0.00  0.00    +0.047 C 
ATOM     14  H   UNL     1       1.298   0.966   6.777  0.00  0.00    +0.157 HD
ENDROOT
BRANCH  11  15
ATOM     15  C   UNL     1       3.704   0.396   7.666  0.00  0.00    +0.135 C 
BRANCH  15  16
ATOM     16  C   UNL     1       5.174   0.065   7.641  0.00  0.00    +0.007 A 
ATOM     17  C   UNL     1       5.727  -1.158   7.689  0.00  0.00    +0.200 A 
ATOM     18  O   UNL     1       7.066  -1.057   7.645  0.00  0.00    -0.463 OA
ATOM     19  C   UNL     1       7.449   0.234   7.567  0.00  0.00    +0.136 A 
ATOM     20  C   UNL     1       6.286   1.010   7.553  0.00  0.00    +0.031 A 
ATOM     21  C   UNL     1       6.396   2.460   7.466  0.00  0.00    -0.007 A 
ATOM     22  C   UNL     1       5.268   3.287   7.451  0.00  0.00    +0.009 A 
ATOM     23  C   UNL     1       5.422   4.639   7.368  0.00  0.00    +0.001 A 
ATOM     24  C   UNL     1       6.690   5.210   7.298  0.00  0.00    +0.001 A 
ATOM     25  C   UNL     1       7.809   4.434   7.310  0.00  0.00    +0.008 A 
ATOM     26  C   UNL     1       7.687   3.038   7.395  0.00  0.00    -0.017 A 
ATOM     27  C   UNL     1       8.822   2.204   7.409  0.00  0.00    +0.012 A 
ATOM     28  C   UNL     1       8.700   0.856   7.499  0.00  0.00    +0.047 A 
ENDBRANCH  15  16
ENDBRANCH  11  15
TORSDOF 2
