REMARK  Name = ZINC14544849
REMARK  6 active torsions:
REMARK  status: ('A' for Active; 'I' for Inactive)
REMARK    1  A    between atoms: C_1  and  C_2
REMARK    2  A    between atoms: C_2  and  C_3
REMARK    3  A    between atoms: C_2  and  N_4
REMARK    4  A    between atoms: N_4  and  S_5
REMARK    5  A    between atoms: S_5  and  C_8
REMARK    6  A    between atoms: C_21  and  C_24
REMARK                            x       y       z     vdW  Elec       q    Type
REMARK                         _______ _______ _______ _____ _____    ______ ____
ROOT
ATOM      1  C   UNL     1       1.205  -0.685   0.003  0.00  0.00    +0.106 A 
ATOM      2  C   UNL     1       2.397   0.016   0.011  0.00  0.00    +0.030 A 
ATOM      3  C   UNL     1       2.389   1.395   0.010  0.00  0.00    +0.025 A 
ATOM      4  C   UNL     1       1.185   2.091   0.002  0.00  0.00    +0.031 A 
ATOM      5  C   UNL     1      -0.017   1.374   0.010  0.00  0.00    -0.018 A 
ATOM      6  C   UNL     1       0.002  -0.004   0.002  0.00  0.00    +0.034 A 
ATOM      7  C   UNL     1      -1.274   2.151   0.046  0.00  0.00    +0.049 C 
ATOM      8  C   UNL     1      -2.551   1.608  -0.482  0.00  0.00    -0.023 C 
ATOM      9  C   UNL     1      -3.283   2.616  -0.942  0.00  0.00    -0.030 C 
ATOM     10  C   UNL     1      -2.519   3.932  -0.782  0.00  0.00    +0.033 C 
ATOM     11  C   UNL     1      -1.063   3.447  -0.792  0.00  0.00    +0.029 C 
ATOM     12  C   UNL     1      -0.052   4.273  -0.016  0.00  0.00    +0.107 C 
ATOM     13  N   UNL     1       1.202   3.490  -0.034  0.00  0.00    -0.336 N 
ATOM     14  H   UNL     1       2.053   3.955  -0.072  0.00  0.00    +0.147 HD
ENDROOT
BRANCH  12  15
ATOM     15  C   UNL     1       0.157   5.607  -0.684  0.00  0.00    -0.002 A 
ATOM     16  C   UNL     1       1.086   5.901  -1.607  0.00  0.00    +0.089 A 
ATOM     17  N   UNL     1       0.971   7.211  -1.985  0.00  0.00    -0.360 N 
ATOM     18  H   UNL     1       1.532   7.652  -2.643  0.00  0.00    +0.165 HD
ATOM     19  C   UNL     1      -0.056   7.810  -1.291  0.00  0.00    +0.047 A 
ATOM     20  C   UNL     1      -0.611   6.832  -0.446  0.00  0.00    +0.005 A 
ATOM     21  C   UNL     1      -1.683   7.157   0.387  0.00  0.00    +0.010 A 
ATOM     22  C   UNL     1      -2.189   8.427   0.376  0.00  0.00    +0.001 A 
ATOM     23  C   UNL     1      -1.645   9.396  -0.456  0.00  0.00    +0.002 A 
ATOM     24  C   UNL     1      -0.586   9.095  -1.286  0.00  0.00    +0.026 A 
ENDBRANCH  12  15
BRANCH   1  25
ATOM     25  S   UNL     1       1.220  -2.447  -0.005  0.00  0.00    +0.059 S 
ATOM     26  O   UNL     1       2.466  -2.846   0.548  0.00  0.00    -0.153 OA
ATOM     27  O   UNL     1      -0.025  -2.867   0.538  0.00  0.00    -0.153 OA
BRANCH  25  28
ATOM     28  N   UNL     1       1.230  -2.929  -1.590  0.00  0.00    -0.187 NA
ATOM     29  H   UNL     1       0.474  -3.416  -1.954  0.00  0.00    +0.148 HD
BRANCH  28  31
ATOM     30  C   UNL     1       2.609  -3.767  -3.428  0.00  0.00    +0.025 C 
ATOM     31  C   UNL     1       2.381  -2.620  -2.442  0.00  0.00    +0.070 C 
ATOM     32  C   UNL     1       2.109  -1.328  -3.216  0.00  0.00    +0.025 C 
ENDBRANCH  28  31
ENDBRANCH  25  28
ENDBRANCH   1  25
TORSDOF 4
