REMARK  Name = ZINC12887180
REMARK  9 active torsions:
REMARK  status: ('A' for Active; 'I' for Inactive)
REMARK    1  A    between atoms: C_1  and  C_2
REMARK    2  A    between atoms: C_2  and  C_3
REMARK    3  A    between atoms: C_3  and  C_5
REMARK    4  A    between atoms: C_3  and  C_6
REMARK    5  A    between atoms: C_6  and  C_8
REMARK    6  A    between atoms: C_6  and  N_18
REMARK    7  A    between atoms: N_10  and  C_11
REMARK    8  A    between atoms: C_11  and  C_12
REMARK    9  A    between atoms: C_19  and  C_21
REMARK                            x       y       z     vdW  Elec       q    Type
REMARK                         _______ _______ _______ _____ _____    ______ ____
ROOT
ATOM      1  C   UNL     1       0.270  10.299   1.026  0.00  0.00    +0.167 C 
ATOM      2  C   UNL     1      -0.809  10.547  -0.038  0.00  0.00    +0.069 C 
ATOM      3  C   UNL     1      -0.432  11.726  -0.898  0.00  0.00    -0.015 A 
ATOM      4  C   UNL     1      -1.298  12.475  -1.791  0.00  0.00    +0.003 A 
ATOM      5  C   UNL     1      -2.654  12.356  -2.109  0.00  0.00    +0.010 A 
ATOM      6  C   UNL     1      -3.159  13.256  -3.014  0.00  0.00    +0.001 A 
ATOM      7  C   UNL     1      -2.372  14.238  -3.593  0.00  0.00    +0.002 A 
ATOM      8  C   UNL     1      -1.028  14.378  -3.297  0.00  0.00    +0.026 A 
ATOM      9  C   UNL     1      -0.487  13.478  -2.380  0.00  0.00    +0.047 A 
ATOM     10  N   UNL     1       0.771  13.332  -1.874  0.00  0.00    -0.356 N 
ATOM     11  H   UNL     1       1.535  13.883  -2.108  0.00  0.00    +0.166 HD
ATOM     12  C   UNL     1       0.794  12.291  -0.986  0.00  0.00    +0.046 A 
ATOM     13  C   UNL     1       1.978  11.814  -0.180  0.00  0.00    +0.155 C 
ATOM     14  N   UNL     1       1.578  10.509   0.397  0.00  0.00    -0.273 N 
ATOM     15  C   UNL     1       2.569   9.631   0.192  0.00  0.00    +0.248 C 
ATOM     16  O   UNL     1       2.654   8.537   0.714  0.00  0.00    -0.270 OA
ATOM     17  C   UNL     1       3.536  10.193  -0.757  0.00  0.00    +0.042 A 
ATOM     18  C   UNL     1       3.171  11.528  -1.026  0.00  0.00    -0.009 A 
ATOM     19  C   UNL     1       3.875  12.300  -1.923  0.00  0.00    +0.006 A 
ATOM     20  C   UNL     1       4.973  11.710  -2.541  0.00  0.00    +0.000 A 
ATOM     21  C   UNL     1       5.347  10.408  -2.273  0.00  0.00    +0.001 A 
ATOM     22  C   UNL     1       4.645   9.615  -1.378  0.00  0.00    +0.013 A 
ENDROOT
BRANCH   1  24
ATOM     23  N   UNL     1       0.439   7.851   0.712  0.00  0.00    -0.302 N 
ATOM     24  C   UNL     1       0.170   8.884   1.535  0.00  0.00    +0.235 C 
ATOM     25  O   UNL     1      -0.153   8.675   2.685  0.00  0.00    -0.274 OA
ATOM     26  H   UNL     1       0.697   8.019  -0.208  0.00  0.00    +0.150 HD
BRANCH  23  27
ATOM     27  C   UNL     1       0.342   6.476   1.207  0.00  0.00    +0.162 C 
BRANCH  27  28
ATOM     28  C   UNL     1       1.232   5.581   0.383  0.00  0.00    +0.234 C 
ATOM     29  O   UNL     1       1.883   6.047  -0.528  0.00  0.00    -0.274 OA
ATOM     30  N   UNL     1       1.304   4.264   0.658  0.00  0.00    -0.311 N 
ATOM     31  H   UNL     1       0.783   3.892   1.387  0.00  0.00    +0.149 HD
BRANCH  30  32
ATOM     32  C   UNL     1       2.169   3.395  -0.143  0.00  0.00    +0.135 C 
BRANCH  32  33
ATOM     33  C   UNL     1       2.067   1.958   0.374  0.00  0.00    +0.135 C 
ATOM     34  C   UNL     1       2.984   1.016  -0.448  0.00  0.00    +0.035 C 
ATOM     35  C   UNL     1       2.300  -0.358  -0.247  0.00  0.00    +0.031 C 
ATOM     36  C   UNL     1       0.858  -0.006   0.166  0.00  0.00    +0.160 C 
ATOM     37  O   UNL     1       0.745   1.427   0.143  0.00  0.00    -0.375 OA
ENDBRANCH  32  33
ENDBRANCH  30  32
ENDBRANCH  27  28
BRANCH  27  38
ATOM     38  C   UNL     1      -1.107   5.995   1.097  0.00  0.00    +0.015 C 
ATOM     39  C   UNL     1      -2.010   6.904   1.933  0.00  0.00    +0.010 C 
BRANCH  38  41
ATOM     40  C   UNL     1      -2.953   5.447  -0.495  0.00  0.00    +0.004 C 
ATOM     41  C   UNL     1      -1.550   6.044  -0.367  0.00  0.00    +0.002 C 
ENDBRANCH  38  41
ENDBRANCH  27  38
ENDBRANCH  23  27
ENDBRANCH   1  24
TORSDOF 7
