REMARK  Name = ZINC15680298
REMARK  11 active torsions:
REMARK  status: ('A' for Active; 'I' for Inactive)
REMARK    1  A    between atoms: C_1  and  C_2
REMARK    2  A    between atoms: C_2  and  C_3
REMARK    3  A    between atoms: C_2  and  C_4
REMARK    4  A    between atoms: C_7  and  N_10
REMARK    5  A    between atoms: C_11  and  C_13
REMARK    6  A    between atoms: C_13  and  N_14
REMARK    7  A    between atoms: C_15  and  C_17
REMARK    8  A    between atoms: C_17  and  C_29
REMARK    9  A    between atoms: N_19  and  S_25
REMARK   10  A    between atoms: N_23  and  C_24
REMARK   11  A    between atoms: S_25  and  C_28
REMARK                            x       y       z     vdW  Elec       q    Type
REMARK                         _______ _______ _______ _____ _____    ______ ____
ROOT
ATOM      1  N   UNL     1      -0.073   0.723   0.183  0.00  0.00    -0.305 N 
ATOM      2  C   UNL     1       1.036   1.487   0.148  0.00  0.00    +0.238 C 
ATOM      3  O   UNL     1       0.940   2.695   0.113  0.00  0.00    -0.273 OA
ATOM      4  H   UNL     1       0.001  -0.243   0.139  0.00  0.00    +0.149 HD
ENDROOT
BRANCH   2   5
ATOM      5  C   UNL     1       2.397   0.840   0.151  0.00  0.00    +0.124 C 
ATOM      6  C   UNL     1       2.776   0.471   1.587  0.00  0.00    +0.144 C 
ATOM      7  N   UNL     1       3.942  -0.427   1.539  0.00  0.00    -0.170 NA
ATOM      8  C   UNL     1       3.775  -1.713   0.846  0.00  0.00    +0.205 C 
ATOM      9  C   UNL     1       3.008  -1.484  -0.428  0.00  0.00    +0.232 C 
ATOM     10  O   UNL     1       2.971  -2.375  -1.249  0.00  0.00    -0.274 OA
ATOM     11  N   UNL     1       2.366  -0.346  -0.695  0.00  0.00    -0.288 N 
ATOM     12  C   UNL     1       1.575  -0.283  -1.926  0.00  0.00    +0.133 C 
ATOM     13  C   UNL     1       3.426   1.827  -0.403  0.00  0.00    +0.043 C 
BRANCH   7  14
ATOM     14  S   UNL     1       5.383  -0.005   2.237  0.00  0.00    +0.029 S 
ATOM     15  O   UNL     1       6.365  -0.730   1.509  0.00  0.00    -0.158 OA
ATOM     16  O   UNL     1       5.384   1.416   2.238  0.00  0.00    -0.158 OA
ATOM     17  C   UNL     1       5.278  -0.631   3.937  0.00  0.00    +0.215 C 
ENDBRANCH   7  14
ENDBRANCH   2   5
BRANCH   1  18
ATOM     18  C   UNL     1      -1.393   1.352   0.283  0.00  0.00    +0.200 C 
BRANCH  18  20
ATOM     19  N   UNL     1      -3.757   0.633   0.386  0.00  0.00    -0.284 N 
ATOM     20  C   UNL     1      -2.458   0.286   0.298  0.00  0.00    +0.234 C 
ATOM     21  O   UNL     1      -2.145  -0.884   0.232  0.00  0.00    -0.274 OA
ATOM     22  H   UNL     1      -4.004   1.563   0.502  0.00  0.00    +0.155 HD
BRANCH  19  26
ATOM     23  C   UNL     1      -6.714  -2.293   0.155  0.00  0.00    -0.045 A 
ATOM     24  C   UNL     1      -5.510  -2.576   0.774  0.00  0.00    +0.006 A 
ATOM     25  C   UNL     1      -4.528  -1.608   0.852  0.00  0.00    +0.023 A 
ATOM     26  C   UNL     1      -4.750  -0.350   0.308  0.00  0.00    +0.033 A 
ATOM     27  C   UNL     1      -5.962  -0.067  -0.307  0.00  0.00    +0.023 A 
ATOM     28  C   UNL     1      -6.939  -1.041  -0.387  0.00  0.00    +0.006 A 
BRANCH  23  30
ATOM     29  C   UNL     1      -9.044  -2.860   0.785  0.00  0.00    +0.012 C 
ATOM     30  C   UNL     1      -7.783  -3.352   0.071  0.00  0.00    +0.013 C 
ATOM     31  C   UNL     1      -8.106  -3.636  -1.397  0.00  0.00    +0.012 C 
ENDBRANCH  23  30
ENDBRANCH  19  26
ENDBRANCH  18  20
ENDBRANCH   1  18
TORSDOF 6
