REMARK  Name = ZINC36648961
REMARK  13 active torsions:
REMARK  status: ('A' for Active; 'I' for Inactive)
REMARK    1  A    between atoms: C_1  and  C_2
REMARK    2  A    between atoms: C_2  and  N_3
REMARK    3  A    between atoms: N_3  and  C_4
REMARK    4  A    between atoms: N_3  and  C_6
REMARK    5  A    between atoms: C_4  and  C_5
REMARK    6  A    between atoms: C_6  and  C_7
REMARK    7  A    between atoms: C_7  and  N_8
REMARK    8  A    between atoms: N_17  and  C_18
REMARK    9  A    between atoms: C_18  and  C_20
REMARK   10  A    between atoms: C_20  and  N_21
REMARK   11  A    between atoms: C_26  and  C_33
REMARK   12  A    between atoms: C_29  and  C_31
REMARK   13  A    between atoms: C_29  and  C_32
REMARK                            x       y       z     vdW  Elec       q    Type
REMARK                         _______ _______ _______ _____ _____    ______ ____
ROOT
ATOM      1  N   UNL     1       2.224  -3.717  -0.499  0.00  0.00    -0.314 N 
ATOM      2  C   UNL     1       3.343  -4.392  -0.023  0.00  0.00    +0.068 A 
ATOM      3  C   UNL     1       4.452  -3.990   0.709  0.00  0.00    +0.028 A 
ATOM      4  C   UNL     1       5.426  -4.909   1.043  0.00  0.00    +0.002 A 
ATOM      5  C   UNL     1       5.303  -6.231   0.650  0.00  0.00    +0.002 A 
ATOM      6  C   UNL     1       4.204  -6.642  -0.079  0.00  0.00    +0.028 A 
ATOM      7  C   UNL     1       3.219  -5.726  -0.419  0.00  0.00    +0.066 A 
ATOM      8  N   UNL     1       2.026  -5.833  -1.127  0.00  0.00    -0.326 N 
ATOM      9  C   UNL     1       1.438  -4.608  -1.159  0.00  0.00    +0.201 A 
ATOM     10  N   UNL     1       0.278  -4.325  -1.746  0.00  0.00    -0.145 NA
ATOM     11  H   UNL     1       1.674  -6.643  -1.527  0.00  0.00    +0.169 HD
ENDROOT
BRANCH  10  12
ATOM     12  C   UNL     1      -0.463  -5.303  -2.260  0.00  0.00    +0.257 C 
ATOM     13  O   UNL     1      -0.127  -6.462  -2.111  0.00  0.00    -0.272 OA
BRANCH  12  14
ATOM     14  C   UNL     1      -1.718  -4.974  -3.026  0.00  0.00    +0.215 C 
BRANCH  14  15
ATOM     15  N   UNL     1      -2.348  -6.213  -3.485  0.00  0.00    -0.215 N 
ATOM     16  C   UNL     1      -2.107  -6.794  -4.680  0.00  0.00    +0.247 C 
ATOM     17  O   UNL     1      -1.490  -6.308  -5.603  0.00  0.00    -0.273 OA
ATOM     18  C   UNL     1      -2.767  -8.149  -4.609  0.00  0.00    +0.113 C 
ATOM     19  C   UNL     1      -3.649  -8.390  -5.824  0.00  0.00    +0.038 C 
ATOM     20  C   UNL     1      -2.782  -8.651  -7.056  0.00  0.00    -0.011 C 
ATOM     21  C   UNL     1      -1.960  -9.916  -6.815  0.00  0.00    +0.009 C 
ATOM     22  C   UNL     1      -1.031  -9.745  -5.619  0.00  0.00    -0.032 C 
ATOM     23  C   UNL     1      -1.760  -9.258  -4.378  0.00  0.00    +0.041 C 
ATOM     24  C   UNL     1      -0.414 -11.124  -5.301  0.00  0.00    +0.011 C 
ATOM     25  C   UNL     1       0.118  -8.799  -5.978  0.00  0.00    +0.011 C 
ATOM     26  C   UNL     1      -3.686  -8.858  -8.276  0.00  0.00    +0.007 C 
ATOM     27  N   UNL     1      -3.628  -8.035  -3.409  0.00  0.00    -0.285 N 
ATOM     28  C   UNL     1      -3.258  -6.902  -2.786  0.00  0.00    +0.310 C 
ATOM     29  O   UNL     1      -3.698  -6.545  -1.711  0.00  0.00    -0.252 OA
ATOM     30  H   UNL     1      -4.316  -8.659  -3.141  0.00  0.00    +0.151 HD
ENDBRANCH  14  15
ENDBRANCH  12  14
ENDBRANCH  10  12
BRANCH   1  31
ATOM     31  C   UNL     1       1.938  -2.292  -0.316  0.00  0.00    +0.106 C 
BRANCH  31  32
ATOM     32  C   UNL     1       1.144  -2.093   0.976  0.00  0.00    -0.057 C 
BRANCH  32  33
ATOM     33  N   UNL     1       0.858  -0.664   1.160  0.00  0.00    +0.380 N 
ATOM     34  H   UNL     1       1.721  -0.142   1.134  0.00  0.00    -0.082 HD
BRANCH  33  36
ATOM     35  C   UNL     1      -0.212   1.315   0.194  0.00  0.00    -0.017 C 
ATOM     36  C   UNL     1      -0.028  -0.200   0.084  0.00  0.00    -0.082 C 
ENDBRANCH  33  36
BRANCH  33  37
ATOM     37  C   UNL     1       0.201  -0.460   2.458  0.00  0.00    -0.082 C 
ATOM     38  C   UNL     1       1.176  -0.809   3.584  0.00  0.00    -0.017 C 
ENDBRANCH  33  37
ENDBRANCH  32  33
ENDBRANCH  31  32
ENDBRANCH   1  31
TORSDOF 8
