REMARK  Name = ZINC64588686
REMARK  9 active torsions:
REMARK  status: ('A' for Active; 'I' for Inactive)
REMARK    1  A    between atoms: C_1  and  C_2
REMARK    2  A    between atoms: C_2  and  C_3
REMARK    3  A    between atoms: C_5  and  C_8
REMARK    4  A    between atoms: C_11  and  N_14
REMARK    5  A    between atoms: C_16  and  C_20
REMARK    6  A    between atoms: C_17  and  C_19
REMARK    7  A    between atoms: N_22  and  C_23
REMARK    8  A    between atoms: C_23  and  C_24
REMARK    9  A    between atoms: C_30  and  C_34
REMARK                            x       y       z     vdW  Elec       q    Type
REMARK                         _______ _______ _______ _____ _____    ______ ____
ROOT
ATOM      1  N   UNL     1       7.403  -2.558  -4.483  0.00  0.00    -0.249 N 
ATOM      2  C   UNL     1       7.752  -3.009  -5.841  0.00  0.00    +0.169 C 
ATOM      3  C   UNL     1       9.246  -3.242  -5.785  0.00  0.00    +0.051 C 
ATOM      4  C   UNL     1       9.643  -2.945  -4.533  0.00  0.00    +0.029 C 
ATOM      5  N   UNL     1       8.602  -2.542  -3.759  0.00  0.00    -0.268 N 
ATOM      6  C   UNL     1      11.067  -3.043  -4.051  0.00  0.00    +0.062 C 
ATOM      7  H   UNL     1       8.678  -2.280  -2.828  0.00  0.00    +0.170 HD
ENDROOT
BRANCH   1  11
ATOM      8  C   UNL     1       3.619  -1.520  -3.085  0.00  0.00    +0.023 A 
ATOM      9  C   UNL     1       4.721  -1.452  -2.234  0.00  0.00    +0.013 A 
ATOM     10  C   UNL     1       5.972  -1.796  -2.698  0.00  0.00    +0.025 A 
ATOM     11  C   UNL     1       6.136  -2.211  -4.015  0.00  0.00    +0.048 A 
ATOM     12  C   UNL     1       5.038  -2.280  -4.866  0.00  0.00    +0.025 A 
ATOM     13  C   UNL     1       3.785  -1.942  -4.404  0.00  0.00    +0.013 A 
BRANCH   8  16
ATOM     14  C   UNL     1       0.707  -0.490  -1.238  0.00  0.00    +0.227 A 
ATOM     15  N   UNL     1       1.983  -0.731  -1.343  0.00  0.00    -0.191 NA
ATOM     16  C   UNL     1       2.272  -1.151  -2.588  0.00  0.00    +0.202 A 
ATOM     17  N   UNL     1       1.164  -1.178  -3.288  0.00  0.00    -0.056 NA
ATOM     18  O   UNL     1       0.127  -0.753  -2.416  0.00  0.00    -0.338 OA
BRANCH  14  20
ATOM     19  C   UNL     1      -0.019   1.526   0.010  0.00  0.00    +0.014 C 
ATOM     20  C   UNL     1       0.002  -0.004   0.002  0.00  0.00    +0.095 C 
ENDBRANCH  14  20
ENDBRANCH   8  16
ENDBRANCH   1  11
BRANCH   3  21
ATOM     21  C   UNL     1      10.069  -3.687  -6.846  0.00  0.00    +0.243 C 
ATOM     22  O   UNL     1      11.265  -3.834  -6.668  0.00  0.00    -0.270 OA
ATOM     23  N   UNL     1       9.530  -3.947  -8.053  0.00  0.00    -0.308 N 
ATOM     24  H   UNL     1       8.578  -3.830  -8.195  0.00  0.00    +0.149 HD
BRANCH  23  25
ATOM     25  C   UNL     1      10.383  -4.408  -9.152  0.00  0.00    +0.151 C 
BRANCH  25  26
ATOM     26  C   UNL     1       9.529  -4.629 -10.402  0.00  0.00    +0.191 C 
ATOM     27  N   UNL     1       8.465  -5.600 -10.121  0.00  0.00    -0.362 N 
ATOM     28  C   UNL     1       7.327  -4.998 -10.310  0.00  0.00    +0.060 A 
ATOM     29  C   UNL     1       5.930  -5.441 -10.190  0.00  0.00    +0.027 A 
ATOM     30  C   UNL     1       4.933  -4.575 -10.458  0.00  0.00    +0.005 A 
ATOM     31  C   UNL     1       5.169  -3.246 -10.854  0.00  0.00    -0.048 A 
ATOM     32  C   UNL     1       6.410  -2.739 -10.994  0.00  0.00    +0.030 A 
ATOM     33  C   UNL     1       7.576  -3.592 -10.729  0.00  0.00    +0.060 A 
ATOM     34  N   UNL     1       8.860  -3.378 -10.782  0.00  0.00    -0.362 N 
ATOM     35  C   UNL     1       3.986  -2.353 -11.132  0.00  0.00    +0.044 C 
ATOM     36  H   UNL     1       8.588  -6.522  -9.844  0.00  0.00    +0.162 HD
ATOM     37  H   UNL     1       9.295  -2.546 -11.027  0.00  0.00    +0.162 HD
ENDBRANCH  25  26
ENDBRANCH  23  25
ENDBRANCH   3  21
TORSDOF 6
