REMARK  Name = ZINC00928369
REMARK  3 active torsions:
REMARK  status: ('A' for Active; 'I' for Inactive)
REMARK    1  A    between atoms: C_7  and  C_13
REMARK    2  A    between atoms: C_13  and  S_14
REMARK    3  A    between atoms: S_14  and  C_15
REMARK                            x       y       z     vdW  Elec       q    Type
REMARK                         _______ _______ _______ _____ _____    ______ ____
ROOT
ATOM      1  C   UNL     1      -7.143  -0.062  -1.911  0.00  0.00    +0.197 A 
ATOM      2  N   UNL     1      -6.214  -0.082  -2.839  0.00  0.00    -0.122 NA
ATOM      3  N   UNL     1      -5.066   0.204  -2.329  0.00  0.00    -0.128 NA
ATOM      4  C   UNL     1      -5.199   0.422  -1.044  0.00  0.00    +0.173 A 
ATOM      5  N   UNL     1      -6.531   0.260  -0.732  0.00  0.00    -0.260 N 
ATOM      6  C   UNL     1      -6.968   0.428   0.550  0.00  0.00    +0.208 A 
ATOM      7  N   UNL     1      -6.148   0.744   1.512  0.00  0.00    -0.230 NA
ATOM      8  C   UNL     1      -4.845   0.920   1.307  0.00  0.00    +0.114 A 
ATOM      9  C   UNL     1      -4.258   0.780   0.041  0.00  0.00    +0.056 A 
ATOM     10  C   UNL     1      -2.859   0.995  -0.042  0.00  0.00    -0.024 A 
ATOM     11  C   UNL     1      -2.205   1.315   1.099  0.00  0.00    -0.004 A 
ATOM     12  S   UNL     1      -3.466   1.341   2.345  0.00  0.00    -0.073 S 
ATOM     13  C   UNL     1      -0.738   1.584   1.266  0.00  0.00    +0.043 C 
ATOM     14  C   UNL     1      -0.013   1.086   0.008  0.00  0.00    +0.005 C 
ATOM     15  C   UNL     1      -0.760   1.596  -1.228  0.00  0.00    +0.005 C 
ATOM     16  C   UNL     1      -2.100   0.874  -1.361  0.00  0.00    +0.037 C 
ENDROOT
BRANCH   1  17
ATOM     17  S   UNL     1      -8.859  -0.389  -2.142  0.00  0.00    -0.081 S 
BRANCH  17  18
ATOM     18  C   UNL     1      -9.003  -0.745  -3.915  0.00  0.00    +0.113 C 
BRANCH  18  25
ATOM     19  C   UNL     1     -10.893  -4.497  -2.890  0.00  0.00    +0.001 A 
ATOM     20  C   UNL     1     -12.221  -4.739  -3.216  0.00  0.00    +0.002 A 
ATOM     21  C   UNL     1     -12.968  -3.788  -3.876  0.00  0.00    +0.026 A 
ATOM     22  C   UNL     1     -12.388  -2.571  -4.220  0.00  0.00    +0.049 A 
ATOM     23  C   UNL     1     -11.042  -2.329  -3.887  0.00  0.00    +0.003 A 
ATOM     24  C   UNL     1     -10.303  -3.310  -3.217  0.00  0.00    +0.010 A 
ATOM     25  C   UNL     1     -10.440  -1.045  -4.253  0.00  0.00    -0.023 A 
ATOM     26  C   UNL     1     -11.207  -0.131  -4.896  0.00  0.00    +0.075 A 
ATOM     27  C   UNL     1     -12.551  -0.425  -5.211  0.00  0.00    +0.249 A 
ATOM     28  O   UNL     1     -13.221   0.410  -5.794  0.00  0.00    -0.268 OA
ATOM     29  N   UNL     1     -13.112  -1.601  -4.879  0.00  0.00    -0.322 N 
ATOM     30  H   UNL     1     -14.068  -1.774  -5.115  0.00  0.00    +0.169 HD
ENDBRANCH  18  25
ENDBRANCH  17  18
ENDBRANCH   1  17
TORSDOF 3
