REMARK  Name = ZINC02131864
REMARK  11 active torsions:
REMARK  status: ('A' for Active; 'I' for Inactive)
REMARK    1  A    between atoms: C_1  and  C_2
REMARK    2  A    between atoms: C_2  and  C_3
REMARK    3  A    between atoms: C_3  and  O_4
REMARK    4  A    between atoms: O_4  and  C_5
REMARK    5  A    between atoms: C_8  and  C_14
REMARK    6  A    between atoms: C_10  and  O_11
REMARK    7  A    between atoms: O_11  and  C_12
REMARK    8  A    between atoms: C_12  and  C_13
REMARK    9  A    between atoms: N_21  and  C_36
REMARK   10  A    between atoms: C_24  and  C_35
REMARK   11  A    between atoms: C_36  and  C_37
REMARK                            x       y       z     vdW  Elec       q    Type
REMARK                         _______ _______ _______ _____ _____    ______ ____
ROOT
ATOM      1  C   UNL     1       2.775  -0.826   3.682  0.00  0.00    +0.069 C 
ATOM      2  C   UNL     1       3.890  -0.072   4.418  0.00  0.00    +0.122 C 
ATOM      3  N   UNL     1       3.602  -0.090   5.864  0.00  0.00    -0.280 N 
ATOM      4  C   UNL     1       3.353   1.059   6.497  0.00  0.00    +0.234 C 
ATOM      5  O   UNL     1       3.513   2.091   5.882  0.00  0.00    -0.274 OA
ATOM      6  C   UNL     1       2.892   1.155   7.915  0.00  0.00    +0.203 C 
ATOM      7  N   UNL     1       2.689  -0.154   8.516  0.00  0.00    -0.288 N 
ATOM      8  C   UNL     1       3.001  -1.300   7.911  0.00  0.00    +0.245 C 
ATOM      9  O   UNL     1       2.784  -2.336   8.504  0.00  0.00    -0.273 OA
ATOM     10  C   UNL     1       3.603  -1.384   6.548  0.00  0.00    +0.151 C 
ATOM     11  C   UNL     1       2.841  -2.367   5.691  0.00  0.00    +0.054 A 
ATOM     12  C   UNL     1       2.479  -2.109   4.415  0.00  0.00    -0.008 A 
ATOM     13  C   UNL     1       1.775  -3.280   3.931  0.00  0.00    +0.004 A 
ATOM     14  C   UNL     1       1.179  -3.587   2.704  0.00  0.00    +0.010 A 
ATOM     15  C   UNL     1       0.583  -4.819   2.596  0.00  0.00    +0.001 A 
ATOM     16  C   UNL     1       0.566  -5.724   3.645  0.00  0.00    +0.002 A 
ATOM     17  C   UNL     1       1.148  -5.446   4.870  0.00  0.00    +0.026 A 
ATOM     18  C   UNL     1       1.762  -4.202   5.009  0.00  0.00    +0.047 A 
ATOM     19  N   UNL     1       2.416  -3.616   6.054  0.00  0.00    -0.356 N 
ATOM     20  H   UNL     1       2.559  -4.024   6.922  0.00  0.00    +0.166 HD
ATOM     21  C   UNL     1       5.047  -1.876   6.673  0.00  0.00    +0.048 C 
ENDROOT
BRANCH   1  25
ATOM     22  C   UNL     1      -0.748   1.595   3.566  0.00  0.00    +0.162 A 
ATOM     23  C   UNL     1      -0.201   1.221   4.783  0.00  0.00    +0.050 A 
ATOM     24  C   UNL     1       0.938   0.439   4.817  0.00  0.00    +0.008 A 
ATOM     25  C   UNL     1       1.534   0.028   3.639  0.00  0.00    -0.035 A 
ATOM     26  C   UNL     1       0.990   0.393   2.422  0.00  0.00    +0.053 A 
ATOM     27  C   UNL     1      -0.148   1.182   2.380  0.00  0.00    +0.162 A 
BRANCH  22  28
ATOM     28  O   UNL     1      -1.869   2.365   3.531  0.00  0.00    -0.488 OA
BRANCH  28  29
ATOM     29  C   UNL     1      -2.430   2.752   4.787  0.00  0.00    +0.229 C 
BRANCH  29  31
ATOM     30  C   UNL     1      -4.276   4.022   5.891  0.00  0.00    +0.007 C 
ATOM     31  C   UNL     1      -3.675   3.608   4.547  0.00  0.00    +0.038 C 
ENDBRANCH  29  31
ENDBRANCH  28  29
ENDBRANCH  22  28
BRANCH  27  32
ATOM     32  O   UNL     1      -0.682   1.547   1.184  0.00  0.00    -0.489 OA
BRANCH  32  33
ATOM     33  C   UNL     1      -0.013   1.086   0.008  0.00  0.00    +0.226 C 
ATOM     34  C   UNL     1      -0.753   1.593  -1.232  0.00  0.00    +0.048 C 
ENDBRANCH  32  33
ENDBRANCH  27  32
ENDBRANCH   1  25
BRANCH   7  35
ATOM     35  C   UNL     1       2.110  -0.216   9.860  0.00  0.00    +0.140 C 
BRANCH  35  36
ATOM     36  C   UNL     1       3.230  -0.179  10.901  0.00  0.00    +0.136 C 
ATOM     37  C   UNL     1       2.631  -0.252  12.319  0.00  0.00    +0.035 C 
ATOM     38  C   UNL     1       3.277  -1.514  12.939  0.00  0.00    +0.031 C 
ATOM     39  C   UNL     1       4.538  -1.701  12.057  0.00  0.00    +0.160 C 
ATOM     40  O   UNL     1       4.087  -1.321  10.737  0.00  0.00    -0.375 OA
ENDBRANCH  35  36
ENDBRANCH   7  35
TORSDOF 8
