REMARK  Name = ZINC57341190
REMARK  4 active torsions:
REMARK  status: ('A' for Active; 'I' for Inactive)
REMARK    1  A    between atoms: C_1  and  C_2
REMARK    2  A    between atoms: C_8  and  S_11
REMARK    3  A    between atoms: S_11  and  C_12
REMARK    4  A    between atoms: C_17  and  N_18
REMARK                            x       y       z     vdW  Elec       q    Type
REMARK                         _______ _______ _______ _____ _____    ______ ____
ROOT
ATOM      1  C   UNL     1       0.490   1.506   0.045  0.00  0.00    +0.090 C 
ATOM      2  C   UNL     1       0.353   0.006   0.026  0.00  0.00    +0.151 A 
ATOM      3  N   UNL     1       0.279  -0.742  -1.068  0.00  0.00    -0.194 NA
ATOM      4  C   UNL     1       0.164  -2.022  -0.731  0.00  0.00    +0.254 A 
ATOM      5  N   UNL     1       0.056  -3.140  -1.452  0.00  0.00    -0.215 NA
ATOM      6  C   UNL     1      -0.048  -4.331  -0.881  0.00  0.00    +0.051 A 
ATOM      7  C   UNL     1      -0.043  -4.438   0.500  0.00  0.00    +0.006 A 
ATOM      8  C   UNL     1       0.065  -3.286   1.265  0.00  0.00    +0.112 A 
ATOM      9  N   UNL     1       0.168  -2.080   0.634  0.00  0.00    -0.190 N 
ATOM     10  N   UNL     1       0.294  -0.761   1.087  0.00  0.00    -0.148 NA
ATOM     11  C   UNL     1      -0.144  -5.758   1.214  0.00  0.00    +0.039 C 
ATOM     12  C   UNL     1      -0.679  -6.837   0.273  0.00  0.00    +0.005 C 
ATOM     13  C   UNL     1       0.154  -6.813  -1.014  0.00  0.00    +0.006 C 
ATOM     14  C   UNL     1      -0.174  -5.533  -1.781  0.00  0.00    +0.056 C 
ENDROOT
BRANCH   8  15
ATOM     15  S   UNL     1       0.068  -3.377   3.024  0.00  0.00    -0.068 S 
BRANCH  15  16
ATOM     16  C   UNL     1      -1.423  -2.566   3.497  0.00  0.00    +0.035 A 
ATOM     17  C   UNL     1      -2.325  -2.149   2.529  0.00  0.00    +0.017 A 
ATOM     18  C   UNL     1      -3.493  -1.512   2.901  0.00  0.00    +0.001 A 
ATOM     19  C   UNL     1      -3.767  -1.288   4.238  0.00  0.00    +0.002 A 
ATOM     20  C   UNL     1      -2.874  -1.700   5.210  0.00  0.00    +0.024 A 
ATOM     21  C   UNL     1      -1.702  -2.345   4.846  0.00  0.00    +0.039 A 
BRANCH  21  22
ATOM     22  N   UNL     1      -0.799  -2.768   5.827  0.00  0.00    -0.357 N 
ATOM     23  H   UNL     1       0.022  -3.216   5.571  0.00  0.00    +0.142 HD
ATOM     24  H   UNL     1      -0.995  -2.614   6.765  0.00  0.00    +0.142 HD
ENDBRANCH  21  22
ENDBRANCH  15  16
ENDBRANCH   8  15
TORSDOF 3
