REMARK  Name = ZINC39600646
REMARK  8 active torsions:
REMARK  status: ('A' for Active; 'I' for Inactive)
REMARK    1  A    between atoms: C_1  and  O_2
REMARK    2  A    between atoms: O_2  and  C_3
REMARK    3  A    between atoms: C_3  and  C_4
REMARK    4  A    between atoms: C_4  and  C_5
REMARK    5  A    between atoms: C_9  and  C_18
REMARK    6  A    between atoms: N_20  and  C_21
REMARK    7  A    between atoms: C_21  and  C_22
REMARK    8  A    between atoms: C_24  and  C_29
REMARK                            x       y       z     vdW  Elec       q    Type
REMARK                         _______ _______ _______ _____ _____    ______ ____
ROOT
ATOM      1  C   UNL     1       1.252  -2.707  -1.931  0.00  0.00    +0.218 C 
ATOM      2  O   UNL     1       1.723  -1.906  -2.711  0.00  0.00    -0.276 OA
ATOM      3  N   UNL     1       1.358  -4.028  -2.176  0.00  0.00    -0.300 N 
ATOM      4  C   UNL     1       0.844  -5.148  -1.352  0.00  0.00    +0.121 C 
ATOM      5  C   UNL     1       0.318  -6.177  -2.378  0.00  0.00    +0.100 C 
ATOM      6  C   UNL     1       1.091  -5.872  -3.672  0.00  0.00    -0.004 C 
ATOM      7  C   UNL     1       2.009  -4.689  -3.332  0.00  0.00    +0.115 C 
ATOM      8  C   UNL     1       0.124  -5.479  -4.785  0.00  0.00    -0.010 C 
ATOM      9  C   UNL     1       0.911  -5.236  -6.076  0.00  0.00    -0.082 C 
ATOM     10  N   UNL     1       1.641  -6.455  -6.443  0.00  0.00    +0.379 N 
ATOM     11  C   UNL     1       2.634  -6.774  -5.410  0.00  0.00    -0.082 C 
ATOM     12  C   UNL     1       1.920  -7.082  -4.090  0.00  0.00    -0.010 C 
ATOM     13  H   UNL     1       0.991  -7.222  -6.530  0.00  0.00    -0.086 HD
ATOM     14  H   UNL     1       2.110  -6.313  -7.325  0.00  0.00    -0.086 HD
ENDROOT
BRANCH   5  15
ATOM     15  C   UNL     1      -1.162  -5.995  -2.592  0.00  0.00    +0.218 C 
ATOM     16  O   UNL     1      -1.661  -4.895  -2.474  0.00  0.00    -0.275 OA
ATOM     17  N   UNL     1      -1.932  -7.052  -2.917  0.00  0.00    -0.311 N 
ATOM     18  H   UNL     1      -1.533  -7.931  -3.012  0.00  0.00    +0.149 HD
BRANCH  17  19
ATOM     19  C   UNL     1      -3.371  -6.875  -3.125  0.00  0.00    +0.139 C 
BRANCH  19  20
ATOM     20  C   UNL     1      -3.996  -8.201  -3.474  0.00  0.00    -0.027 A 
ATOM     21  C   UNL     1      -4.082  -8.598  -4.796  0.00  0.00    +0.017 A 
ATOM     22  C   UNL     1      -4.655  -9.814  -5.118  0.00  0.00    +0.058 A 
ATOM     23  C   UNL     1      -5.142 -10.635  -4.119  0.00  0.00    +0.050 A 
ATOM     24  C   UNL     1      -5.056 -10.239  -2.795  0.00  0.00    +0.124 A 
ATOM     25  C   UNL     1      -4.477  -9.023  -2.473  0.00  0.00    +0.043 A 
ATOM     26  F   UNL     1      -5.533 -11.040  -1.817  0.00  0.00    -0.205 F 
BRANCH  22  27
ATOM     27  C   UNL     1      -4.748 -10.245  -6.559  0.00  0.00    +0.418 C 
ATOM     28  F   UNL     1      -3.597 -10.959  -6.908  0.00  0.00    -0.166 F 
ATOM     29  F   UNL     1      -5.872 -11.059  -6.730  0.00  0.00    -0.166 F 
ATOM     30  F   UNL     1      -4.861  -9.115  -7.377  0.00  0.00    -0.166 F 
ENDBRANCH  22  27
ENDBRANCH  19  20
ENDBRANCH  17  19
ENDBRANCH   5  15
BRANCH   1  31
ATOM     31  C   UNL     1       0.546  -2.224  -0.690  0.00  0.00    +0.124 C 
BRANCH  31  32
ATOM     32  C   UNL     1       0.566  -0.695  -0.654  0.00  0.00    +0.168 C 
BRANCH  32  34
ATOM     33  C   UNL     1      -0.140   1.185   0.654  0.00  0.00    +0.194 C 
ATOM     34  O   UNL     1      -0.102  -0.238   0.523  0.00  0.00    -0.382 OA
ENDBRANCH  32  34
ENDBRANCH  31  32
ENDBRANCH   1  31
TORSDOF 7
