REMARK  Name = ZINC40586276
REMARK  8 active torsions:
REMARK  status: ('A' for Active; 'I' for Inactive)
REMARK    1  A    between atoms: C_1  and  C_2
REMARK    2  A    between atoms: C_4  and  C_26
REMARK    3  A    between atoms: C_7  and  N_8
REMARK    4  A    between atoms: C_10  and  N_22
REMARK    5  A    between atoms: C_11  and  N_15
REMARK    6  A    between atoms: N_15  and  C_16
REMARK    7  A    between atoms: C_26  and  C_28
REMARK    8  A    between atoms: C_26  and  C_30
REMARK                            x       y       z     vdW  Elec       q    Type
REMARK                         _______ _______ _______ _____ _____    ______ ____
ROOT
ATOM      1  N   UNL     1       1.209  -0.994   3.106  0.00  0.00    -0.297 N 
ATOM      2  C   UNL     1       0.836  -1.769   4.195  0.00  0.00    +0.159 A 
ATOM      3  C   UNL     1       0.960  -1.274   5.490  0.00  0.00    +0.206 A 
ATOM      4  C   UNL     1       0.572  -2.091   6.547  0.00  0.00    +0.159 A 
ATOM      5  N   UNL     1       0.100  -3.309   6.284  0.00  0.00    -0.218 NA
ATOM      6  C   UNL     1      -0.002  -3.741   5.043  0.00  0.00    +0.225 A 
ATOM      7  N   UNL     1       0.350  -2.996   4.015  0.00  0.00    -0.218 NA
ATOM      8  H   UNL     1       1.476  -0.070   3.238  0.00  0.00    +0.154 HD
ENDROOT
BRANCH   1  15
ATOM      9  C   UNL     1       0.685   0.739   0.911  0.00  0.00    +0.045 C 
ATOM     10  C   UNL     1       0.948  -0.733   0.721  0.00  0.00    -0.029 A 
ATOM     11  C   UNL     1       0.945  -1.277  -0.549  0.00  0.00    +0.011 A 
ATOM     12  C   UNL     1       1.186  -2.627  -0.726  0.00  0.00    -0.008 A 
ATOM     13  C   UNL     1       1.432  -3.438   0.369  0.00  0.00    +0.047 A 
ATOM     14  C   UNL     1       1.436  -2.899   1.642  0.00  0.00    +0.043 A 
ATOM     15  C   UNL     1       1.199  -1.542   1.821  0.00  0.00    +0.037 A 
ATOM     16 CL   UNL     1       1.734  -5.132   0.143  0.00  0.00    -0.083 Cl
BRANCH  12  17
ATOM     17  C   UNL     1       1.181  -3.216  -2.112  0.00  0.00    +0.153 C 
BRANCH  17  18
ATOM     18  C   UNL     1       2.292  -2.601  -2.924  0.00  0.00    -0.026 A 
ATOM     19  C   UNL     1       2.205  -1.281  -3.325  0.00  0.00    +0.006 A 
ATOM     20  C   UNL     1       3.224  -0.716  -4.069  0.00  0.00    +0.020 A 
ATOM     21  C   UNL     1       4.330  -1.472  -4.413  0.00  0.00    +0.041 A 
ATOM     22  C   UNL     1       4.417  -2.793  -4.011  0.00  0.00    +0.020 A 
ATOM     23  C   UNL     1       3.401  -3.355  -3.262  0.00  0.00    +0.006 A 
ATOM     24 CL   UNL     1       5.610  -0.763  -5.348  0.00  0.00    -0.084 Cl
ENDBRANCH  17  18
BRANCH  17  25
ATOM     25  C   UNL     1      -0.111  -2.938  -2.760  0.00  0.00    +0.075 C 
ATOM     26  N   UNL     1      -1.109  -2.723  -3.259  0.00  0.00    -0.196 NA
ENDBRANCH  17  25
ENDBRANCH  12  17
ENDBRANCH   1  15
BRANCH   3  27
ATOM     27  N   UNL     1       1.490   0.085   5.736  0.00  0.00    +0.063 N 
ATOM     28  O   UNL     1       0.736   1.030   5.781  0.00  0.00    -0.126 OA
ATOM     29  O   UNL     1       2.677   0.252   5.893  0.00  0.00    -0.126 OA
ENDBRANCH   3  27
BRANCH   4  30
ATOM     30  N   UNL     1       0.676  -1.645   7.857  0.00  0.00    -0.297 N 
ATOM     31  H   UNL     1       1.035  -0.763   8.041  0.00  0.00    +0.154 HD
BRANCH  30  32
ATOM     32  C   UNL     1       0.263  -2.463   8.907  0.00  0.00    +0.035 A 
ATOM     33  C   UNL     1       0.409  -3.848   8.834  0.00  0.00    +0.041 A 
ATOM     34  C   UNL     1      -0.012  -4.622   9.895  0.00  0.00    +0.084 A 
ATOM     35  N   UNL     1      -0.545  -4.069  10.967  0.00  0.00    -0.367 N 
ATOM     36  C   UNL     1      -0.701  -2.762  11.074  0.00  0.00    +0.084 A 
ATOM     37  C   UNL     1      -0.301  -1.918  10.060  0.00  0.00    +0.041 A 
ATOM     38  H   UNL     1      -0.832  -4.638  11.698  0.00  0.00    +0.165 HD
ENDBRANCH  30  32
ENDBRANCH   4  30
TORSDOF 7
