REMARK  Name = ZINC39491745
REMARK  15 active torsions:
REMARK  status: ('A' for Active; 'I' for Inactive)
REMARK    1  A    between atoms: C_1  and  C_2
REMARK    2  A    between atoms: C_2  and  C_3
REMARK    3  A    between atoms: C_2  and  C_4
REMARK    4  A    between atoms: C_4  and  N_5
REMARK    5  A    between atoms: N_5  and  C_6
REMARK    6  A    between atoms: C_6  and  C_7
REMARK    7  A    between atoms: N_9  and  C_20
REMARK    8  A    between atoms: C_13  and  C_16
REMARK    9  A    between atoms: C_16  and  O_18
REMARK   10  A    between atoms: O_18  and  C_19
REMARK   11  A    between atoms: C_20  and  C_21
REMARK   12  A    between atoms: C_21  and  C_23
REMARK   13  A    between atoms: C_21  and  S_30
REMARK   14  A    between atoms: C_28  and  O_29
REMARK   15  A    between atoms: S_30  and  C_33
REMARK                            x       y       z     vdW  Elec       q    Type
REMARK                         _______ _______ _______ _____ _____    ______ ____
ROOT
ATOM      1  C   UNL     1      -3.016  -3.881  -0.280  0.00  0.00    -0.039 A 
ATOM      2  C   UNL     1      -3.164  -4.621  -1.389  0.00  0.00    +0.088 A 
ATOM      3  N   UNL     1      -3.004  -5.947  -1.090  0.00  0.00    -0.344 N 
ATOM      4  C   UNL     1      -2.743  -6.099   0.250  0.00  0.00    +0.049 A 
ATOM      5  C   UNL     1      -2.732  -4.810   0.818  0.00  0.00    +0.002 A 
ATOM      6  C   UNL     1      -2.484  -4.651   2.179  0.00  0.00    +0.025 A 
ATOM      7  C   UNL     1      -2.245  -5.774   2.966  0.00  0.00    +0.060 A 
ATOM      8  C   UNL     1      -2.255  -7.051   2.387  0.00  0.00    +0.017 A 
ATOM      9  C   UNL     1      -2.506  -7.210   1.057  0.00  0.00    +0.027 A 
ENDROOT
BRANCH   7  10
ATOM     10  C   UNL     1      -1.980  -5.621   4.409  0.00  0.00    +0.339 C 
ATOM     11  O   UNL     1      -1.970  -4.514   4.911  0.00  0.00    -0.245 OA
BRANCH  10  12
ATOM     12  O   UNL     1      -1.748  -6.708   5.171  0.00  0.00    -0.464 OA
ATOM     13  C   UNL     1      -1.499  -6.485   6.560  0.00  0.00    +0.280 C 
ENDBRANCH  10  12
ENDBRANCH   7  10
BRANCH   1  14
ATOM     14  C   UNL     1      -3.115  -2.380  -0.182  0.00  0.00    -0.045 C 
BRANCH  14  15
ATOM     15  N   UNL     1      -1.766  -1.800  -0.172  0.00  0.00    +0.382 N 
ATOM     16  H   UNL     1      -1.285  -2.050  -1.022  0.00  0.00    -0.085 HD
ATOM     17  H   UNL     1      -1.254  -2.155   0.622  0.00  0.00    -0.085 HD
BRANCH  15  18
ATOM     18  C   UNL     1      -1.863  -0.337  -0.077  0.00  0.00    -0.079 C 
BRANCH  18  20
ATOM     19  C   UNL     1      -0.559   1.794  -0.092  0.00  0.00    +0.005 C 
ATOM     20  C   UNL     1      -0.458   0.268  -0.065  0.00  0.00    -0.034 C 
ATOM     21  C   UNL     1       0.276  -0.172   1.203  0.00  0.00    +0.005 C 
ENDBRANCH  18  20
ENDBRANCH  15  18
ENDBRANCH  14  15
ENDBRANCH   1  14
BRANCH   3  22
ATOM     22  C   UNL     1      -3.099  -7.044  -2.057  0.00  0.00    +0.153 C 
BRANCH  22  23
ATOM     23  C   UNL     1      -4.517  -7.618  -2.040  0.00  0.00    +0.189 C 
BRANCH  23  24
ATOM     24  C   UNL     1      -4.650  -8.662  -3.118  0.00  0.00    +0.020 A 
ATOM     25  C   UNL     1      -4.356  -9.984  -2.842  0.00  0.00    +0.009 A 
ATOM     26  C   UNL     1      -4.477 -10.942  -3.831  0.00  0.00    +0.001 A 
ATOM     27  C   UNL     1      -4.893 -10.580  -5.100  0.00  0.00    +0.004 A 
ATOM     28  C   UNL     1      -5.188  -9.261  -5.381  0.00  0.00    +0.046 A 
ATOM     29  C   UNL     1      -5.072  -8.298  -4.388  0.00  0.00    +0.122 A 
BRANCH  29  30
ATOM     30  O   UNL     1      -5.368  -7.000  -4.661  0.00  0.00    -0.506 OA
ATOM     31  H   UNL     1      -4.615  -6.484  -4.979  0.00  0.00    +0.292 HD
ENDBRANCH  29  30
ENDBRANCH  23  24
BRANCH  23  32
ATOM     32  S   UNL     1      -4.843  -8.374  -0.423  0.00  0.00    +0.006 S 
ATOM     33  O   UNL     1      -3.933  -9.440  -0.189  0.00  0.00    -0.169 OA
ATOM     34  O   UNL     1      -5.046  -7.366   0.557  0.00  0.00    -0.169 OA
BRANCH  32  35
ATOM     35  C   UNL     1      -6.413  -9.155  -0.597  0.00  0.00    +0.089 A 
ATOM     36  C   UNL     1      -7.569  -8.454  -0.309  0.00  0.00    +0.027 A 
ATOM     37  C   UNL     1      -8.801  -9.067  -0.445  0.00  0.00    +0.002 A 
ATOM     38  C   UNL     1      -8.877 -10.380  -0.870  0.00  0.00    +0.000 A 
ATOM     39  C   UNL     1      -7.721 -11.081  -1.159  0.00  0.00    +0.002 A 
ATOM     40  C   UNL     1      -6.489 -10.467  -1.027  0.00  0.00    +0.027 A 
ENDBRANCH  32  35
ENDBRANCH  23  32
ENDBRANCH  22  23
ENDBRANCH   3  22
TORSDOF 12
