REMARK  Name = ZINC65608242
REMARK  8 active torsions:
REMARK  status: ('A' for Active; 'I' for Inactive)
REMARK    1  A    between atoms: C_1  and  C_2
REMARK    2  A    between atoms: C_6  and  C_8
REMARK    3  A    between atoms: C_6  and  C_9
REMARK    4  A    between atoms: C_10  and  C_12
REMARK    5  A    between atoms: C_12  and  C_13
REMARK    6  A    between atoms: C_12  and  N_14
REMARK    7  A    between atoms: C_15  and  C_17
REMARK    8  A    between atoms: C_21  and  N_23
REMARK                            x       y       z     vdW  Elec       q    Type
REMARK                         _______ _______ _______ _____ _____    ______ ____
ROOT
ATOM      1  C   UNL     1      -0.172  -2.212  -3.365  0.00  0.00    +0.156 C 
ATOM      2  C   UNL     1       0.776  -1.271  -4.111  0.00  0.00    +0.038 C 
ENDROOT
BRANCH   1  12
ATOM      3  C   UNL     1      -1.071   0.782   0.586  0.00  0.00    +0.039 C 
ATOM      4  C   UNL     1      -0.715  -0.682   0.323  0.00  0.00    +0.133 C 
ATOM      5  C   UNL     1       0.183  -0.776  -0.916  0.00  0.00    +0.139 C 
ATOM      6  N   UNL     1       0.663  -2.162  -1.037  0.00  0.00    -0.295 N 
ATOM      7  C   UNL     1       1.266  -2.791   0.148  0.00  0.00    +0.142 C 
ATOM      8  C   UNL     1       0.315  -2.599   1.335  0.00  0.00    +0.080 C 
ATOM      9  O   UNL     1      -0.017  -1.214   1.452  0.00  0.00    -0.368 OA
ATOM     10  C   UNL     1      -0.960  -3.413   1.105  0.00  0.00    +0.043 C 
ATOM     11  C   UNL     1       0.999  -3.071   2.620  0.00  0.00    +0.043 C 
ATOM     12  C   UNL     1       0.553  -2.835  -2.200  0.00  0.00    +0.236 C 
ATOM     13  O   UNL     1       1.037  -3.942  -2.308  0.00  0.00    -0.274 OA
ENDBRANCH   1  12
BRANCH   1  14
ATOM     14  N   UNL     1      -0.630  -3.265  -4.274  0.00  0.00    -0.300 N 
ATOM     15  C   UNL     1      -1.688  -3.047  -5.080  0.00  0.00    +0.245 C 
ATOM     16  O   UNL     1      -2.263  -1.976  -5.052  0.00  0.00    -0.270 OA
ATOM     17  H   UNL     1      -0.172  -4.120  -4.297  0.00  0.00    +0.150 HD
BRANCH  15  18
ATOM     18  C   UNL     1      -2.151  -4.110  -5.997  0.00  0.00    +0.039 A 
ATOM     19  C   UNL     1      -1.497  -5.343  -6.028  0.00  0.00    +0.013 A 
ATOM     20  C   UNL     1      -1.934  -6.330  -6.886  0.00  0.00    +0.003 A 
ATOM     21  C   UNL     1      -3.017  -6.101  -7.716  0.00  0.00    +0.033 A 
ATOM     22  C   UNL     1      -3.669  -4.881  -7.691  0.00  0.00    +0.127 A 
ATOM     23  C   UNL     1      -3.246  -3.887  -6.833  0.00  0.00    +0.045 A 
BRANCH  22  24
ATOM     24  N   UNL     1      -4.827  -4.644  -8.582  0.00  0.00    +0.056 N 
ATOM     25  O   UNL     1      -5.202  -5.516  -9.331  0.00  0.00    -0.126 OA
ATOM     26  O   UNL     1      -5.398  -3.578  -8.561  0.00  0.00    -0.126 OA
ENDBRANCH  22  24
ENDBRANCH  15  18
ENDBRANCH   1  14
TORSDOF 4
