REMARK  Name = ZINC63296335
REMARK  5 active torsions:
REMARK  status: ('A' for Active; 'I' for Inactive)
REMARK    1  A    between atoms: C_1  and  C_2
REMARK    2  A    between atoms: C_2  and  C_4
REMARK    3  A    between atoms: C_2  and  C_14
REMARK    4  A    between atoms: C_4  and  C_5
REMARK    5  A    between atoms: C_20  and  C_23
REMARK                            x       y       z     vdW  Elec       q    Type
REMARK                         _______ _______ _______ _____ _____    ______ ____
ROOT
ATOM      1  C   UNL     1      -1.364  -0.641   0.010  0.00  0.00    +0.219 C 
ATOM      2  O   UNL     1      -1.705  -1.334   0.945  0.00  0.00    -0.275 OA
ATOM      3  N   UNL     1      -2.205  -0.444  -1.025  0.00  0.00    -0.301 N 
ATOM      4  C   UNL     1      -1.764   0.291  -2.218  0.00  0.00    +0.108 C 
ATOM      5  C   UNL     1      -2.033  -0.571  -3.456  0.00  0.00    +0.019 C 
ATOM      6  C   UNL     1      -3.508  -0.979  -3.478  0.00  0.00    +0.010 C 
ATOM      7  C   UNL     1      -3.828  -1.808  -2.232  0.00  0.00    +0.047 C 
ATOM      8  C   UNL     1      -3.578  -0.966  -0.983  0.00  0.00    +0.114 C 
ENDROOT
BRANCH   7   9
ATOM      9  C   UNL     1      -5.294  -2.244  -2.272  0.00  0.00    +0.185 C 
ATOM     10  N   UNL     1      -6.183  -1.074  -2.179  0.00  0.00    -0.246 N 
ATOM     11  N   UNL     1      -6.936  -1.245  -1.013  0.00  0.00    -0.170 NA
ATOM     12  C   UNL     1      -6.622  -2.352  -0.397  0.00  0.00    +0.144 C 
ATOM     13  N   UNL     1      -5.626  -3.043  -1.084  0.00  0.00    -0.270 N 
ATOM     14  C   UNL     1      -5.149  -4.235  -0.611  0.00  0.00    +0.078 C 
ATOM     15  C   UNL     1      -5.624  -4.774   0.525  0.00  0.00    +0.015 C 
ATOM     16  C   UNL     1      -6.634  -4.128   1.270  0.00  0.00    +0.005 C 
ATOM     17  C   UNL     1      -7.142  -2.938   0.846  0.00  0.00    +0.045 C 
ATOM     18  H   UNL     1      -6.236  -0.332  -2.803  0.00  0.00    +0.170 HD
ENDBRANCH   7   9
BRANCH   1  20
ATOM     19  C   UNL     1       0.485   0.178   1.446  0.00  0.00    +0.017 C 
ATOM     20  C   UNL     1      -0.001   0.001   0.005  0.00  0.00    +0.076 C 
BRANCH  20  21
ATOM     21  C   UNL     1       0.981  -0.891  -0.758  0.00  0.00    +0.045 C 
BRANCH  21  22
ATOM     22  C   UNL     1       2.312  -0.193  -0.868  0.00  0.00    -0.041 C 
ATOM     23  C   UNL     1       3.379  -0.344  -0.051  0.00  0.00    -0.001 A 
ATOM     24  C   UNL     1       3.611  -1.170   1.140  0.00  0.00    +0.010 A 
ATOM     25  C   UNL     1       4.811  -1.105   1.760  0.00  0.00    +0.001 A 
ATOM     26  C   UNL     1       5.837  -0.271   1.295  0.00  0.00    +0.002 A 
ATOM     27  C   UNL     1       5.699   0.518   0.208  0.00  0.00    +0.026 A 
ATOM     28  C   UNL     1       4.479   0.528  -0.522  0.00  0.00    +0.043 A 
ATOM     29  N   UNL     1       4.105   1.193  -1.589  0.00  0.00    -0.380 N 
ATOM     30  C   UNL     1       2.727   0.812  -1.919  0.00  0.00    +0.144 C 
ATOM     31  H   UNL     1       4.650   1.828  -2.080  0.00  0.00    +0.160 HD
ENDBRANCH  21  22
ENDBRANCH  20  21
ENDBRANCH   1  20
TORSDOF 4
