REMARK  Name = ZINC60374705
REMARK  11 active torsions:
REMARK  status: ('A' for Active; 'I' for Inactive)
REMARK    1  A    between atoms: C_1  and  C_2
REMARK    2  A    between atoms: C_2  and  C_3
REMARK    3  A    between atoms: C_2  and  C_4
REMARK    4  A    between atoms: C_2  and  C_5
REMARK    5  A    between atoms: C_12  and  C_14
REMARK    6  A    between atoms: C_17  and  S_20
REMARK    7  A    between atoms: N_18  and  C_19
REMARK    8  A    between atoms: S_20  and  C_21
REMARK    9  A    between atoms: C_21  and  C_22
REMARK   10  A    between atoms: C_22  and  C_23
REMARK   11  A    between atoms: C_23  and  C_24
REMARK                            x       y       z     vdW  Elec       q    Type
REMARK                         _______ _______ _______ _____ _____    ______ ____
ROOT
ATOM      1  C   UNL     1       6.091  -0.745  -4.453  0.00  0.00    +0.171 A 
ATOM      2  N   UNL     1       7.133  -0.258  -3.817  0.00  0.00    -0.128 NA
ATOM      3  N   UNL     1       8.207  -0.507  -4.478  0.00  0.00    -0.122 NA
ATOM      4  C   UNL     1       7.919  -1.169  -5.576  0.00  0.00    +0.192 A 
ATOM      5  N   UNL     1       6.564  -1.349  -5.598  0.00  0.00    -0.305 N 
ATOM      6  C   UNL     1       5.779  -2.037  -6.625  0.00  0.00    +0.153 C 
ENDROOT
BRANCH   1  13
ATOM      7  C   UNL     1       0.718  -0.497  -1.257  0.00  0.00    -0.001 C 
ATOM      8  C   UNL     1      -0.027   0.006  -2.496  0.00  0.00    +0.009 C 
ATOM      9  C   UNL     1       0.536  -0.708  -3.734  0.00  0.00    +0.043 C 
ATOM     10  C   UNL     1       2.028  -0.648  -3.673  0.00  0.00    -0.006 A 
ATOM     11  C   UNL     1       2.802  -0.326  -2.598  0.00  0.00    -0.036 A 
ATOM     12  C   UNL     1       4.178  -0.339  -2.793  0.00  0.00    +0.023 A 
ATOM     13  C   UNL     1       4.686  -0.667  -4.021  0.00  0.00    +0.057 A 
ATOM     14  S   UNL     1       3.200  -0.975  -4.963  0.00  0.00    -0.090 S 
ATOM     15  C   UNL     1       2.154   0.028  -1.263  0.00  0.00    +0.040 C 
BRANCH   7  17
ATOM     16  C   UNL     1      -0.019   1.526   0.010  0.00  0.00    +0.011 C 
ATOM     17  C   UNL     1       0.002  -0.004   0.002  0.00  0.00    -0.035 C 
ATOM     18  C   UNL     1       0.742  -0.511   1.242  0.00  0.00    +0.011 C 
ATOM     19  C   UNL     1      -1.433  -0.534   0.013  0.00  0.00    +0.011 C 
ENDBRANCH   7  17
ENDBRANCH   1  13
BRANCH   4  20
ATOM     20  S   UNL     1       9.067  -1.725  -6.791  0.00  0.00    -0.086 S 
BRANCH  20  21
ATOM     21  C   UNL     1      10.676  -1.173  -6.161  0.00  0.00    +0.078 C 
BRANCH  21  22
ATOM     22  C   UNL     1      11.778  -1.597  -7.135  0.00  0.00    +0.020 C 
BRANCH  22  23
ATOM     23  C   UNL     1      13.135  -1.131  -6.603  0.00  0.00    +0.097 C 
BRANCH  23  24
ATOM     24  C   UNL     1      14.220  -1.548  -7.562  0.00  0.00    +0.220 C 
ATOM     25  O   UNL     1      13.936  -2.158  -8.570  0.00  0.00    -0.275 OA
ATOM     26  N   UNL     1      15.506  -1.244  -7.298  0.00  0.00    -0.240 N 
ATOM     27  C   UNL     1      16.476  -1.617  -8.155  0.00  0.00    +0.303 C 
ATOM     28  O   UNL     1      16.192  -2.228  -9.167  0.00  0.00    -0.253 OA
ATOM     29  N   UNL     1      17.762  -1.313  -7.891  0.00  0.00    -0.313 N 
ATOM     30  H   UNL     1      15.733  -0.756  -6.491  0.00  0.00    +0.159 HD
ATOM     31  H   UNL     1      17.990  -0.825  -7.084  0.00  0.00    +0.146 HD
ATOM     32  H   UNL     1      18.461  -1.581  -8.508  0.00  0.00    +0.146 HD
ENDBRANCH  23  24
ENDBRANCH  22  23
ENDBRANCH  21  22
ENDBRANCH  20  21
ENDBRANCH   4  20
TORSDOF 7
