REMARK  Name = ZINC49126994
REMARK  6 active torsions:
REMARK  status: ('A' for Active; 'I' for Inactive)
REMARK    1  A    between atoms: C_1  and  C_2
REMARK    2  A    between atoms: C_2  and  C_4
REMARK    3  A    between atoms: C_2  and  N_10
REMARK    4  A    between atoms: N_10  and  S_11
REMARK    5  A    between atoms: S_11  and  C_14
REMARK    6  A    between atoms: C_15  and  N_22
REMARK                            x       y       z     vdW  Elec       q    Type
REMARK                         _______ _______ _______ _____ _____    ______ ____
ROOT
ATOM      1  S   UNL     1      -0.592  -1.211  -3.230  0.00  0.00    +0.062 S 
ATOM      2  O   UNL     1       0.122  -1.553  -4.410  0.00  0.00    -0.153 OA
ATOM      3  O   UNL     1      -1.720  -1.949  -2.781  0.00  0.00    -0.153 OA
ENDROOT
BRANCH   1   4
ATOM      4  C   UNL     1      -1.129   0.455  -3.432  0.00  0.00    +0.144 A 
ATOM      5  C   UNL     1      -2.249   0.912  -2.749  0.00  0.00    +0.054 A 
ATOM      6  C   UNL     1      -2.669   2.226  -2.910  0.00  0.00    +0.044 A 
ATOM      7  C   UNL     1      -1.972   3.076  -3.748  0.00  0.00    +0.044 A 
ATOM      8  C   UNL     1      -0.856   2.618  -4.427  0.00  0.00    +0.042 A 
ATOM      9  C   UNL     1      -0.432   1.310  -4.264  0.00  0.00    +0.070 A 
ATOM     10 CL   UNL     1       0.973   0.743  -5.111  0.00  0.00    -0.081 Cl
ATOM     11 CL   UNL     1      -2.496   4.718  -3.951  0.00  0.00    -0.083 Cl
BRANCH   5  12
ATOM     12  N   UNL     1      -2.953   0.051  -1.904  0.00  0.00    -0.356 N 
ATOM     13  H   UNL     1      -2.511  -0.725  -1.525  0.00  0.00    +0.142 HD
ATOM     14  H   UNL     1      -3.883   0.230  -1.695  0.00  0.00    +0.142 HD
ENDBRANCH   5  12
ENDBRANCH   1   4
BRANCH   1  15
ATOM     15  N   UNL     1       0.506  -1.225  -1.991  0.00  0.00    -0.182 NA
ATOM     16  H   UNL     1       1.432  -1.458  -2.166  0.00  0.00    +0.149 HD
BRANCH  15  18
ATOM     17  C   UNL     1       0.352   0.598  -0.368  0.00  0.00    +0.031 C 
ATOM     18  C   UNL     1       0.081  -0.884  -0.631  0.00  0.00    +0.110 C 
BRANCH  18  19
ATOM     19  C   UNL     1       0.851  -1.719   0.360  0.00  0.00    +0.009 A 
ATOM     20  C   UNL     1       0.413  -2.317   1.494  0.00  0.00    +0.014 A 
ATOM     21  C   UNL     1       1.308  -3.043   2.259  0.00  0.00    +0.028 A 
ATOM     22  C   UNL     1       2.599  -3.134   1.849  0.00  0.00    +0.078 A 
ATOM     23  S   UNL     1       2.575  -2.183   0.339  0.00  0.00    -0.080 S 
ATOM     24 CL   UNL     1       3.926  -3.966   2.597  0.00  0.00    -0.076 Cl
ENDBRANCH  18  19
ENDBRANCH  15  18
ENDBRANCH   1  15
TORSDOF 5
