REMARK  Name = ZINC39657857
REMARK  4 active torsions:
REMARK  status: ('A' for Active; 'I' for Inactive)
REMARK    1  A    between atoms: C_4  and  C_8
REMARK    2  A    between atoms: C_12  and  C_21
REMARK    3  A    between atoms: N_23  and  C_24
REMARK    4  A    between atoms: C_27  and  C_30
REMARK                            x       y       z     vdW  Elec       q    Type
REMARK                         _______ _______ _______ _____ _____    ______ ____
ROOT
ATOM      1  C   UNL     1       3.670  -0.681  -0.049  0.00  0.00    +0.249 C 
ATOM      2  O   UNL     1       4.204  -0.981   1.002  0.00  0.00    -0.270 OA
ATOM      3  N   UNL     1       4.257  -1.003  -1.219  0.00  0.00    -0.296 N 
ATOM      4  C   UNL     1       3.767  -0.719  -2.588  0.00  0.00    +0.121 C 
ATOM      5  C   UNL     1       5.035  -0.340  -3.385  0.00  0.00    +0.100 C 
ATOM      6  C   UNL     1       6.193  -1.001  -2.619  0.00  0.00    -0.004 C 
ATOM      7  C   UNL     1       5.540  -1.715  -1.426  0.00  0.00    +0.115 C 
ATOM      8  C   UNL     1       6.910  -2.010  -3.511  0.00  0.00    -0.010 C 
ATOM      9  C   UNL     1       8.092  -2.611  -2.747  0.00  0.00    -0.082 C 
ATOM     10  N   UNL     1       9.013  -1.541  -2.345  0.00  0.00    +0.379 N 
ATOM     11  C   UNL     1       8.343  -0.627  -1.413  0.00  0.00    -0.082 C 
ATOM     12  C   UNL     1       7.171   0.059  -2.122  0.00  0.00    -0.010 C 
ATOM     13  H   UNL     1       9.821  -1.946  -1.895  0.00  0.00    -0.086 HD
ATOM     14  H   UNL     1       9.309  -1.029  -3.163  0.00  0.00    -0.086 HD
ENDROOT
BRANCH   1  18
ATOM     15  C   UNL     1      -0.044   1.381  -0.032  0.00  0.00    +0.003 A 
ATOM     16  C   UNL     1       1.140   2.097  -0.031  0.00  0.00    +0.021 A 
ATOM     17  C   UNL     1       2.352   1.433  -0.036  0.00  0.00    +0.054 A 
ATOM     18  C   UNL     1       2.379   0.036  -0.043  0.00  0.00    +0.073 A 
ATOM     19  C   UNL     1       1.179  -0.679  -0.043  0.00  0.00    +0.054 A 
ATOM     20  C   UNL     1      -0.025  -0.002  -0.039  0.00  0.00    +0.021 A 
ATOM     21 CL   UNL     1       1.200  -2.415  -0.052  0.00  0.00    -0.083 Cl
ATOM     22 CL   UNL     1       3.836   2.333  -0.036  0.00  0.00    -0.083 Cl
ENDBRANCH   1  18
BRANCH   5  23
ATOM     23  C   UNL     1       5.209   1.157  -3.414  0.00  0.00    +0.218 C 
ATOM     24  O   UNL     1       4.734   1.839  -2.531  0.00  0.00    -0.275 OA
ATOM     25  N   UNL     1       5.893   1.737  -4.420  0.00  0.00    -0.312 N 
ATOM     26  H   UNL     1       6.272   1.191  -5.126  0.00  0.00    +0.149 HD
BRANCH  25  27
ATOM     27  C   UNL     1       6.061   3.192  -4.447  0.00  0.00    +0.073 C 
ATOM     28  C   UNL     1       4.838   3.835  -5.103  0.00  0.00    +0.023 C 
ATOM     29  C   UNL     1       5.014   5.355  -5.132  0.00  0.00    +0.016 C 
ATOM     30  C   UNL     1       6.268   5.707  -5.935  0.00  0.00    +0.102 C 
ATOM     31  C   UNL     1       7.492   5.064  -5.279  0.00  0.00    +0.016 C 
ATOM     32  C   UNL     1       7.315   3.545  -5.251  0.00  0.00    +0.023 C 
BRANCH  30  33
ATOM     33  C   UNL     1       6.442   7.204  -5.963  0.00  0.00    +0.359 C 
ATOM     34  O   UNL     1       7.559   7.687  -6.037  0.00  0.00    -0.246 OA
ATOM     35  O   UNL     1       5.465   7.932  -5.913  0.00  0.00    -0.246 OA
ENDBRANCH  30  33
ENDBRANCH  25  27
ENDBRANCH   5  23
TORSDOF 4
