REMARK  Name = ZINC36529209
REMARK  16 active torsions:
REMARK  status: ('A' for Active; 'I' for Inactive)
REMARK    1  A    between atoms: C_1  and  C_2
REMARK    2  A    between atoms: C_2  and  C_3
REMARK    3  A    between atoms: C_2  and  C_4
REMARK    4  A    between atoms: C_2  and  C_5
REMARK    5  A    between atoms: C_5  and  C_6
REMARK    6  A    between atoms: C_6  and  C_7
REMARK    7  A    between atoms: C_6  and  C_8
REMARK    8  A    between atoms: C_6  and  N_9
REMARK    9  A    between atoms: C_10  and  C_12
REMARK   10  A    between atoms: C_12  and  C_14
REMARK   11  A    between atoms: C_12  and  N_23
REMARK   12  A    between atoms: C_15  and  O_22
REMARK   13  A    between atoms: C_17  and  O_21
REMARK   14  A    between atoms: C_19  and  O_20
REMARK   15  A    between atoms: N_23  and  C_24
REMARK   16  A    between atoms: C_25  and  C_27
REMARK                            x       y       z     vdW  Elec       q    Type
REMARK                         _______ _______ _______ _____ _____    ______ ____
ROOT
ATOM      1  C   UNL     1       5.743  -0.630  -4.725  0.00  0.00    +0.199 C 
ENDROOT
BRANCH   1   2
ATOM      2  C   UNL     1       6.615  -1.841  -4.515  0.00  0.00    +0.065 A 
ATOM      3  C   UNL     1       7.749  -1.749  -3.722  0.00  0.00    +0.129 A 
ATOM      4  C   UNL     1       8.551  -2.864  -3.529  0.00  0.00    +0.091 A 
ATOM      5  C   UNL     1       8.219  -4.070  -4.128  0.00  0.00    +0.124 A 
ATOM      6  C   UNL     1       7.084  -4.161  -4.919  0.00  0.00    +0.091 A 
ATOM      7  C   UNL     1       6.280  -3.048  -5.109  0.00  0.00    +0.129 A 
BRANCH   7   8
ATOM      8  O   UNL     1       5.165  -3.139  -5.882  0.00  0.00    -0.506 OA
ATOM      9  H   UNL     1       5.304  -2.883  -6.804  0.00  0.00    +0.292 HD
ENDBRANCH   7   8
BRANCH   5  10
ATOM     10  O   UNL     1       9.006  -5.162  -3.939  0.00  0.00    -0.507 OA
ATOM     11  H   UNL     1       8.756  -5.699  -3.174  0.00  0.00    +0.292 HD
ENDBRANCH   5  10
BRANCH   3  12
ATOM     12  O   UNL     1       8.075  -0.568  -3.136  0.00  0.00    -0.506 OA
ATOM     13  H   UNL     1       7.755  -0.478  -2.227  0.00  0.00    +0.292 HD
ENDBRANCH   3  12
ENDBRANCH   1   2
BRANCH   1  15
ATOM     14  N   UNL     1       3.433  -1.145  -4.006  0.00  0.00    -0.308 N 
ATOM     15  C   UNL     1       4.637  -0.623  -3.701  0.00  0.00    +0.239 C 
ATOM     16  O   UNL     1       4.831  -0.146  -2.603  0.00  0.00    -0.273 OA
ATOM     17  H   UNL     1       3.278  -1.526  -4.885  0.00  0.00    +0.149 HD
BRANCH  14  18
ATOM     18  C   UNL     1       2.358  -1.139  -3.011  0.00  0.00    +0.030 C 
ATOM     19  C   UNL     1       2.266   0.247  -2.370  0.00  0.00    +0.031 C 
ATOM     20  C   UNL     1       2.656  -2.181  -1.932  0.00  0.00    +0.031 C 
BRANCH  18  21
ATOM     21  C   UNL     1       1.030  -1.475  -3.692  0.00  0.00    +0.031 C 
BRANCH  21  23
ATOM     22  C   UNL     1       1.690  -1.404  -6.101  0.00  0.00    +0.010 C 
ATOM     23  C   UNL     1       0.912  -0.685  -4.997  0.00  0.00    -0.036 C 
ATOM     24  C   UNL     1       1.489   0.718  -4.798  0.00  0.00    +0.010 C 
ATOM     25  C   UNL     1      -0.561  -0.579  -5.397  0.00  0.00    +0.010 C 
ENDBRANCH  21  23
ENDBRANCH  18  21
ENDBRANCH  14  18
ENDBRANCH   1  15
BRANCH   1  26
ATOM     26  N   UNL     1       6.551   0.584  -4.580  0.00  0.00    -0.282 N 
ATOM     27  C   UNL     1       6.261   1.532  -3.502  0.00  0.00    +0.133 C 
ATOM     28  C   UNL     1       7.560   0.829  -5.440  0.00  0.00    +0.283 C 
ATOM     29  O   UNL     1       8.281   1.795  -5.272  0.00  0.00    -0.267 OA
BRANCH  28  30
ATOM     30  C   UNL     1       7.788  -0.069  -6.577  0.00  0.00    +0.189 A 
ATOM     31  C   UNL     1       8.748   0.081  -7.536  0.00  0.00    +0.054 A 
ATOM     32  C   UNL     1       8.605  -0.999  -8.422  0.00  0.00    +0.042 A 
ATOM     33  C   UNL     1       7.577  -1.751  -7.970  0.00  0.00    +0.196 A 
ATOM     34  O   UNL     1       7.091  -1.189  -6.855  0.00  0.00    -0.458 OA
ENDBRANCH  28  30
ENDBRANCH   1  26
TORSDOF 10
