REMARK  Name = ZINC09872461
REMARK  13 active torsions:
REMARK  status: ('A' for Active; 'I' for Inactive)
REMARK    1  A    between atoms: C_1  and  O_2
REMARK    2  A    between atoms: O_2  and  C_3
REMARK    3  A    between atoms: C_3  and  C_5
REMARK    4  A    between atoms: C_6  and  C_15
REMARK    5  A    between atoms: C_7  and  C_11
REMARK    6  A    between atoms: C_9  and  N_10
REMARK    7  A    between atoms: C_11  and  O_13
REMARK    8  A    between atoms: O_13  and  C_14
REMARK    9  A    between atoms: C_15  and  S_16
REMARK   10  A    between atoms: S_16  and  C_17
REMARK   11  A    between atoms: C_20  and  C_28
REMARK   12  A    between atoms: N_21  and  C_22
REMARK   13  A    between atoms: C_28  and  N_58
REMARK                            x       y       z     vdW  Elec       q    Type
REMARK                         _______ _______ _______ _____ _____    ______ ____
ROOT
ATOM      1  S   UNL     1      -3.281   1.427   4.189  0.00  0.00    -0.081 S 
ENDROOT
BRANCH   1   2
ATOM      2  C   UNL     1      -2.048   1.736   2.969  0.00  0.00    +0.196 A 
ATOM      3  N   UNL     1      -1.266   2.788   2.898  0.00  0.00    -0.122 NA
ATOM      4  N   UNL     1      -0.482   2.683   1.886  0.00  0.00    -0.135 NA
ATOM      5  C   UNL     1      -0.718   1.572   1.248  0.00  0.00    +0.122 A 
ATOM      6  N   UNL     1      -1.723   0.924   1.917  0.00  0.00    -0.276 N 
BRANCH   6   7
ATOM      7  C   UNL     1      -2.298  -0.313   1.591  0.00  0.00    +0.050 A 
ATOM      8  C   UNL     1      -3.017  -0.457   0.413  0.00  0.00    +0.026 A 
ATOM      9  C   UNL     1      -3.577  -1.678   0.092  0.00  0.00    +0.002 A 
ATOM     10  C   UNL     1      -3.432  -2.753   0.949  0.00  0.00    +0.000 A 
ATOM     11  C   UNL     1      -2.721  -2.611   2.127  0.00  0.00    +0.002 A 
ATOM     12  C   UNL     1      -2.154  -1.394   2.450  0.00  0.00    +0.026 A 
ENDBRANCH   6   7
BRANCH   5  13
ATOM     13  C   UNL     1      -0.013   1.086   0.008  0.00  0.00    -0.001 C 
BRANCH  13  18
ATOM     14  C   UNL     1      -0.919   3.043  -1.121  0.00  0.00    -0.078 C 
ATOM     15  C   UNL     1      -1.170   3.430  -2.600  0.00  0.00    -0.020 C 
ATOM     16  C   UNL     1      -0.211   2.493  -3.369  0.00  0.00    -0.020 C 
ATOM     17  C   UNL     1       0.064   1.321  -2.409  0.00  0.00    -0.078 C 
ATOM     18  N   UNL     1      -0.725   1.587  -1.205  0.00  0.00    +0.384 N 
ATOM     19  H   UNL     1      -1.637   1.120  -1.278  0.00  0.00    -0.081 HD
ENDBRANCH  13  18
ENDBRANCH   5  13
ENDBRANCH   1   2
BRANCH   1  20
ATOM     20  C   UNL     1      -3.105   2.918   5.199  0.00  0.00    +0.114 C 
BRANCH  20  22
ATOM     21  C   UNL     1      -3.754   2.299   7.555  0.00  0.00    +0.092 A 
ATOM     22  C   UNL     1      -4.090   2.873   6.338  0.00  0.00    -0.000 A 
ATOM     23  C   UNL     1      -5.346   3.402   6.210  0.00  0.00    +0.103 A 
ATOM     24  S   UNL     1      -6.072   3.085   7.807  0.00  0.00    -0.066 S 
ATOM     25  C   UNL     1      -4.727   2.297   8.564  0.00  0.00    +0.078 A 
BRANCH  25  26
ATOM     26  N   UNL     1      -4.635   1.795   9.841  0.00  0.00    -0.352 N 
ATOM     27  H   UNL     1      -3.814   1.375  10.139  0.00  0.00    +0.143 HD
ATOM     28  H   UNL     1      -5.393   1.861  10.443  0.00  0.00    +0.143 HD
ENDBRANCH  25  26
BRANCH  21  29
ATOM     29  C   UNL     1      -2.429   1.715   7.778  0.00  0.00    +0.342 C 
ATOM     30  O   UNL     1      -1.525   2.404   8.212  0.00  0.00    -0.245 OA
BRANCH  29  32
ATOM     31  C   UNL     1      -0.874  -0.098   7.746  0.00  0.00    +0.280 C 
ATOM     32  O   UNL     1      -2.210   0.413   7.501  0.00  0.00    -0.464 OA
ENDBRANCH  29  32
ENDBRANCH  21  29
BRANCH  23  33
ATOM     33  C   UNL     1      -5.944   4.062   5.051  0.00  0.00    +0.346 C 
ATOM     34  O   UNL     1      -5.300   4.195   4.027  0.00  0.00    -0.244 OA
BRANCH  33  35
ATOM     35  O   UNL     1      -7.211   4.523   5.116  0.00  0.00    -0.464 OA
ATOM     36  C   UNL     1      -7.731   5.157   3.946  0.00  0.00    +0.280 C 
ENDBRANCH  33  35
ENDBRANCH  23  33
ENDBRANCH  20  22
ENDBRANCH   1  20
TORSDOF 11
