REMARK  Name = ZINC52566255
REMARK  9 active torsions:
REMARK  status: ('A' for Active; 'I' for Inactive)
REMARK    1  A    between atoms: C_1  and  C_2
REMARK    2  A    between atoms: C_6  and  C_8
REMARK    3  A    between atoms: C_12  and  C_19
REMARK    4  A    between atoms: C_21  and  O_25
REMARK    5  A    between atoms: O_25  and  C_26
REMARK    6  A    between atoms: C_26  and  C_27
REMARK    7  A    between atoms: C_27  and  C_29
REMARK    8  A    between atoms: C_27  and  N_39
REMARK    9  A    between atoms: C_29  and  C_30
REMARK                            x       y       z     vdW  Elec       q    Type
REMARK                         _______ _______ _______ _____ _____    ______ ____
ROOT
ATOM      1  C   UNL     1       3.846   4.045   3.047  0.00  0.00    +0.004 A 
ATOM      2  C   UNL     1       3.914   4.959   4.101  0.00  0.00    +0.057 A 
ATOM      3  C   UNL     1       4.133   6.297   3.797  0.00  0.00    +0.139 A 
ATOM      4  C   UNL     1       4.275   6.675   2.469  0.00  0.00    +0.156 A 
ATOM      5  N   UNL     1       4.204   5.785   1.499  0.00  0.00    -0.259 NA
ATOM      6  C   UNL     1       4.005   4.505   1.742  0.00  0.00    +0.119 A 
ENDROOT
BRANCH   1  10
ATOM      7  C   UNL     1       3.222  -0.850   1.619  0.00  0.00    +0.172 C 
ATOM      8  C   UNL     1       3.338   0.362   2.515  0.00  0.00    -0.006 A 
ATOM      9  C   UNL     1       3.553   1.695   2.258  0.00  0.00    +0.015 A 
ATOM     10  C   UNL     1       3.614   2.604   3.314  0.00  0.00    -0.016 A 
ATOM     11  C   UNL     1       3.457   2.150   4.623  0.00  0.00    +0.010 A 
ATOM     12  C   UNL     1       3.242   0.812   4.872  0.00  0.00    +0.024 A 
ATOM     13  C   UNL     1       3.181  -0.099   3.817  0.00  0.00    +0.038 A 
ATOM     14  N   UNL     1       2.977  -1.478   3.819  0.00  0.00    -0.284 N 
ATOM     15  C   UNL     1       2.988  -1.999   2.577  0.00  0.00    +0.232 C 
ATOM     16  O   UNL     1       2.838  -3.165   2.280  0.00  0.00    -0.274 OA
ATOM     17  H   UNL     1       2.844  -2.004   4.623  0.00  0.00    +0.155 HD
BRANCH   7  22
ATOM     18  C   UNL     1      -0.019   1.526   0.010  0.00  0.00    +0.052 C 
ATOM     19  C   UNL     1       0.002  -0.004   0.002  0.00  0.00    +0.174 C 
ATOM     20  C   UNL     1       0.787  -0.541  -1.220  0.00  0.00    +0.074 C 
ATOM     21  C   UNL     1       2.174  -0.739  -0.631  0.00  0.00    +0.019 C 
ATOM     22  C   UNL     1       2.054  -0.701   0.678  0.00  0.00    +0.111 C 
ATOM     23  O   UNL     1       0.782  -0.515   1.101  0.00  0.00    -0.492 OA
ENDBRANCH   7  22
ENDBRANCH   1  10
BRANCH   3  24
ATOM     24  O   UNL     1       4.207   7.224   4.788  0.00  0.00    -0.492 OA
BRANCH  24  25
ATOM     25  C   UNL     1       4.434   8.579   4.394  0.00  0.00    +0.213 C 
BRANCH  25  26
ATOM     26  C   UNL     1       4.486   9.470   5.636  0.00  0.00    -0.033 C 
BRANCH  26  27
ATOM     27  N   UNL     1       5.650   9.103   6.454  0.00  0.00    +0.382 N 
ATOM     28  H   UNL     1       6.493   9.229   5.914  0.00  0.00    -0.089 HD
ATOM     29  H   UNL     1       5.684   9.691   7.273  0.00  0.00    -0.089 HD
ATOM     30  H   UNL     1       5.572   8.137   6.735  0.00  0.00    -0.089 HD
ENDBRANCH  26  27
BRANCH  26  31
ATOM     31  C   UNL     1       4.604  10.934   5.209  0.00  0.00    +0.020 C 
BRANCH  31  32
ATOM     32  C   UNL     1       4.532  11.820   6.426  0.00  0.00    -0.043 C 
ATOM     33  C   UNL     1       5.572  12.322   7.129  0.00  0.00    -0.001 A 
ATOM     34  C   UNL     1       7.027  12.199   6.977  0.00  0.00    +0.010 A 
ATOM     35  C   UNL     1       7.835  12.832   7.858  0.00  0.00    +0.001 A 
ATOM     36  C   UNL     1       7.319  13.601   8.910  0.00  0.00    +0.002 A 
ATOM     37  C   UNL     1       5.994  13.762   9.114  0.00  0.00    +0.026 A 
ATOM     38  C   UNL     1       5.053  13.141   8.248  0.00  0.00    +0.043 A 
ATOM     39  N   UNL     1       3.742  13.145   8.236  0.00  0.00    -0.380 N 
ATOM     40  C   UNL     1       3.281  12.332   7.105  0.00  0.00    +0.144 C 
ATOM     41  H   UNL     1       3.171  13.610   8.869  0.00  0.00    +0.160 HD
ENDBRANCH  31  32
ENDBRANCH  26  31
ENDBRANCH  25  26
ENDBRANCH  24  25
ENDBRANCH   3  24
TORSDOF 8
