REMARK  Name = ZINC36299198
REMARK  9 active torsions:
REMARK  status: ('A' for Active; 'I' for Inactive)
REMARK    1  A    between atoms: C_1  and  C_2
REMARK    2  A    between atoms: C_2  and  C_3
REMARK    3  A    between atoms: C_2  and  C_4
REMARK    4  A    between atoms: C_4  and  C_5
REMARK    5  A    between atoms: C_5  and  C_7
REMARK    6  A    between atoms: C_5  and  N_20
REMARK    7  A    between atoms: C_7  and  N_8
REMARK    8  A    between atoms: N_8  and  S_9
REMARK    9  A    between atoms: S_9  and  C_12
REMARK                            x       y       z     vdW  Elec       q    Type
REMARK                         _______ _______ _______ _____ _____    ______ ____
ROOT
ATOM      1  N   UNL     1      -2.841  -4.042  -0.232  0.00  0.00    -0.191 NA
ATOM      2  H   UNL     1      -2.073  -4.463  -0.650  0.00  0.00    +0.148 HD
ENDROOT
BRANCH   1   3
ATOM      3  S   UNL     1      -4.151  -4.956   0.203  0.00  0.00    +0.061 S 
ATOM      4  O   UNL     1      -3.862  -6.292  -0.186  0.00  0.00    -0.153 OA
ATOM      5  O   UNL     1      -4.465  -4.604   1.543  0.00  0.00    -0.153 OA
BRANCH   3   6
ATOM      6  C   UNL     1      -5.508  -4.426  -0.788  0.00  0.00    +0.142 A 
ATOM      7  C   UNL     1      -6.328  -3.402  -0.348  0.00  0.00    +0.069 A 
ATOM      8  C   UNL     1      -7.393  -2.987  -1.127  0.00  0.00    +0.022 A 
ATOM      9  C   UNL     1      -7.639  -3.594  -2.344  0.00  0.00    +0.003 A 
ATOM     10  C   UNL     1      -6.820  -4.617  -2.784  0.00  0.00    +0.022 A 
ATOM     11  C   UNL     1      -5.751  -5.030  -2.009  0.00  0.00    +0.069 A 
ATOM     12 CL   UNL     1      -4.718  -6.309  -2.566  0.00  0.00    -0.081 Cl
ATOM     13 CL   UNL     1      -6.020  -2.640   1.181  0.00  0.00    -0.081 Cl
ENDBRANCH   3   6
ENDBRANCH   1   3
BRANCH   1  14
ATOM     14  C   UNL     1      -2.841  -2.598   0.015  0.00  0.00    +0.090 C 
BRANCH  14  15
ATOM     15  C   UNL     1      -1.416  -2.058  -0.121  0.00  0.00    -0.059 C 
BRANCH  15  16
ATOM     16  N   UNL     1      -0.875  -2.427  -1.436  0.00  0.00    +0.381 N 
ATOM     17  H   UNL     1      -1.455  -2.033  -2.161  0.00  0.00    -0.090 HD
ATOM     18  H   UNL     1       0.065  -2.071  -1.526  0.00  0.00    -0.090 HD
ATOM     19  H   UNL     1      -0.863  -3.432  -1.524  0.00  0.00    -0.090 HD
ENDBRANCH  15  16
BRANCH  15  20
ATOM     20  C   UNL     1      -1.433  -0.534   0.013  0.00  0.00    -0.012 C 
BRANCH  20  22
ATOM     21  C   UNL     1      -0.019   1.526   0.010  0.00  0.00    +0.007 C 
ATOM     22  C   UNL     1       0.002  -0.004   0.002  0.00  0.00    -0.019 C 
ATOM     23  C   UNL     1       0.742  -0.511   1.242  0.00  0.00    +0.007 C 
ENDBRANCH  20  22
ENDBRANCH  15  20
ENDBRANCH  14  15
ENDBRANCH   1  14
TORSDOF 7
