REMARK  Name = ZINC39195088
REMARK  14 active torsions:
REMARK  status: ('A' for Active; 'I' for Inactive)
REMARK    1  A    between atoms: C_1  and  C_2
REMARK    2  A    between atoms: C_2  and  O_3
REMARK    3  A    between atoms: O_3  and  C_4
REMARK    4  A    between atoms: C_4  and  C_6
REMARK    5  A    between atoms: C_7  and  C_34
REMARK    6  A    between atoms: C_8  and  C_13
REMARK    7  A    between atoms: C_9  and  C_12
REMARK    8  A    between atoms: C_13  and  O_15
REMARK    9  A    between atoms: O_15  and  C_16
REMARK   10  A    between atoms: C_16  and  C_17
REMARK   11  A    between atoms: C_19  and  O_20
REMARK   12  A    between atoms: C_29  and  O_31
REMARK   13  A    between atoms: O_31  and  C_32
REMARK   14  A    between atoms: C_32  and  C_33
REMARK                            x       y       z     vdW  Elec       q    Type
REMARK                         _______ _______ _______ _____ _____    ______ ____
ROOT
ATOM      1  C   UNL     1       5.720  -7.085  -4.712  0.00  0.00    +0.007 A 
ATOM      2  C   UNL     1       5.880  -7.658  -3.465  0.00  0.00    +0.095 A 
ATOM      3  C   UNL     1       6.992  -8.444  -3.203  0.00  0.00    +0.285 A 
ATOM      4  O   UNL     1       7.925  -8.664  -4.136  0.00  0.00    -0.425 OA
ATOM      5  C   UNL     1       7.818  -8.128  -5.370  0.00  0.00    +0.141 A 
ATOM      6  C   UNL     1       6.702  -7.323  -5.694  0.00  0.00    +0.024 A 
ATOM      7  C   UNL     1       6.585  -6.768  -6.981  0.00  0.00    +0.014 A 
ATOM      8  C   UNL     1       7.542  -7.009  -7.914  0.00  0.00    +0.024 A 
ATOM      9  C   UNL     1       8.653  -7.813  -7.602  0.00  0.00    +0.040 A 
ATOM     10  C   UNL     1       8.789  -8.363  -6.326  0.00  0.00    +0.070 A 
ATOM     11  N   UNL     1       9.604  -8.047  -8.544  0.00  0.00    -0.251 N 
ATOM     12  C   UNL     1      10.476  -9.032  -8.377  0.00  0.00    +0.405 C 
ATOM     13  O   UNL     1      10.348  -9.806  -7.443  0.00  0.00    -0.226 OA
ATOM     14  H   UNL     1       9.646  -7.493  -9.340  0.00  0.00    +0.158 HD
ENDROOT
BRANCH   3  15
ATOM     15  O   UNL     1       7.136  -8.997  -1.984  0.00  0.00    -0.480 OA
ATOM     16  H   UNL     1       7.938  -9.529  -1.885  0.00  0.00    +0.295 HD
ENDBRANCH   3  15
BRANCH   1  17
ATOM     17  C   UNL     1       4.518  -6.228  -5.017  0.00  0.00    +0.269 C 
BRANCH  17  18
ATOM     18  O   UNL     1       4.429  -5.173  -4.057  0.00  0.00    -0.456 OA
BRANCH  18  19
ATOM     19  C   UNL     1       3.402  -4.311  -4.189  0.00  0.00    +0.341 C 
ATOM     20  O   UNL     1       2.603  -4.451  -5.094  0.00  0.00    -0.245 OA
BRANCH  19  23
ATOM     21  C   UNL     1       2.640  -1.989  -1.461  0.00  0.00    +0.128 A 
ATOM     22  C   UNL     1       2.519  -3.225  -2.026  0.00  0.00    -0.005 A 
ATOM     23  C   UNL     1       3.247  -3.199  -3.237  0.00  0.00    +0.083 A 
ATOM     24  C   UNL     1       3.788  -1.931  -3.358  0.00  0.00    +0.028 A 
ATOM     25  N   UNL     1       3.416  -1.208  -2.291  0.00  0.00    -0.352 N 
ATOM     26  H   UNL     1       3.655  -0.282  -2.128  0.00  0.00    +0.166 HD
ATOM     27  C   UNL     1       4.645  -1.444  -4.498  0.00  0.00    +0.064 C 
ATOM     28  C   UNL     1       1.754  -4.396  -1.465  0.00  0.00    +0.047 C 
BRANCH  21  29
ATOM     29  C   UNL     1       2.043  -1.563  -0.191  0.00  0.00    +0.356 C 
ATOM     30  O   UNL     1       1.375  -2.344   0.459  0.00  0.00    -0.243 OA
BRANCH  29  31
ATOM     31  O   UNL     1       2.236  -0.305   0.256  0.00  0.00    -0.460 OA
BRANCH  31  33
ATOM     32  C   UNL     1       1.952   1.497   1.841  0.00  0.00    +0.048 C 
ATOM     33  C   UNL     1       1.625   0.042   1.501  0.00  0.00    +0.229 C 
ENDBRANCH  31  33
ENDBRANCH  29  31
ENDBRANCH  21  29
ENDBRANCH  19  23
ENDBRANCH  18  19
ENDBRANCH  17  18
ENDBRANCH   1  17
BRANCH  12  34
ATOM     34  O   UNL     1      11.505  -9.178  -9.241  0.00  0.00    -0.450 OA
BRANCH  34  35
ATOM     35  C   UNL     1      12.405 -10.261  -8.999  0.00  0.00    +0.230 C 
ATOM     36  C   UNL     1      13.497 -10.266 -10.072  0.00  0.00    +0.048 C 
ENDBRANCH  34  35
ENDBRANCH  12  34
TORSDOF 10
