REMARK  Name = ZINC35894523
REMARK  8 active torsions:
REMARK  status: ('A' for Active; 'I' for Inactive)
REMARK    1  A    between atoms: C_1  and  C_2
REMARK    2  A    between atoms: C_2  and  C_3
REMARK    3  A    between atoms: C_6  and  C_9
REMARK    4  A    between atoms: C_13  and  C_24
REMARK    5  A    between atoms: N_16  and  C_17
REMARK    6  A    between atoms: C_17  and  C_18
REMARK    7  A    between atoms: N_26  and  C_27
REMARK    8  A    between atoms: C_27  and  C_28
REMARK                            x       y       z     vdW  Elec       q    Type
REMARK                         _______ _______ _______ _____ _____    ______ ____
ROOT
ATOM      1  C   UNL     1       2.707  -1.868  -4.752  0.00  0.00    -0.037 C 
ATOM      2  C   UNL     1       3.382  -0.686  -5.452  0.00  0.00    -0.010 C 
ATOM      3  C   UNL     1       4.097  -1.186  -6.710  0.00  0.00    +0.009 C 
ATOM      4  C   UNL     1       5.097  -2.277  -6.318  0.00  0.00    +0.058 C 
ATOM      5  C   UNL     1       4.359  -3.400  -5.587  0.00  0.00    -0.065 C 
ATOM      6  N   UNL     1       3.719  -2.864  -4.379  0.00  0.00    +0.387 N 
ATOM      7  H   UNL     1       4.417  -2.429  -3.795  0.00  0.00    -0.080 HD
ENDROOT
BRANCH   1  11
ATOM      8  C   UNL     1       0.707  -0.490  -1.238  0.00  0.00    -0.048 A 
ATOM      9  C   UNL     1      -0.011  -0.719  -2.397  0.00  0.00    +0.004 A 
ATOM     10  C   UNL     1       0.636  -1.164  -3.534  0.00  0.00    +0.002 A 
ATOM     11  C   UNL     1       2.002  -1.381  -3.513  0.00  0.00    -0.061 A 
ATOM     12  C   UNL     1       2.720  -1.152  -2.354  0.00  0.00    +0.002 A 
ATOM     13  C   UNL     1       2.073  -0.702  -1.218  0.00  0.00    +0.004 A 
BRANCH   8  15
ATOM     14  C   UNL     1      -0.019   1.526   0.010  0.00  0.00    +0.009 C 
ATOM     15  C   UNL     1       0.002  -0.004   0.002  0.00  0.00    +0.032 C 
ENDBRANCH   8  15
ENDBRANCH   1  11
BRANCH   4  16
ATOM     16  C   UNL     1       5.752  -2.829  -7.559  0.00  0.00    +0.215 C 
ATOM     17  O   UNL     1       5.642  -4.006  -7.830  0.00  0.00    -0.276 OA
ATOM     18  N   UNL     1       6.459  -2.014  -8.367  0.00  0.00    -0.311 N 
ATOM     19  H   UNL     1       6.547  -1.073  -8.150  0.00  0.00    +0.149 HD
BRANCH  18  20
ATOM     20  C   UNL     1       7.096  -2.551  -9.572  0.00  0.00    +0.139 C 
BRANCH  20  21
ATOM     21  C   UNL     1       7.819  -1.443 -10.294  0.00  0.00    -0.027 A 
ATOM     22  C   UNL     1       7.156  -0.695 -11.249  0.00  0.00    +0.009 A 
ATOM     23  C   UNL     1       7.815   0.323 -11.913  0.00  0.00    +0.050 A 
ATOM     24  C   UNL     1       9.142   0.595 -11.623  0.00  0.00    +0.166 A 
ATOM     25  C   UNL     1       9.809  -0.158 -10.661  0.00  0.00    +0.167 A 
ATOM     26  C   UNL     1       9.141  -1.173  -9.995  0.00  0.00    +0.054 A 
ATOM     27  O   UNL     1      11.091   0.300 -10.560  0.00  0.00    -0.453 OA
ATOM     28  C   UNL     1      11.320   1.069 -11.755  0.00  0.00    +0.466 C 
ATOM     29  O   UNL     1      10.006   1.526 -12.125  0.00  0.00    -0.453 OA
ENDBRANCH  20  21
ENDBRANCH  18  20
ENDBRANCH   4  16
BRANCH   6  30
ATOM     30  C   UNL     1       3.078  -3.959  -3.640  0.00  0.00    -0.042 C 
BRANCH  30  31
ATOM     31  C   UNL     1       4.131  -4.919  -3.150  0.00  0.00    -0.064 A 
ATOM     32  C   UNL     1       4.519  -5.983  -3.943  0.00  0.00    +0.002 A 
ATOM     33  C   UNL     1       5.485  -6.864  -3.494  0.00  0.00    +0.000 A 
ATOM     34  C   UNL     1       6.064  -6.680  -2.253  0.00  0.00    +0.000 A 
ATOM     35  C   UNL     1       5.678  -5.615  -1.460  0.00  0.00    +0.000 A 
ATOM     36  C   UNL     1       4.714  -4.732  -1.911  0.00  0.00    +0.002 A 
ENDBRANCH  30  31
ENDBRANCH   6  30
TORSDOF 7
