REMARK  Name = ZINC15064241
REMARK  16 active torsions:
REMARK  status: ('A' for Active; 'I' for Inactive)
REMARK    1  A    between atoms: C_1  and  C_2
REMARK    2  A    between atoms: C_2  and  C_3
REMARK    3  A    between atoms: C_2  and  N_60
REMARK    4  A    between atoms: C_4  and  N_60
REMARK    5  A    between atoms: C_5  and  C_6
REMARK    6  A    between atoms: C_5  and  N_60
REMARK    7  A    between atoms: C_6  and  C_8
REMARK    8  A    between atoms: C_6  and  O_29
REMARK    9  A    between atoms: C_8  and  O_9
REMARK   10  A    between atoms: O_9  and  C_10
REMARK   11  A    between atoms: C_12  and  C_18
REMARK   12  A    between atoms: C_15  and  O_16
REMARK   13  A    between atoms: O_16  and  C_17
REMARK   14  A    between atoms: C_18  and  N_62
REMARK   15  A    between atoms: C_19  and  C_20
REMARK   16  A    between atoms: C_19  and  N_62
REMARK                            x       y       z     vdW  Elec       q    Type
REMARK                         _______ _______ _______ _____ _____    ______ ____
ROOT
ATOM      1  C   UNL     1      -0.016   1.356   0.009  0.00  0.00    +0.162 A 
ATOM      2  C   UNL     1      -1.225   2.034   0.019  0.00  0.00    +0.051 A 
ATOM      3  C   UNL     1      -1.242   3.416   0.032  0.00  0.00    -0.061 A 
ATOM      4  C   UNL     1      -0.055   4.125   0.025  0.00  0.00    +0.005 A 
ATOM      5  C   UNL     1       1.154   3.455   0.010  0.00  0.00    +0.049 A 
ATOM      6  C   UNL     1       1.178   2.069   0.002  0.00  0.00    +0.162 A 
ENDROOT
BRANCH   6   7
ATOM      7  O   UNL     1       2.367   1.409  -0.013  0.00  0.00    -0.491 OA
ATOM      8  C   UNL     1       3.552   2.206  -0.021  0.00  0.00    +0.277 C 
ENDBRANCH   6   7
BRANCH   1   9
ATOM      9  O   UNL     1       0.002  -0.004   0.002  0.00  0.00    -0.486 OA
BRANCH   9  10
ATOM     10  C   UNL     1      -1.262  -0.670   0.011  0.00  0.00    +0.258 C 
BRANCH  10  11
ATOM     11  C   UNL     1      -1.041  -2.184   0.000  0.00  0.00    +0.135 C 
BRANCH  11  12
ATOM     12  O   UNL     1      -0.421  -2.567  -1.229  0.00  0.00    -0.390 OA
ATOM     13  H   UNL     1      -0.939  -2.349  -2.016  0.00  0.00    +0.210 HD
ENDBRANCH  11  12
BRANCH  11  14
ATOM     14  C   UNL     1      -2.388  -2.897   0.135  0.00  0.00    -0.044 C 
BRANCH  14  16
ATOM     15  C   UNL     1      -1.469  -4.677   1.495  0.00  0.00    -0.096 C 
ATOM     16  N   UNL     1      -2.150  -4.353   0.224  0.00  0.00    +0.381 N 
ATOM     17  H   UNL     1      -1.551  -4.641  -0.559  0.00  0.00    -0.082 HD
BRANCH  16  19
ATOM     18  C   UNL     1      -4.082  -4.786  -1.216  0.00  0.00    -0.014 C 
ATOM     19  C   UNL     1      -3.434  -5.081   0.139  0.00  0.00    -0.075 C 
ATOM     20  C   UNL     1      -3.163  -6.582   0.258  0.00  0.00    -0.014 C 
ENDBRANCH  16  19
ENDBRANCH  14  16
ENDBRANCH  11  14
ENDBRANCH  10  11
ENDBRANCH   9  10
ENDBRANCH   1   9
BRANCH   3  21
ATOM     21  C   UNL     1      -2.557   4.152   0.049  0.00  0.00    -0.046 C 
BRANCH  21  22
ATOM     22  N   UNL     1      -2.992   4.396  -1.340  0.00  0.00    +0.385 N 
ATOM     23  H   UNL     1      -3.101   3.497  -1.823  0.00  0.00    -0.085 HD
ATOM     24  H   UNL     1      -2.283   4.960  -1.823  0.00  0.00    -0.085 HD
BRANCH  22  25
ATOM     25  C   UNL     1      -4.279   5.116  -1.354  0.00  0.00    -0.039 C 
BRANCH  25  26
ATOM     26  C   UNL     1      -4.698   5.351  -2.783  0.00  0.00    -0.026 A 
ATOM     27  C   UNL     1      -5.442   4.561  -3.570  0.00  0.00    +0.017 A 
ATOM     28  C   UNL     1      -5.732   4.982  -4.933  0.00  0.00    -0.011 A 
ATOM     29  C   UNL     1      -6.489   4.314  -5.924  0.00  0.00    +0.009 A 
ATOM     30  C   UNL     1      -6.658   4.863  -7.156  0.00  0.00    +0.001 A 
ATOM     31  C   UNL     1      -6.099   6.090  -7.487  0.00  0.00    +0.001 A 
ATOM     32  C   UNL     1      -5.354   6.774  -6.547  0.00  0.00    +0.015 A 
ATOM     33  C   UNL     1      -5.176   6.228  -5.294  0.00  0.00    +0.020 A 
ATOM     34  S   UNL     1      -4.327   6.748  -3.825  0.00  0.00    -0.095 S 
ENDBRANCH  25  26
ENDBRANCH  22  25
ENDBRANCH  21  22
ENDBRANCH   3  21
TORSDOF 12
