REMARK  Name = ZINC65298376
REMARK  11 active torsions:
REMARK  status: ('A' for Active; 'I' for Inactive)
REMARK    1  A    between atoms: C_1  and  C_2
REMARK    2  A    between atoms: C_2  and  O_3
REMARK    3  A    between atoms: O_3  and  C_4
REMARK    4  A    between atoms: C_8  and  C_11
REMARK    5  A    between atoms: C_9  and  O_10
REMARK    6  A    between atoms: C_14  and  C_28
REMARK    7  A    between atoms: C_23  and  O_25
REMARK    8  A    between atoms: O_25  and  C_26
REMARK    9  A    between atoms: C_26  and  C_27
REMARK   10  A    between atoms: C_31  and  O_34
REMARK   11  A    between atoms: O_34  and  C_35
REMARK                            x       y       z     vdW  Elec       q    Type
REMARK                         _______ _______ _______ _____ _____    ______ ____
ROOT
ATOM      1  C   UNL     1      -4.316  -4.377   0.007  0.00  0.00    -0.028 C 
ATOM      2  C   UNL     1      -4.878  -4.373   1.433  0.00  0.00    +0.044 C 
ATOM      3  C   UNL     1      -6.109  -5.236   1.484  0.00  0.00    +0.040 C 
ATOM      4  N   UNL     1      -6.413  -6.067   0.558  0.00  0.00    -0.300 NA
ATOM      5  C   UNL     1      -5.621  -6.272  -0.650  0.00  0.00    +0.032 C 
ATOM      6  N   UNL     1      -4.253  -5.771  -0.461  0.00  0.00    +0.401 N 
ATOM      7  C   UNL     1      -6.271  -5.526  -1.820  0.00  0.00    +0.029 C 
ATOM      8  C   UNL     1      -7.705  -6.031  -2.007  0.00  0.00    +0.111 C 
ATOM      9  N   UNL     1      -7.675  -7.491  -2.170  0.00  0.00    -0.267 N 
ATOM     10  C   UNL     1      -6.991  -8.301  -1.152  0.00  0.00    +0.111 C 
ATOM     11  C   UNL     1      -5.566  -7.769  -0.975  0.00  0.00    +0.029 C 
ATOM     12  C   UNL     1      -8.264  -8.076  -3.232  0.00  0.00    +0.403 C 
ATOM     13  O   UNL     1      -8.826  -7.395  -4.067  0.00  0.00    -0.226 OA
ATOM     14  H   UNL     1      -3.754  -5.811  -1.336  0.00  0.00    -0.081 HD
ATOM     15  H   UNL     1      -3.779  -6.337   0.227  0.00  0.00    -0.081 HD
ENDROOT
BRANCH   1  20
ATOM     16  C   UNL     1      -1.498  -1.849   0.006  0.00  0.00    +0.162 A 
ATOM     17  C   UNL     1      -0.389  -2.680  -0.003  0.00  0.00    +0.049 A 
ATOM     18  C   UNL     1      -0.553  -4.052  -0.008  0.00  0.00    +0.004 A 
ATOM     19  C   UNL     1      -1.823  -4.600  -0.005  0.00  0.00    +0.006 A 
ATOM     20  C   UNL     1      -2.934  -3.777   0.004  0.00  0.00    -0.016 A 
ATOM     21  C   UNL     1      -2.776  -2.400   0.016  0.00  0.00    +0.160 A 
BRANCH  21  22
ATOM     22  O   UNL     1      -3.868  -1.589   0.030  0.00  0.00    -0.503 OA
ATOM     23  H   UNL     1      -4.192  -1.350  -0.849  0.00  0.00    +0.292 HD
ENDBRANCH  21  22
BRANCH  16  24
ATOM     24  O   UNL     1      -1.339  -0.499   0.012  0.00  0.00    -0.489 OA
BRANCH  24  26
ATOM     25  C   UNL     1      -0.019   1.526   0.010  0.00  0.00    +0.048 C 
ATOM     26  C   UNL     1       0.002  -0.004   0.002  0.00  0.00    +0.226 C 
ENDBRANCH  24  26
ENDBRANCH  16  24
ENDBRANCH   1  20
BRANCH   3  27
ATOM     27  C   UNL     1      -7.003  -5.121   2.650  0.00  0.00    -0.004 A 
ATOM     28  C   UNL     1      -6.704  -4.220   3.676  0.00  0.00    +0.013 A 
ATOM     29  C   UNL     1      -7.542  -4.116   4.764  0.00  0.00    +0.046 A 
ATOM     30  C   UNL     1      -8.684  -4.904   4.843  0.00  0.00    +0.120 A 
ATOM     31  C   UNL     1      -8.984  -5.801   3.825  0.00  0.00    +0.046 A 
ATOM     32  C   UNL     1      -8.155  -5.908   2.730  0.00  0.00    +0.013 A 
BRANCH  30  33
ATOM     33  O   UNL     1      -9.507  -4.798   5.917  0.00  0.00    -0.495 OA
ATOM     34  C   UNL     1     -10.663  -5.638   5.934  0.00  0.00    +0.277 C 
ENDBRANCH  30  33
ENDBRANCH   3  27
BRANCH  12  35
ATOM     35  O   UNL     1      -8.229  -9.415  -3.368  0.00  0.00    -0.451 OA
BRANCH  35  36
ATOM     36  C   UNL     1      -8.873  -9.967  -4.518  0.00  0.00    +0.230 C 
ATOM     37  C   UNL     1      -8.729 -11.491  -4.500  0.00  0.00    +0.048 C 
ENDBRANCH  35  36
ENDBRANCH  12  35
TORSDOF 8
