REMARK  Name = ZINC20207719
REMARK  10 active torsions:
REMARK  status: ('A' for Active; 'I' for Inactive)
REMARK    1  A    between atoms: C_1  and  C_2
REMARK    2  A    between atoms: C_6  and  C_34
REMARK    3  A    between atoms: C_7  and  O_8
REMARK    4  A    between atoms: O_8  and  C_9
REMARK    5  A    between atoms: C_9  and  C_10
REMARK    6  A    between atoms: C_10  and  O_11
REMARK    7  A    between atoms: O_11  and  C_12
REMARK    8  A    between atoms: C_15  and  C_18
REMARK    9  A    between atoms: C_28  and  S_30
REMARK   10  A    between atoms: S_30  and  C_33
REMARK                            x       y       z     vdW  Elec       q    Type
REMARK                         _______ _______ _______ _____ _____    ______ ____
ROOT
ATOM      1  C   UNL     1      -0.127   3.325   5.045  0.00  0.00    +0.121 A 
ATOM      2  C   UNL     1      -0.682   2.989   6.275  0.00  0.00    +0.046 A 
ATOM      3  C   UNL     1      -0.387   3.728   7.386  0.00  0.00    +0.011 A 
ATOM      4  C   UNL     1       0.477   4.827   7.284  0.00  0.00    -0.024 A 
ATOM      5  C   UNL     1       1.034   5.161   6.041  0.00  0.00    +0.011 A 
ATOM      6  C   UNL     1       0.736   4.412   4.938  0.00  0.00    +0.046 A 
ENDROOT
BRANCH   4   7
ATOM      7  C   UNL     1       0.797   5.624   8.471  0.00  0.00    +0.024 C 
ATOM      8  C   UNL     1       0.866   5.021   9.706  0.00  0.00    +0.081 C 
ATOM      9  C   UNL     1       0.806   3.539   9.862  0.00  0.00    +0.153 C 
ATOM     10  N   UNL     1       1.291   2.705   8.981  0.00  0.00    -0.283 NA
ATOM     11  N   UNL     1       0.173   3.127  11.054  0.00  0.00    -0.150 N 
ATOM     12  C   UNL     1       0.147   4.021  12.103  0.00  0.00    +0.182 C 
ATOM     13  N   UNL     1       0.560   5.263  12.103  0.00  0.00    -0.152 NA
ATOM     14  C   UNL     1       1.012   5.810  10.955  0.00  0.00    +0.273 C 
ATOM     15  O   UNL     1       1.520   6.920  10.941  0.00  0.00    -0.268 OA
ATOM     16  S   UNL     1      -0.597   3.058  13.393  0.00  0.00    -0.015 S 
ATOM     17  C   UNL     1      -0.911   1.583  12.433  0.00  0.00    +0.235 C 
ATOM     18  N   UNL     1      -0.415   1.899  11.271  0.00  0.00    -0.145 NA
ATOM     19  H   UNL     1       1.226   1.749   9.131  0.00  0.00    +0.188 HD
BRANCH  17  20
ATOM     20  S   UNL     1      -1.694   0.085  12.931  0.00  0.00    +0.019 S 
ATOM     21  O   UNL     1      -2.638   0.480  13.916  0.00  0.00    -0.168 OA
ATOM     22  O   UNL     1      -2.122  -0.521  11.719  0.00  0.00    -0.168 OA
ATOM     23  C   UNL     1      -0.374  -0.900  13.690  0.00  0.00    +0.202 C 
ENDBRANCH  17  20
ENDBRANCH   4   7
BRANCH   1  24
ATOM     24  O   UNL     1      -0.424   2.588   3.945  0.00  0.00    -0.489 OA
BRANCH  24  25
ATOM     25  C   UNL     1      -1.316   1.486   4.124  0.00  0.00    +0.270 C 
BRANCH  25  26
ATOM     26  C   UNL     1      -1.530   0.780   2.784  0.00  0.00    +0.270 C 
BRANCH  26  27
ATOM     27  O   UNL     1      -0.297   0.202   2.349  0.00  0.00    -0.488 OA
BRANCH  27  34
ATOM     28  C   UNL     1       0.255   1.682   0.007  0.00  0.00    +0.047 C 
ATOM     29  C   UNL     1      -0.050   0.206  -0.017  0.00  0.00    -0.009 A 
ATOM     30  C   UNL     1      -0.061  -0.478  -1.218  0.00  0.00    +0.007 A 
ATOM     31  C   UNL     1      -0.341  -1.832  -1.240  0.00  0.00    +0.001 A 
ATOM     32  C   UNL     1      -0.610  -2.505  -0.063  0.00  0.00    +0.007 A 
ATOM     33  C   UNL     1      -0.600  -1.825   1.140  0.00  0.00    -0.009 A 
ATOM     34  C   UNL     1      -0.314  -0.468   1.166  0.00  0.00    +0.126 A 
ATOM     35  C   UNL     1      -0.893  -2.559   2.423  0.00  0.00    +0.047 C 
ENDBRANCH  27  34
ENDBRANCH  26  27
ENDBRANCH  25  26
ENDBRANCH  24  25
ENDBRANCH   1  24
TORSDOF 7
