REMARK  Name = ZINC04470772
REMARK  4 active torsions:
REMARK  status: ('A' for Active; 'I' for Inactive)
REMARK    1  A    between atoms: C_1  and  N_2
REMARK    2  A    between atoms: C_6  and  C_7
REMARK    3  A    between atoms: C_12  and  O_13
REMARK    4  A    between atoms: N_17  and  C_18
REMARK                            x       y       z     vdW  Elec       q    Type
REMARK                         _______ _______ _______ _____ _____    ______ ____
ROOT
ATOM      1  C   UNL     1       1.877  -1.468  -1.524  0.00  0.00    +0.140 C 
ATOM      2  N   UNL     1       1.415  -0.155  -1.066  0.00  0.00    -0.249 N 
ATOM      3  C   UNL     1       2.297   0.793  -0.799  0.00  0.00    +0.259 C 
ATOM      4  O   UNL     1       3.493   0.603  -0.925  0.00  0.00    -0.269 OA
ATOM      5  C   UNL     1       1.766   2.091  -0.342  0.00  0.00    +0.078 C 
ATOM      6  C   UNL     1       2.434   3.224  -0.004  0.00  0.00    +0.032 C 
ATOM      7  S   UNL     1       0.008   1.772  -0.353  0.00  0.00    -0.049 S 
ATOM      8  C   UNL     1       0.065   0.079  -0.916  0.00  0.00    +0.168 C 
ATOM      9  N   UNL     1      -0.936  -0.744  -1.134  0.00  0.00    -0.226 NA
ENDROOT
BRANCH   6  10
ATOM     10  C   UNL     1       3.899   3.211   0.092  0.00  0.00    +0.019 A 
ATOM     11  C   UNL     1       4.556   2.130   0.690  0.00  0.00    +0.031 A 
ATOM     12  C   UNL     1       5.932   2.125   0.776  0.00  0.00    +0.042 A 
ATOM     13  C   UNL     1       6.668   3.187   0.274  0.00  0.00    +0.023 A 
ATOM     14  C   UNL     1       6.032   4.261  -0.319  0.00  0.00    +0.047 A 
ATOM     15  C   UNL     1       4.650   4.281  -0.420  0.00  0.00    +0.124 A 
ATOM     16 CL   UNL     1       6.747   0.784   1.518  0.00  0.00    -0.084 Cl
BRANCH  15  17
ATOM     17  O   UNL     1       4.025   5.334  -1.008  0.00  0.00    -0.506 OA
ATOM     18  H   UNL     1       3.796   6.046  -0.396  0.00  0.00    +0.292 HD
ENDBRANCH  15  17
ENDBRANCH   6  10
BRANCH   9  19
ATOM     19  C   UNL     1      -2.223  -0.326  -0.927  0.00  0.00    +0.067 A 
ATOM     20  C   UNL     1      -2.552   0.384   0.230  0.00  0.00    +0.028 A 
ATOM     21  C   UNL     1      -3.850   0.806   0.430  0.00  0.00    +0.002 A 
ATOM     22  C   UNL     1      -4.827   0.519  -0.508  0.00  0.00    +0.000 A 
ATOM     23  C   UNL     1      -4.508  -0.189  -1.654  0.00  0.00    +0.002 A 
ATOM     24  C   UNL     1      -3.213  -0.613  -1.869  0.00  0.00    +0.028 A 
ENDBRANCH   9  19
TORSDOF 3
