REMARK  Name = ZINC12593616
REMARK  6 active torsions:
REMARK  status: ('A' for Active; 'I' for Inactive)
REMARK    1  A    between atoms: C_1  and  N_2
REMARK    2  A    between atoms: C_15  and  C_16
REMARK    3  A    between atoms: C_16  and  N_55
REMARK    4  A    between atoms: C_19  and  C_22
REMARK    5  A    between atoms: C_22  and  C_24
REMARK    6  A    between atoms: C_22  and  O_30
REMARK                            x       y       z     vdW  Elec       q    Type
REMARK                         _______ _______ _______ _____ _____    ______ ____
ROOT
ATOM      1  C   UNL     1       0.419   7.994  -5.011  0.00  0.00    -0.001 C 
ENDROOT
BRANCH   1  16
ATOM      2  C   UNL     1       5.797   7.511  -7.869  0.00  0.00    +0.155 C 
ATOM      3  N   UNL     1       4.888   8.292  -7.027  0.00  0.00    -0.280 N 
ATOM      4  C   UNL     1       5.264   9.516  -6.600  0.00  0.00    +0.263 A 
ATOM      5  O   UNL     1       6.352   9.968  -6.900  0.00  0.00    -0.267 OA
ATOM      6  C   UNL     1       4.337  10.290  -5.755  0.00  0.00    +0.063 A 
ATOM      7  C   UNL     1       4.676  11.555  -5.277  0.00  0.00    +0.015 A 
ATOM      8  C   UNL     1       3.781  12.248  -4.490  0.00  0.00    +0.001 A 
ATOM      9  C   UNL     1       2.551  11.694  -4.172  0.00  0.00    +0.002 A 
ATOM     10  C   UNL     1       2.204  10.441  -4.638  0.00  0.00    +0.027 A 
ATOM     11  C   UNL     1       3.091   9.729  -5.432  0.00  0.00    +0.063 A 
ATOM     12  N   UNL     1       2.772   8.467  -5.917  0.00  0.00    -0.266 N 
ATOM     13  C   UNL     1       3.651   7.772  -6.695  0.00  0.00    +0.239 A 
ATOM     14  N   UNL     1       3.069   6.633  -6.999  0.00  0.00    -0.110 NA
ATOM     15  N   UNL     1       1.904   6.579  -6.461  0.00  0.00    -0.134 NA
ATOM     16  C   UNL     1       1.671   7.671  -5.785  0.00  0.00    +0.123 A 
ENDBRANCH   1  16
BRANCH   1  22
ATOM     17  C   UNL     1      -0.477   8.193  -2.771  0.00  0.00    -0.078 C 
ATOM     18  C   UNL     1      -0.159   7.971  -1.290  0.00  0.00    -0.012 C 
ATOM     19  C   UNL     1       0.034   6.474  -1.033  0.00  0.00    +0.019 C 
ATOM     20  C   UNL     1       1.155   5.949  -1.936  0.00  0.00    -0.012 C 
ATOM     21  C   UNL     1       0.799   6.230  -3.397  0.00  0.00    -0.078 C 
ATOM     22  N   UNL     1       0.650   7.689  -3.584  0.00  0.00    +0.384 N 
ATOM     23  H   UNL     1       1.514   8.153  -3.280  0.00  0.00    -0.081 HD
BRANCH  19  24
ATOM     24  C   UNL     1       0.412   6.251   0.433  0.00  0.00    +0.147 C 
BRANCH  24  25
ATOM     25  C   UNL     1       0.602   4.778   0.684  0.00  0.00    -0.019 A 
ATOM     26  C   UNL     1       1.875   4.241   0.720  0.00  0.00    +0.006 A 
ATOM     27  C   UNL     1       2.049   2.889   0.951  0.00  0.00    +0.000 A 
ATOM     28  C   UNL     1       0.950   2.074   1.146  0.00  0.00    +0.000 A 
ATOM     29  C   UNL     1      -0.324   2.610   1.105  0.00  0.00    +0.000 A 
ATOM     30  C   UNL     1      -0.498   3.962   0.879  0.00  0.00    +0.006 A 
ENDBRANCH  24  25
BRANCH  24  31
ATOM     31  O   UNL     1      -0.631   6.748   1.274  0.00  0.00    -0.387 OA
ATOM     32  H   UNL     1      -1.488   6.321   1.132  0.00  0.00    +0.210 HD
ENDBRANCH  24  31
ENDBRANCH  19  24
ENDBRANCH   1  22
TORSDOF 5
