REMARK  Name = ZINC06677983
REMARK  4 active torsions:
REMARK  status: ('A' for Active; 'I' for Inactive)
REMARK    1  A    between atoms: C_6  and  C_7
REMARK    2  A    between atoms: C_7  and  C_9
REMARK    3  A    between atoms: C_9  and  S_10
REMARK    4  A    between atoms: S_10  and  C_11
REMARK                            x       y       z     vdW  Elec       q    Type
REMARK                         _______ _______ _______ _____ _____    ______ ____
ROOT
ATOM      1  S   UNL     1      -3.935  -1.225   0.035  0.00  0.00    -0.091 S 
ENDROOT
BRANCH   1   2
ATOM      2  C   UNL     1      -5.386  -0.225   0.055  0.00  0.00    +0.138 A 
ATOM      3  N   UNL     1      -5.466   1.090   0.057  0.00  0.00    -0.215 NA
ATOM      4  C   UNL     1      -6.633   1.728   0.073  0.00  0.00    +0.153 A 
ATOM      5  C   UNL     1      -7.746   0.879   0.087  0.00  0.00    +0.104 A 
ATOM      6  S   UNL     1      -6.993  -0.727   0.069  0.00  0.00    -0.056 S 
ATOM      7  C   UNL     1      -9.047   1.361   0.105  0.00  0.00    +0.201 A 
ATOM      8  C   UNL     1      -9.248   2.737   0.109  0.00  0.00    +0.122 A 
ATOM      9  C   UNL     1      -8.135   3.579   0.095  0.00  0.00    +0.254 A 
ATOM     10  O   UNL     1      -8.304   4.788   0.098  0.00  0.00    -0.268 OA
ATOM     11  N   UNL     1      -6.884   3.095   0.077  0.00  0.00    -0.306 N 
ATOM     12  H   UNL     1      -6.137   3.714   0.068  0.00  0.00    +0.170 HD
ATOM     13  O   UNL     1     -10.101   0.509   0.118  0.00  0.00    -0.286 OA
ENDBRANCH   1   2
BRANCH   1  14
ATOM     14  C   UNL     1      -2.575  -0.025   0.028  0.00  0.00    +0.156 C 
BRANCH  14  15
ATOM     15  C   UNL     1      -1.258  -0.758   0.011  0.00  0.00    +0.173 C 
ATOM     16  O   UNL     1      -1.239  -1.971   0.004  0.00  0.00    -0.291 OA
BRANCH  15  22
ATOM     17  C   UNL     1      -0.017   1.395   0.010  0.00  0.00    +0.015 A 
ATOM     18  C   UNL     1       1.166   2.100   0.002  0.00  0.00    +0.050 A 
ATOM     19  C   UNL     1       2.381   1.426  -0.013  0.00  0.00    +0.166 A 
ATOM     20  C   UNL     1       2.408   0.030  -0.021  0.00  0.00    +0.167 A 
ATOM     21  C   UNL     1       1.227  -0.683  -0.013  0.00  0.00    +0.061 A 
ATOM     22  C   UNL     1       0.002  -0.004   0.002  0.00  0.00    +0.022 A 
ATOM     23  O   UNL     1       3.711  -0.380  -0.037  0.00  0.00    -0.453 OA
ATOM     24  C   UNL     1       4.470   0.771  -0.451  0.00  0.00    +0.466 C 
ATOM     25  O   UNL     1       3.665   1.885  -0.023  0.00  0.00    -0.453 OA
ENDBRANCH  15  22
ENDBRANCH  14  15
ENDBRANCH   1  14
TORSDOF 4
