REMARK  Name = ZINC63696524
REMARK  11 active torsions:
REMARK  status: ('A' for Active; 'I' for Inactive)
REMARK    1  A    between atoms: C_1  and  C_2
REMARK    2  A    between atoms: C_2  and  C_3
REMARK    3  A    between atoms: C_3  and  C_4
REMARK    4  A    between atoms: C_4  and  C_5
REMARK    5  A    between atoms: C_4  and  N_24
REMARK    6  A    between atoms: N_7  and  C_8
REMARK    7  A    between atoms: C_8  and  C_9
REMARK    8  A    between atoms: C_14  and  C_15
REMARK    9  A    between atoms: C_15  and  N_16
REMARK   10  A    between atoms: N_16  and  C_17
REMARK   11  A    between atoms: N_16  and  C_18
REMARK                            x       y       z     vdW  Elec       q    Type
REMARK                         _______ _______ _______ _____ _____    ______ ____
ROOT
ATOM      1  C   UNL     1      -4.776  -3.142   1.481  0.00  0.00    +0.139 C 
ENDROOT
BRANCH   1   2
ATOM      2  C   UNL     1      -5.195  -3.090   2.928  0.00  0.00    -0.029 A 
ATOM      3  C   UNL     1      -5.147  -4.234   3.703  0.00  0.00    +0.005 A 
ATOM      4  C   UNL     1      -5.531  -4.187   5.030  0.00  0.00    +0.000 A 
ATOM      5  C   UNL     1      -5.963  -2.995   5.582  0.00  0.00    +0.000 A 
ATOM      6  C   UNL     1      -6.009  -1.851   4.808  0.00  0.00    +0.002 A 
ATOM      7  C   UNL     1      -5.621  -1.898   3.482  0.00  0.00    -0.059 A 
BRANCH   7   8
ATOM      8  C   UNL     1      -5.667  -0.649   2.639  0.00  0.00    -0.043 C 
BRANCH   8   9
ATOM      9  N   UNL     1      -6.883  -0.659   1.816  0.00  0.00    +0.382 N 
ATOM     10  C   UNL     1      -8.065  -0.584   2.686  0.00  0.00    -0.095 C 
ATOM     11  H   UNL     1      -6.917  -1.510   1.275  0.00  0.00    -0.081 HD
BRANCH   9  12
ATOM     12  C   UNL     1      -6.869   0.496   0.908  0.00  0.00    -0.069 C 
ATOM     13  C   UNL     1      -8.136   0.486   0.050  0.00  0.00    -0.015 C 
ATOM     14  C   UNL     1      -8.122   1.690  -0.894  0.00  0.00    -0.002 C 
ATOM     15  C   UNL     1      -6.891   1.612  -1.801  0.00  0.00    -0.000 C 
ATOM     16  C   UNL     1      -5.625   1.622  -0.943  0.00  0.00    -0.002 C 
ATOM     17  C   UNL     1      -5.639   0.419   0.002  0.00  0.00    -0.015 C 
ENDBRANCH   9  12
ENDBRANCH   8   9
ENDBRANCH   7   8
ENDBRANCH   1   2
BRANCH   1  20
ATOM     18  C   UNL     1      -2.820  -2.586   0.139  0.00  0.00    +0.234 C 
ATOM     19  O   UNL     1      -3.423  -2.963  -0.843  0.00  0.00    -0.274 OA
ATOM     20  N   UNL     1      -3.408  -2.634   1.351  0.00  0.00    -0.310 N 
ATOM     21  H   UNL     1      -2.925  -2.332   2.136  0.00  0.00    +0.149 HD
BRANCH  18  22
ATOM     22  C   UNL     1      -1.413  -2.063   0.004  0.00  0.00    +0.160 C 
BRANCH  22  23
ATOM     23  N   UNL     1      -0.834  -2.537  -1.256  0.00  0.00    -0.288 N 
ATOM     24  C   UNL     1      -1.415  -2.213  -2.428  0.00  0.00    +0.298 C 
ATOM     25  O   UNL     1      -2.419  -1.527  -2.439  0.00  0.00    -0.253 OA
ATOM     26  N   UNL     1      -0.883  -2.649  -3.587  0.00  0.00    -0.313 N 
ATOM     27  H   UNL     1      -0.033  -3.084  -1.246  0.00  0.00    +0.151 HD
ATOM     28  H   UNL     1      -0.082  -3.196  -3.577  0.00  0.00    +0.146 HD
ATOM     29  H   UNL     1      -1.301  -2.415  -4.430  0.00  0.00    +0.146 HD
ENDBRANCH  22  23
BRANCH  22  30
ATOM     30  C   UNL     1      -1.433  -0.534   0.013  0.00  0.00    +0.031 C 
BRANCH  30  32
ATOM     31  C   UNL     1      -0.019   1.526   0.010  0.00  0.00    +0.004 C 
ATOM     32  C   UNL     1       0.002  -0.004   0.002  0.00  0.00    -0.001 C 
ENDBRANCH  30  32
ENDBRANCH  22  30
ENDBRANCH  18  22
ENDBRANCH   1  20
TORSDOF 9
