REMARK  Name = ZINC27754244
REMARK  6 active torsions:
REMARK  status: ('A' for Active; 'I' for Inactive)
REMARK    1  A    between atoms: C_4  and  C_7
REMARK    2  A    between atoms: C_7  and  O_34
REMARK    3  A    between atoms: C_8  and  C_28
REMARK    4  A    between atoms: C_10  and  C_16
REMARK    5  A    between atoms: C_19  and  C_21
REMARK    6  A    between atoms: C_28  and  C_30
REMARK                            x       y       z     vdW  Elec       q    Type
REMARK                         _______ _______ _______ _____ _____    ______ ____
ROOT
ATOM      1  C   UNL     1      -0.070   5.347   0.030  0.00  0.00    +0.172 C 
ATOM      2  C   UNL     1      -0.056   5.852   1.476  0.00  0.00    +0.147 C 
ATOM      3  C   UNL     1       0.040   7.382   1.458  0.00  0.00    +0.156 C 
ATOM      4  N   UNL     1       1.215   7.780   0.681  0.00  0.00    -0.289 N 
ATOM      5  C   UNL     1       1.679   7.021  -0.322  0.00  0.00    +0.303 C 
ATOM      6  O   UNL     1       2.652   7.403  -0.943  0.00  0.00    -0.253 OA
ATOM      7  N   UNL     1       1.111   5.856  -0.669  0.00  0.00    -0.267 N 
ATOM      8  H   UNL     1       1.737   8.720   0.916  0.00  0.00    +0.151 HD
ATOM      9  H   UNL     1       1.551   5.280  -1.497  0.00  0.00    +0.153 HD
ENDROOT
BRANCH   1  13
ATOM     10  C   UNL     1      -0.013   1.076   0.008  0.00  0.00    +0.000 A 
ATOM     11  C   UNL     1      -1.219   1.751   0.017  0.00  0.00    +0.000 A 
ATOM     12  C   UNL     1      -1.238   3.133   0.030  0.00  0.00    +0.008 A 
ATOM     13  C   UNL     1      -0.050   3.840   0.022  0.00  0.00    +0.003 A 
ATOM     14  C   UNL     1       1.156   3.165   0.008  0.00  0.00    +0.008 A 
ATOM     15  C   UNL     1       1.175   1.783   0.000  0.00  0.00    +0.000 A 
ENDBRANCH   1  13
BRANCH   3  16
ATOM     16  C   UNL     1      -1.201   7.957   0.824  0.00  0.00    +0.127 A 
ATOM     17  C   UNL     1      -2.251   8.479   1.487  0.00  0.00    +0.047 A 
ATOM     18  C   UNL     1      -3.184   8.898   0.518  0.00  0.00    +0.050 A 
ATOM     19  C   UNL     1      -2.646   8.606  -0.696  0.00  0.00    +0.135 A 
ATOM     20  O   UNL     1      -1.440   8.040  -0.494  0.00  0.00    -0.458 OA
BRANCH  19  21
ATOM     21  C   UNL     1      -3.272   8.868  -2.008  0.00  0.00    +0.017 A 
ATOM     22  C   UNL     1      -4.533   9.464  -2.076  0.00  0.00    +0.013 A 
ATOM     23  C   UNL     1      -5.110   9.711  -3.305  0.00  0.00    +0.021 A 
ATOM     24  C   UNL     1      -4.447   9.360  -4.468  0.00  0.00    +0.041 A 
ATOM     25  C   UNL     1      -3.199   8.764  -4.407  0.00  0.00    +0.021 A 
ATOM     26  C   UNL     1      -2.608   8.517  -3.185  0.00  0.00    +0.013 A 
ATOM     27 CL   UNL     1      -5.183   9.668  -6.010  0.00  0.00    -0.084 Cl
ENDBRANCH  19  21
ENDBRANCH   3  16
BRANCH   2  28
ATOM     28  C   UNL     1       1.136   5.279   2.200  0.00  0.00    +0.245 C 
ATOM     29  O   UNL     1       2.146   5.022   1.591  0.00  0.00    -0.287 OA
BRANCH  28  30
ATOM     30  C   UNL     1       1.066   5.028   3.684  0.00  0.00    +0.451 C 
ATOM     31  F   UNL     1       2.052   5.780   4.331  0.00  0.00    -0.163 F 
ATOM     32  F   UNL     1      -0.194   5.403   4.162  0.00  0.00    -0.163 F 
ATOM     33  F   UNL     1       1.276   3.668   3.938  0.00  0.00    -0.163 F 
ENDBRANCH  28  30
ENDBRANCH   2  28
BRANCH   1  34
ATOM     34  O   UNL     1      -1.251   5.812  -0.628  0.00  0.00    -0.367 OA
ATOM     35  H   UNL     1      -1.440   6.892  -0.720  0.00  0.00    +0.212 HD
ENDBRANCH   1  34
TORSDOF 6
