REMARK  Name = ZINC35396618
REMARK  9 active torsions:
REMARK  status: ('A' for Active; 'I' for Inactive)
REMARK    1  A    between atoms: C_1  and  C_2
REMARK    2  A    between atoms: C_2  and  C_3
REMARK    3  A    between atoms: C_10  and  C_36
REMARK    4  A    between atoms: C_11  and  S_15
REMARK    5  A    between atoms: S_15  and  N_18
REMARK    6  A    between atoms: C_22  and  C_25
REMARK    7  A    between atoms: N_27  and  C_28
REMARK    8  A    between atoms: C_30  and  C_35
REMARK    9  A    between atoms: C_33  and  C_34
REMARK                            x       y       z     vdW  Elec       q    Type
REMARK                         _______ _______ _______ _____ _____    ______ ____
ROOT
ATOM      1  S   UNL     1       5.572  -0.362  -1.704  0.00  0.00    +0.061 S 
ATOM      2  O   UNL     1       5.550  -0.578  -3.108  0.00  0.00    -0.153 OA
ATOM      3  O   UNL     1       5.455   0.932  -1.130  0.00  0.00    -0.153 OA
ENDROOT
BRANCH   1  11
ATOM      4  C   UNL     1       1.181  -4.878  -1.564  0.00  0.00    +0.259 C 
ATOM      5  C   UNL     1       0.626  -4.598  -0.190  0.00  0.00    +0.258 C 
ATOM      6  O   UNL     1      -0.334  -5.217   0.217  0.00  0.00    -0.271 OA
ATOM      7  N   UNL     1       1.203  -3.656   0.586  0.00  0.00    -0.280 N 
ATOM      8  C   UNL     1       2.230  -2.865   0.052  0.00  0.00    +0.076 A 
ATOM      9  C   UNL     1       2.994  -2.054   0.874  0.00  0.00    +0.032 A 
ATOM     10  C   UNL     1       4.012  -1.290   0.334  0.00  0.00    -0.022 A 
ATOM     11  C   UNL     1       4.269  -1.334  -1.024  0.00  0.00    +0.112 A 
ATOM     12  C   UNL     1       3.506  -2.139  -1.851  0.00  0.00    +0.076 A 
ATOM     13  C   UNL     1       2.482  -2.902  -1.318  0.00  0.00    +0.145 A 
ATOM     14  O   UNL     1       1.705  -3.672  -2.125  0.00  0.00    -0.478 OA
ATOM     15  C   UNL     1       4.844  -0.406   1.227  0.00  0.00    +0.046 C 
ATOM     16  H   UNL     1       0.911  -3.527   1.502  0.00  0.00    +0.155 HD
BRANCH   4  18
ATOM     17  C   UNL     1       2.774  -6.297  -2.863  0.00  0.00    +0.008 C 
ATOM     18  C   UNL     1       2.297  -5.919  -1.460  0.00  0.00    +0.051 C 
ENDBRANCH   4  18
ENDBRANCH   1  11
BRANCH   1  19
ATOM     19  N   UNL     1       6.997  -0.998  -1.149  0.00  0.00    -0.176 NA
ATOM     20  C   UNL     1       7.646  -0.449   0.049  0.00  0.00    +0.109 C 
ATOM     21  C   UNL     1       7.905  -1.591   1.037  0.00  0.00    +0.018 C 
ATOM     22  C   UNL     1       8.705  -2.693   0.339  0.00  0.00    +0.015 C 
ATOM     23  C   UNL     1       7.896  -3.245  -0.837  0.00  0.00    +0.091 C 
ATOM     24  C   UNL     1       7.634  -2.126  -1.843  0.00  0.00    +0.122 C 
BRANCH  23  25
ATOM     25  C   UNL     1       8.670  -4.353  -1.504  0.00  0.00    +0.222 C 
ATOM     26  O   UNL     1       8.983  -4.256  -2.672  0.00  0.00    -0.275 OA
ATOM     27  N   UNL     1       9.016  -5.450  -0.803  0.00  0.00    -0.285 N 
ATOM     28  H   UNL     1       8.844  -5.490   0.151  0.00  0.00    +0.155 HD
BRANCH  27  29
ATOM     29  C   UNL     1       9.621  -6.533  -1.451  0.00  0.00    +0.037 A 
ATOM     30  C   UNL     1       9.513  -6.668  -2.829  0.00  0.00    +0.027 A 
ATOM     31  C   UNL     1      10.112  -7.738  -3.465  0.00  0.00    -0.049 A 
ATOM     32  C   UNL     1      10.819  -8.673  -2.731  0.00  0.00    +0.004 A 
ATOM     33  C   UNL     1      10.928  -8.541  -1.359  0.00  0.00    +0.005 A 
ATOM     34  C   UNL     1      10.337  -7.470  -0.718  0.00  0.00    -0.029 A 
ATOM     35  C   UNL     1      10.463  -7.323   0.777  0.00  0.00    +0.045 C 
ATOM     36  C   UNL     1       9.995  -7.886  -4.960  0.00  0.00    +0.044 C 
ENDBRANCH  27  29
ENDBRANCH  23  25
ENDBRANCH   1  19
TORSDOF 5
