REMARK  Name = ZINC03438364
REMARK  6 active torsions:
REMARK  status: ('A' for Active; 'I' for Inactive)
REMARK    1  A    between atoms: C_10  and  C_11
REMARK    2  A    between atoms: C_11  and  O_13
REMARK    3  A    between atoms: O_13  and  C_14
REMARK    4  A    between atoms: C_14  and  C_15
REMARK    5  A    between atoms: N_17  and  C_18
REMARK    6  A    between atoms: C_19  and  C_23
REMARK                            x       y       z     vdW  Elec       q    Type
REMARK                         _______ _______ _______ _____ _____    ______ ____
ROOT
ATOM      1  C   UNL     1      -1.329   1.944   0.033  0.00  0.00    +0.328 C 
ENDROOT
BRANCH   1   2
ATOM      2  C   UNL     1      -0.014   1.209   0.041  0.00  0.00    +0.255 C 
ATOM      3  O   UNL     1       0.002  -0.004   0.046  0.00  0.00    -0.272 OA
ATOM      4  N   UNL     1       1.144   1.898   0.036  0.00  0.00    -0.277 N 
ATOM      5  H   UNL     1       1.130   2.868   0.031  0.00  0.00    +0.155 HD
BRANCH   4   6
ATOM      6  C   UNL     1       2.354   1.221   0.037  0.00  0.00    +0.084 A 
ATOM      7  C   UNL     1       3.639   1.750   0.027  0.00  0.00    +0.065 A 
ATOM      8  C   UNL     1       4.730   0.805   0.036  0.00  0.00    +0.022 A 
ATOM      9  C   UNL     1       4.411  -0.501   0.042  0.00  0.00    +0.048 A 
ATOM     10  S   UNL     1       2.630  -0.488   0.044  0.00  0.00    -0.081 S 
BRANCH   7  11
ATOM     11  C   UNL     1       3.875   3.197   0.012  0.00  0.00    +0.244 C 
ATOM     12  O   UNL     1       2.933   3.968   0.008  0.00  0.00    -0.270 OA
ATOM     13  N   UNL     1       5.135   3.675   0.002  0.00  0.00    -0.325 N 
ATOM     14  H   UNL     1       5.886   3.061   0.005  0.00  0.00    +0.145 HD
ATOM     15  H   UNL     1       5.291   4.632  -0.007  0.00  0.00    +0.145 HD
ENDBRANCH   7  11
ENDBRANCH   4   6
ENDBRANCH   1   2
BRANCH   1  16
ATOM     16  O   UNL     1      -2.420   0.986   0.034  0.00  0.00    -0.452 OA
BRANCH  16  17
ATOM     17  C   UNL     1      -3.673   1.484   0.028  0.00  0.00    +0.340 C 
ATOM     18  O   UNL     1      -3.848   2.687   0.021  0.00  0.00    -0.245 OA
BRANCH  17  28
ATOM     19  C   UNL     1      -8.794   2.009   0.369  0.00  0.00    +0.001 A 
ATOM     20  C   UNL     1      -7.726   2.904   0.372  0.00  0.00    +0.001 A 
ATOM     21  C   UNL     1      -6.442   2.462   0.264  0.00  0.00    +0.009 A 
ATOM     22  C   UNL     1      -6.189   1.090   0.153  0.00  0.00    -0.004 A 
ATOM     23  C   UNL     1      -7.272   0.177   0.143  0.00  0.00    -0.017 A 
ATOM     24  C   UNL     1      -8.584   0.668   0.258  0.00  0.00    +0.008 A 
ATOM     25  C   UNL     1      -7.015  -1.199   0.026  0.00  0.00    +0.008 A 
ATOM     26  C   UNL     1      -5.739  -1.660  -0.084  0.00  0.00    +0.001 A 
ATOM     27  C   UNL     1      -4.648  -0.802  -0.084  0.00  0.00    +0.015 A 
ATOM     28  C   UNL     1      -4.829   0.571   0.028  0.00  0.00    +0.067 A 
ENDBRANCH  17  28
ENDBRANCH  16  17
ENDBRANCH   1  16
TORSDOF 6
