REMARK  Name = ZINC08990363
REMARK  11 active torsions:
REMARK  status: ('A' for Active; 'I' for Inactive)
REMARK    1  A    between atoms: C_4  and  C_7
REMARK    2  A    between atoms: C_7  and  C_9
REMARK    3  A    between atoms: C_7  and  O_36
REMARK    4  A    between atoms: C_9  and  N_10
REMARK    5  A    between atoms: C_11  and  C_13
REMARK    6  A    between atoms: C_13  and  N_14
REMARK    7  A    between atoms: C_15  and  C_17
REMARK    8  A    between atoms: C_21  and  C_25
REMARK    9  A    between atoms: C_25  and  N_26
REMARK   10  A    between atoms: N_26  and  S_27
REMARK   11  A    between atoms: S_27  and  C_30
REMARK                            x       y       z     vdW  Elec       q    Type
REMARK                         _______ _______ _______ _____ _____    ______ ____
ROOT
ATOM      1  N   UNL     1       5.535  -1.777  -8.812  0.00  0.00    -0.306 N 
ATOM      2  C   UNL     1       6.191  -0.990  -7.936  0.00  0.00    +0.217 C 
ATOM      3  O   UNL     1       7.336  -0.658  -8.158  0.00  0.00    -0.276 OA
ATOM      4  H   UNL     1       4.619  -2.042  -8.634  0.00  0.00    +0.149 HD
ENDROOT
BRANCH   2   5
ATOM      5  C   UNL     1       5.501  -0.521  -6.681  0.00  0.00    +0.075 C 
ATOM      6  C   UNL     1       6.459   0.351  -5.868  0.00  0.00    +0.013 C 
ATOM      7  C   UNL     1       5.759   0.827  -4.593  0.00  0.00    +0.005 C 
ATOM      8  C   UNL     1       5.340  -0.385  -3.759  0.00  0.00    +0.005 C 
ATOM      9  C   UNL     1       4.382  -1.257  -4.572  0.00  0.00    +0.005 C 
ATOM     10  C   UNL     1       5.082  -1.733  -5.846  0.00  0.00    +0.013 C 
BRANCH   8  11
ATOM     11  C   UNL     1       4.639   0.091  -2.485  0.00  0.00    +0.109 C 
BRANCH  11  12
ATOM     12  N   UNL     1       4.345  -1.062  -1.630  0.00  0.00    -0.190 NA
ATOM     13  H   UNL     1       4.391  -1.960  -1.994  0.00  0.00    +0.148 HD
BRANCH  12  14
ATOM     14  S   UNL     1       3.934  -0.832  -0.042  0.00  0.00    +0.058 S 
ATOM     15  O   UNL     1       4.902   0.054   0.504  0.00  0.00    -0.153 OA
ATOM     16  O   UNL     1       3.686  -2.120   0.504  0.00  0.00    -0.153 OA
BRANCH  14  17
ATOM     17  C   UNL     1       2.396   0.029  -0.022  0.00  0.00    +0.105 A 
ATOM     18  C   UNL     1       1.208  -0.679  -0.014  0.00  0.00    +0.028 A 
ATOM     19  C   UNL     1       0.002  -0.004   0.002  0.00  0.00    +0.002 A 
ATOM     20  C   UNL     1      -0.017   1.378   0.010  0.00  0.00    +0.000 A 
ATOM     21  C   UNL     1       1.171   2.086   0.002  0.00  0.00    +0.002 A 
ATOM     22  C   UNL     1       2.377   1.411  -0.014  0.00  0.00    +0.028 A 
ENDBRANCH  14  17
ENDBRANCH  12  14
ENDBRANCH  11  12
ENDBRANCH   8  11
ENDBRANCH   2   5
BRANCH   1  23
ATOM     23  C   UNL     1       6.206  -2.232 -10.032  0.00  0.00    +0.200 C 
BRANCH  23  25
ATOM     24  N   UNL     1       5.665  -3.626 -12.003  0.00  0.00    -0.311 N 
ATOM     25  C   UNL     1       5.262  -3.092 -10.833  0.00  0.00    +0.230 C 
ATOM     26  O   UNL     1       4.140  -3.303 -10.425  0.00  0.00    -0.274 OA
ATOM     27  H   UNL     1       6.563  -3.457 -12.329  0.00  0.00    +0.149 HD
BRANCH  24  28
ATOM     28  C   UNL     1       4.748  -4.461 -12.782  0.00  0.00    +0.140 C 
BRANCH  28  29
ATOM     29  C   UNL     1       5.448  -4.937 -14.056  0.00  0.00    +0.162 C 
BRANCH  29  33
ATOM     30  C   UNL     1       2.772  -7.373 -16.326  0.00  0.00    +0.000 A 
ATOM     31  C   UNL     1       3.671  -7.960 -15.455  0.00  0.00    +0.000 A 
ATOM     32  C   UNL     1       4.537  -7.172 -14.720  0.00  0.00    +0.006 A 
ATOM     33  C   UNL     1       4.504  -5.797 -14.857  0.00  0.00    -0.018 A 
ATOM     34  C   UNL     1       3.602  -5.209 -15.724  0.00  0.00    +0.006 A 
ATOM     35  C   UNL     1       2.739  -5.998 -16.462  0.00  0.00    +0.000 A 
ENDBRANCH  29  33
BRANCH  29  36
ATOM     36  O   UNL     1       5.839  -3.805 -14.835  0.00  0.00    -0.386 OA
ATOM     37  H   UNL     1       5.102  -3.242 -15.108  0.00  0.00    +0.210 HD
ENDBRANCH  29  36
ENDBRANCH  28  29
ENDBRANCH  24  28
ENDBRANCH  23  25
ENDBRANCH   1  23
TORSDOF 11
