REMARK  Name = ZINC11855169
REMARK  7 active torsions:
REMARK  status: ('A' for Active; 'I' for Inactive)
REMARK    1  A    between atoms: C_1  and  C_2
REMARK    2  A    between atoms: C_2  and  C_3
REMARK    3  A    between atoms: C_4  and  C_37
REMARK    4  A    between atoms: C_12  and  N_21
REMARK    5  A    between atoms: C_14  and  C_16
REMARK    6  A    between atoms: C_22  and  C_24
REMARK    7  A    between atoms: N_29  and  C_31
REMARK                            x       y       z     vdW  Elec       q    Type
REMARK                         _______ _______ _______ _____ _____    ______ ____
ROOT
ATOM      1  C   UNL     1       6.582  -4.542   1.386  0.00  0.00    +0.038 A 
ATOM      2  C   UNL     1       5.544  -3.656   1.397  0.00  0.00    +0.050 A 
ATOM      3  N   UNL     1       5.599  -2.553   0.653  0.00  0.00    -0.217 NA
ATOM      4  C   UNL     1       6.642  -2.289  -0.104  0.00  0.00    +0.234 A 
ATOM      5  N   UNL     1       7.704  -3.136  -0.161  0.00  0.00    -0.291 N 
ATOM      6  H   UNL     1       8.463  -2.928  -0.728  0.00  0.00    +0.172 HD
ATOM      7  C   UNL     1       7.701  -4.266   0.579  0.00  0.00    +0.256 A 
ATOM      8  O   UNL     1       8.647  -5.035   0.543  0.00  0.00    -0.267 OA
ATOM      9  N   UNL     1       6.656  -1.133  -0.860  0.00  0.00    -0.185 N 
ATOM     10  C   UNL     1       5.665  -0.194  -0.910  0.00  0.00    +0.132 A 
ATOM     11  C   UNL     1       6.066   0.784  -1.760  0.00  0.00    +0.074 A 
ATOM     12  C   UNL     1       7.341   0.433  -2.252  0.00  0.00    +0.102 A 
ATOM     13  N   UNL     1       7.688  -0.718  -1.711  0.00  0.00    -0.162 NA
ATOM     14  C   UNL     1       4.333  -3.926   2.253  0.00  0.00    +0.066 C 
ENDROOT
BRANCH  12  15
ATOM     15  C   UNL     1       8.149   1.219  -3.208  0.00  0.00    +0.039 A 
ATOM     16  C   UNL     1       9.386   0.942  -3.725  0.00  0.00    +0.018 A 
ATOM     17  C   UNL     1       9.948   1.834  -4.612  0.00  0.00    +0.008 A 
ATOM     18  C   UNL     1       9.261   2.957  -4.945  0.00  0.00    +0.046 A 
ATOM     19  S   UNL     1       7.762   2.775  -3.995  0.00  0.00    -0.095 S 
ENDBRANCH  12  15
BRANCH  10  20
ATOM     20  N   UNL     1       4.461  -0.231  -0.209  0.00  0.00    -0.270 N 
ATOM     21  C   UNL     1       3.570   0.770  -0.348  0.00  0.00    +0.223 C 
ATOM     22  O   UNL     1       3.815   1.703  -1.082  0.00  0.00    -0.275 OA
ATOM     23  H   UNL     1       4.265  -0.978   0.379  0.00  0.00    +0.156 HD
BRANCH  21  24
ATOM     24  C   UNL     1       2.268   0.730   0.410  0.00  0.00    +0.102 C 
ATOM     25  C   UNL     1       1.430  -0.505   0.005  0.00  0.00    +0.110 C 
ATOM     26  C   UNL     1       0.002  -0.004   0.016  0.00  0.00    +0.221 C 
ATOM     27  O   UNL     1      -0.982  -0.712   0.030  0.00  0.00    -0.275 OA
ATOM     28  N   UNL     1      -0.016   1.340   0.009  0.00  0.00    -0.271 N 
ATOM     29  C   UNL     1       1.344   1.892  -0.016  0.00  0.00    +0.127 C 
BRANCH  28  30
ATOM     30  C   UNL     1      -1.182   2.114   0.019  0.00  0.00    +0.036 A 
ATOM     31  C   UNL     1      -2.424   1.502  -0.088  0.00  0.00    +0.023 A 
ATOM     32  C   UNL     1      -3.573   2.268  -0.071  0.00  0.00    +0.002 A 
ATOM     33  C   UNL     1      -3.487   3.644   0.040  0.00  0.00    +0.000 A 
ATOM     34  C   UNL     1      -2.252   4.256   0.141  0.00  0.00    +0.002 A 
ATOM     35  C   UNL     1      -1.099   3.495   0.131  0.00  0.00    +0.023 A 
ENDBRANCH  28  30
ENDBRANCH  21  24
ENDBRANCH  10  20
BRANCH   1  37
ATOM     36  C   UNL     1       6.013  -6.955   1.373  0.00  0.00    +0.009 C 
ATOM     37  C   UNL     1       6.530  -5.793   2.223  0.00  0.00    +0.039 C 
ENDBRANCH   1  37
TORSDOF 5
