REMARK  Name = ZINC04940825
REMARK  3 active torsions:
REMARK  status: ('A' for Active; 'I' for Inactive)
REMARK    1  A    between atoms: C_1  and  C_2
REMARK    2  A    between atoms: C_2  and  C_4
REMARK    3  A    between atoms: C_2  and  N_16
REMARK                            x       y       z     vdW  Elec       q    Type
REMARK                         _______ _______ _______ _____ _____    ______ ____
ROOT
ATOM      1  C   UNL     1      -0.019   1.526   0.010  0.00  0.00    +0.040 C 
ATOM      2  C   UNL     1       0.002  -0.004   0.002  0.00  0.00    +0.184 C 
ENDROOT
BRANCH   2   3
ATOM      3  C   UNL     1       0.731  -0.503   1.223  0.00  0.00    +0.241 C 
ATOM      4  O   UNL     1       0.159  -1.213   2.023  0.00  0.00    -0.273 OA
ATOM      5  N   UNL     1       2.019  -0.161   1.426  0.00  0.00    -0.263 N 
ATOM      6  C   UNL     1       2.689  -0.620   2.548  0.00  0.00    +0.165 A 
ATOM      7  N   UNL     1       3.929  -0.398   2.915  0.00  0.00    -0.225 NA
ATOM      8  C   UNL     1       4.456  -0.914   4.046  0.00  0.00    +0.080 A 
ATOM      9  C   UNL     1       5.767  -0.753   4.552  0.00  0.00    +0.029 A 
ATOM     10  C   UNL     1       6.142  -1.351   5.727  0.00  0.00    +0.002 A 
ATOM     11  C   UNL     1       5.258  -2.131   6.458  0.00  0.00    +0.001 A 
ATOM     12  C   UNL     1       3.968  -2.310   5.993  0.00  0.00    +0.017 A 
ATOM     13  C   UNL     1       3.583  -1.715   4.818  0.00  0.00    +0.041 A 
ATOM     14  S   UNL     1       2.082  -1.659   3.869  0.00  0.00    -0.052 S 
ATOM     15  H   UNL     1       2.476   0.406   0.786  0.00  0.00    +0.157 HD
ENDBRANCH   2   3
BRANCH   2  16
ATOM     16  N   UNL     1      -1.372  -0.511   0.012  0.00  0.00    -0.156 N 
ATOM     17  C   UNL     1      -2.308  -0.301   0.951  0.00  0.00    +0.268 C 
ATOM     18  O   UNL     1      -2.068   0.374   1.932  0.00  0.00    -0.268 OA
ATOM     19  C   UNL     1      -3.633  -0.906   0.756  0.00  0.00    +0.065 A 
ATOM     20  C   UNL     1      -4.781  -0.846   1.565  0.00  0.00    +0.015 A 
ATOM     21  C   UNL     1      -5.931  -1.502   1.190  0.00  0.00    +0.001 A 
ATOM     22  C   UNL     1      -5.982  -2.232   0.015  0.00  0.00    +0.002 A 
ATOM     23  C   UNL     1      -4.859  -2.302  -0.796  0.00  0.00    +0.029 A 
ATOM     24  C   UNL     1      -3.716  -1.652  -0.426  0.00  0.00    +0.121 A 
ATOM     25  S   UNL     1      -2.103  -1.480  -1.139  0.00  0.00    +0.078 S 
ATOM     26  O   UNL     1      -2.235  -0.713  -2.328  0.00  0.00    -0.150 OA
ATOM     27  O   UNL     1      -1.472  -2.753  -1.095  0.00  0.00    -0.150 OA
ENDBRANCH   2  16
TORSDOF 2
