REMARK  Name = ZINC47152343
REMARK  7 active torsions:
REMARK  status: ('A' for Active; 'I' for Inactive)
REMARK    1  A    between atoms: C_1  and  C_2
REMARK    2  A    between atoms: C_2  and  C_4
REMARK    3  A    between atoms: C_2  and  N_16
REMARK    4  A    between atoms: N_6  and  C_7
REMARK    5  A    between atoms: C_10  and  C_13
REMARK    6  A    between atoms: C_20  and  C_21
REMARK    7  A    between atoms: C_24  and  N_27
REMARK                            x       y       z     vdW  Elec       q    Type
REMARK                         _______ _______ _______ _____ _____    ______ ____
ROOT
ATOM      1  N   UNL     1      -1.214  -1.169   0.167  0.00  0.00    -0.244 N 
ATOM      2  C   UNL     1      -1.795  -1.531   1.299  0.00  0.00    +0.259 C 
ATOM      3  O   UNL     1      -1.164  -1.647   2.333  0.00  0.00    -0.269 OA
ATOM      4  C   UNL     1      -3.250  -1.785   1.244  0.00  0.00    +0.077 C 
ATOM      5  C   UNL     1      -4.100  -2.163   2.232  0.00  0.00    +0.028 C 
ATOM      6  S   UNL     1      -3.582  -1.458  -0.481  0.00  0.00    -0.061 S 
ATOM      7  C   UNL     1      -1.919  -1.036  -0.975  0.00  0.00    +0.121 C 
ATOM      8  S   UNL     1      -1.354  -0.575  -2.524  0.00  0.00    -0.027 S 
ENDROOT
BRANCH   5   9
ATOM      9  C   UNL     1      -5.495  -2.498   1.913  0.00  0.00    -0.024 A 
ATOM     10  C   UNL     1      -5.902  -2.620   0.580  0.00  0.00    +0.010 A 
ATOM     11  C   UNL     1      -7.212  -2.935   0.289  0.00  0.00    +0.033 A 
ATOM     12  C   UNL     1      -8.124  -3.131   1.311  0.00  0.00    +0.126 A 
ATOM     13  C   UNL     1      -7.730  -3.011   2.633  0.00  0.00    +0.033 A 
ATOM     14  C   UNL     1      -6.422  -2.702   2.941  0.00  0.00    +0.010 A 
BRANCH  12  15
ATOM     15  N   UNL     1      -9.529  -3.469   0.990  0.00  0.00    +0.056 N 
ATOM     16  O   UNL     1      -9.877  -3.574  -0.163  0.00  0.00    -0.126 OA
ATOM     17  O   UNL     1     -10.329  -3.640   1.881  0.00  0.00    -0.126 OA
ENDBRANCH  12  15
ENDBRANCH   5   9
BRANCH   1  19
ATOM     18  C   UNL     1       0.473   0.544  -0.278  0.00  0.00    +0.038 C 
ATOM     19  C   UNL     1       0.226  -0.902   0.155  0.00  0.00    +0.166 C 
BRANCH  19  20
ATOM     20  C   UNL     1       0.902  -1.839  -0.813  0.00  0.00    +0.238 C 
ATOM     21  O   UNL     1       0.246  -2.649  -1.432  0.00  0.00    -0.273 OA
ATOM     22  N   UNL     1       2.237  -1.775  -0.991  0.00  0.00    -0.284 N 
ATOM     23  H   UNL     1       2.755  -1.094  -0.535  0.00  0.00    +0.155 HD
BRANCH  22  24
ATOM     24  C   UNL     1       2.872  -2.688  -1.830  0.00  0.00    +0.033 A 
ATOM     25  C   UNL     1       2.236  -3.125  -2.989  0.00  0.00    +0.024 A 
ATOM     26  C   UNL     1       2.857  -4.024  -3.817  0.00  0.00    +0.017 A 
ATOM     27  C   UNL     1       4.133  -4.502  -3.497  0.00  0.00    +0.063 A 
ATOM     28  C   UNL     1       4.769  -4.060  -2.331  0.00  0.00    +0.017 A 
ATOM     29  C   UNL     1       4.143  -3.158  -1.511  0.00  0.00    +0.024 A 
BRANCH  27  30
ATOM     30  C   UNL     1       4.803  -5.467  -4.383  0.00  0.00    +0.387 C 
ATOM     31  O   UNL     1       4.246  -5.852  -5.402  0.00  0.00    -0.241 OA
ATOM     32  O   UNL     1       5.918  -5.884  -4.101  0.00  0.00    -0.241 OA
ENDBRANCH  27  30
ENDBRANCH  22  24
ENDBRANCH  19  20
ENDBRANCH   1  19
TORSDOF 6
