REMARK  Name = ZINC14900075
REMARK  6 active torsions:
REMARK  status: ('A' for Active; 'I' for Inactive)
REMARK    1  A    between atoms: C_1  and  C_2
REMARK    2  A    between atoms: C_2  and  C_4
REMARK    3  A    between atoms: C_2  and  N_12
REMARK    4  A    between atoms: C_13  and  C_15
REMARK    5  A    between atoms: C_15  and  C_16
REMARK    6  A    between atoms: C_16  and  C_17
REMARK                            x       y       z     vdW  Elec       q    Type
REMARK                         _______ _______ _______ _____ _____    ______ ____
ROOT
ATOM      1  N   UNL     1       2.539   0.602   4.602  0.00  0.00    -0.309 N 
ATOM      2  C   UNL     1       2.260   1.543   3.678  0.00  0.00    +0.213 C 
ATOM      3  O   UNL     1       2.291   2.717   3.980  0.00  0.00    -0.276 OA
ATOM      4  H   UNL     1       2.514  -0.337   4.361  0.00  0.00    +0.149 HD
ENDROOT
BRANCH   1   6
ATOM      5  C   UNL     1       4.375   1.313   6.053  0.00  0.00    +0.033 C 
ATOM      6  C   UNL     1       2.880   0.998   5.971  0.00  0.00    +0.100 C 
BRANCH   6   7
ATOM      7  C   UNL     1       2.551  -0.128   6.916  0.00  0.00    -0.025 A 
ATOM      8  C   UNL     1       1.989   0.147   8.149  0.00  0.00    +0.008 A 
ATOM      9  C   UNL     1       1.686  -0.885   9.017  0.00  0.00    +0.041 A 
ATOM     10  C   UNL     1       1.945  -2.195   8.654  0.00  0.00    +0.158 A 
ATOM     11  C   UNL     1       2.509  -2.470   7.418  0.00  0.00    +0.159 A 
ATOM     12  C   UNL     1       2.807  -1.436   6.548  0.00  0.00    +0.046 A 
ATOM     13  F   UNL     1       2.763  -3.748   7.060  0.00  0.00    -0.202 F 
ATOM     14  F   UNL     1       1.649  -3.204   9.502  0.00  0.00    -0.202 F 
ENDBRANCH   6   7
ENDBRANCH   1   6
BRANCH   2  15
ATOM     15  C   UNL     1       1.909   1.135   2.270  0.00  0.00    +0.096 C 
BRANCH  15  16
ATOM     16  C   UNL     1       1.640   2.385   1.430  0.00  0.00    +0.022 C 
BRANCH  16  17
ATOM     17  C   UNL     1       1.284   1.972   0.000  0.00  0.00    +0.080 C 
ATOM     18  C   UNL     1       1.145   3.222  -0.869  0.00  0.00    +0.049 C 
ATOM     19  C   UNL     1      -0.119   3.957  -0.501  0.00  0.00    -0.025 A 
ATOM     20  C   UNL     1      -0.161   5.336  -0.575  0.00  0.00    +0.005 A 
ATOM     21  C   UNL     1      -1.322   6.012  -0.250  0.00  0.00    +0.000 A 
ATOM     22  C   UNL     1      -2.445   5.310   0.148  0.00  0.00    +0.002 A 
ATOM     23  C   UNL     1      -2.408   3.932   0.228  0.00  0.00    +0.023 A 
ATOM     24  C   UNL     1      -1.240   3.250  -0.091  0.00  0.00    +0.037 A 
ATOM     25  N   UNL     1      -1.191   1.858   0.018  0.00  0.00    -0.285 N 
ATOM     26  C   UNL     1      -0.014   1.209   0.009  0.00  0.00    +0.221 C 
ATOM     27  O   UNL     1       0.002  -0.004   0.002  0.00  0.00    -0.275 OA
ATOM     28  H   UNL     1      -2.016   1.355   0.105  0.00  0.00    +0.155 HD
ENDBRANCH  16  17
ENDBRANCH  15  16
ENDBRANCH   2  15
TORSDOF 5
