REMARK  Name = ZINC40490495
REMARK  4 active torsions:
REMARK  status: ('A' for Active; 'I' for Inactive)
REMARK    1  A    between atoms: C_3  and  C_6
REMARK    2  A    between atoms: C_6  and  C_8
REMARK    3  A    between atoms: C_6  and  N_18
REMARK    4  A    between atoms: C_8  and  N_9
REMARK                            x       y       z     vdW  Elec       q    Type
REMARK                         _______ _______ _______ _____ _____    ______ ____
ROOT
ATOM      1  C   UNL     1       4.278   1.576  -1.439  0.00  0.00    +0.127 C 
ENDROOT
BRANCH   1   2
ATOM      2  N   UNL     1       5.710   1.878  -1.501  0.00  0.00    -0.327 N 
ATOM      3  C   UNL     1       6.403   1.710  -2.688  0.00  0.00    +0.125 A 
ATOM      4  C   UNL     1       5.746   1.258  -3.834  0.00  0.00    +0.083 A 
ATOM      5  C   UNL     1       6.477   1.105  -4.997  0.00  0.00    +0.136 A 
ATOM      6  N   UNL     1       7.773   1.390  -4.990  0.00  0.00    -0.203 NA
ATOM      7  C   UNL     1       8.370   1.817  -3.888  0.00  0.00    +0.216 A 
ATOM      8  N   UNL     1       7.703   1.981  -2.755  0.00  0.00    -0.200 NA
ATOM      9  N   UNL     1       9.723   2.103  -3.921  0.00  0.00    -0.327 N 
ATOM     10 CL   UNL     1       5.709   0.546  -6.450  0.00  0.00    -0.062 Cl
ATOM     11  H   UNL     1       6.173   2.196  -0.710  0.00  0.00    +0.148 HD
ATOM     12  H   UNL     1      10.223   1.990  -4.745  0.00  0.00    +0.145 HD
ATOM     13  H   UNL     1      10.173   2.416  -3.121  0.00  0.00    +0.145 HD
ENDBRANCH   1   2
BRANCH   1  14
ATOM     14  C   UNL     1       3.761   1.845  -0.024  0.00  0.00    +0.111 C 
BRANCH  14  15
ATOM     15  N   UNL     1       4.562   1.084   0.943  0.00  0.00    -0.289 NA
ATOM     16  C   UNL     1       4.644  -0.333   0.561  0.00  0.00    +0.113 C 
ATOM     17  C   UNL     1       5.535  -1.075   1.560  0.00  0.00    +0.175 C 
ATOM     18  O   UNL     1       5.011  -0.900   2.880  0.00  0.00    -0.377 OA
ATOM     19  C   UNL     1       4.918   0.469   3.285  0.00  0.00    +0.175 C 
ATOM     20  C   UNL     1       4.021   1.226   2.303  0.00  0.00    +0.113 C 
ENDBRANCH  14  15
BRANCH  14  23
ATOM     21  C   UNL     1      -0.029   1.572   0.252  0.00  0.00    +0.008 A 
ATOM     22  C   UNL     1       1.207   2.188   0.176  0.00  0.00    +0.013 A 
ATOM     23  C   UNL     1       2.318   1.419   0.072  0.00  0.00    +0.008 A 
ATOM     24  S   UNL     1       1.631  -0.228   0.080  0.00  0.00    -0.100 S 
ATOM     25  C   UNL     1      -0.092   0.218   0.221  0.00  0.00    +0.045 A 
ENDBRANCH  14  23
ENDBRANCH   1  14
TORSDOF 4
