REMARK  Name = ZINC39978071
REMARK  7 active torsions:
REMARK  status: ('A' for Active; 'I' for Inactive)
REMARK    1  A    between atoms: C_1  and  C_2
REMARK    2  A    between atoms: C_4  and  C_15
REMARK    3  A    between atoms: C_5  and  C_14
REMARK    4  A    between atoms: N_7  and  C_8
REMARK    5  A    between atoms: N_16  and  N_17
REMARK    6  A    between atoms: C_18  and  C_20
REMARK    7  A    between atoms: C_23  and  C_26
REMARK                            x       y       z     vdW  Elec       q    Type
REMARK                         _______ _______ _______ _____ _____    ______ ____
ROOT
ATOM      1  N   UNL     1       0.851  -0.536  -4.900  0.00  0.00    -0.205 N 
ATOM      2  C   UNL     1       1.639  -1.071  -5.853  0.00  0.00    +0.263 C 
ATOM      3  O   UNL     1       2.603  -1.738  -5.539  0.00  0.00    -0.271 OA
ATOM      4  H   UNL     1       0.080  -0.003  -5.151  0.00  0.00    +0.177 HD
ENDROOT
BRANCH   2   5
ATOM      5  C   UNL     1       1.324  -0.842  -7.309  0.00  0.00    +0.240 C 
ATOM      6  C   UNL     1       0.262  -1.816  -7.787  0.00  0.00    +0.041 C 
ATOM      7  C   UNL     1       0.883  -2.522  -8.754  0.00  0.00    +0.092 C 
ATOM      8  N   UNL     1       2.163  -2.091  -8.906  0.00  0.00    -0.153 NA
ATOM      9  N   UNL     1       2.487  -1.167  -8.150  0.00  0.00    -0.170 NA
BRANCH   7  10
ATOM     10  C   UNL     1       0.258  -3.611  -9.540  0.00  0.00    +0.010 A 
ATOM     11  C   UNL     1      -1.015  -4.068  -9.231  0.00  0.00    +0.011 A 
ATOM     12  C   UNL     1      -1.627  -5.091  -9.953  0.00  0.00    +0.005 A 
ATOM     13  C   UNL     1      -0.983  -5.682 -10.999  0.00  0.00    -0.039 A 
ATOM     14  C   UNL     1       0.295  -5.237 -11.324  0.00  0.00    -0.011 A 
ATOM     15  C   UNL     1       0.944  -4.205 -10.625  0.00  0.00    -0.008 A 
ATOM     16  C   UNL     1       2.229  -3.834 -11.044  0.00  0.00    +0.009 A 
ATOM     17  C   UNL     1       2.788  -4.482 -12.108  0.00  0.00    +0.001 A 
ATOM     18  C   UNL     1       2.124  -5.502 -12.793  0.00  0.00    +0.004 A 
ATOM     19  C   UNL     1       0.879  -5.893 -12.404  0.00  0.00    -0.039 A 
ATOM     20  C   UNL     1      -0.110  -6.923 -12.895  0.00  0.00    +0.040 C 
ATOM     21  C   UNL     1      -1.337  -6.784 -11.969  0.00  0.00    +0.040 C 
ENDBRANCH   7  10
ENDBRANCH   2   5
BRANCH   1  23
ATOM     22  C   UNL     1       0.382  -0.232  -2.626  0.00  0.00    +0.137 C 
ATOM     23  N   UNL     1       1.144  -0.749  -3.547  0.00  0.00    -0.188 NA
BRANCH  22  26
ATOM     24  C   UNL     1      -0.099   1.604  -0.035  0.00  0.00    +0.035 C 
ATOM     25  C   UNL     1      -0.093   0.074  -0.031  0.00  0.00    +0.124 C 
ATOM     26  C   UNL     1       0.688  -0.454  -1.214  0.00  0.00    +0.012 C 
ATOM     27  C   UNL     1       1.714  -1.165  -0.724  0.00  0.00    +0.025 C 
ATOM     28  N   UNL     1       1.712  -1.174   0.647  0.00  0.00    -0.267 N 
ATOM     29  N   UNL     1       0.629  -0.434   1.147  0.00  0.00    -0.246 N 
ATOM     30  C   UNL     1       2.742  -1.866  -1.573  0.00  0.00    +0.062 C 
ATOM     31  H   UNL     1       2.368  -1.630   1.197  0.00  0.00    +0.170 HD
BRANCH  29  32
ATOM     32  C   UNL     1       0.301  -0.221   2.488  0.00  0.00    +0.048 A 
ATOM     33  C   UNL     1      -0.814   0.537   2.821  0.00  0.00    +0.025 A 
ATOM     34  C   UNL     1      -1.134   0.746   4.148  0.00  0.00    +0.002 A 
ATOM     35  C   UNL     1      -0.347   0.201   5.145  0.00  0.00    +0.000 A 
ATOM     36  C   UNL     1       0.765  -0.554   4.818  0.00  0.00    +0.002 A 
ATOM     37  C   UNL     1       1.087  -0.772   3.493  0.00  0.00    +0.025 A 
ENDBRANCH  29  32
ENDBRANCH  22  26
ENDBRANCH   1  23
TORSDOF 5
