REMARK  Name = ZINC38563287
REMARK  7 active torsions:
REMARK  status: ('A' for Active; 'I' for Inactive)
REMARK    1  A    between atoms: C_1  and  C_2
REMARK    2  A    between atoms: C_7  and  N_8
REMARK    3  A    between atoms: N_11  and  C_12
REMARK    4  A    between atoms: C_12  and  C_13
REMARK    5  A    between atoms: C_13  and  C_15
REMARK    6  A    between atoms: C_13  and  S_20
REMARK    7  A    between atoms: S_20  and  C_23
REMARK                            x       y       z     vdW  Elec       q    Type
REMARK                         _______ _______ _______ _____ _____    ______ ____
ROOT
ATOM      1  C   UNL     1      -0.348   0.223   7.170  0.00  0.00    +0.189 C 
ENDROOT
BRANCH   1   2
ATOM      2  C   UNL     1      -0.439  -0.537   8.468  0.00  0.00    +0.016 A 
ATOM      3  C   UNL     1       0.389  -0.497   9.540  0.00  0.00    +0.013 A 
ATOM      4  C   UNL     1       0.105  -1.290  10.636  0.00  0.00    +0.008 A 
ATOM      5  C   UNL     1      -0.993  -2.085  10.606  0.00  0.00    +0.045 A 
ATOM      6  S   UNL     1      -1.670  -1.718   8.995  0.00  0.00    -0.100 S 
ENDBRANCH   1   2
BRANCH   1   7
ATOM      7  S   UNL     1      -1.831   1.247   6.963  0.00  0.00    +0.006 S 
ATOM      8  O   UNL     1      -1.683   2.102   5.838  0.00  0.00    -0.169 OA
ATOM      9  O   UNL     1      -2.999   0.454   7.121  0.00  0.00    -0.169 OA
BRANCH   7  10
ATOM     10  C   UNL     1      -1.831   2.329   8.354  0.00  0.00    +0.089 A 
ATOM     11  C   UNL     1      -2.465   1.952   9.523  0.00  0.00    +0.028 A 
ATOM     12  C   UNL     1      -2.466   2.801  10.614  0.00  0.00    +0.022 A 
ATOM     13  C   UNL     1      -1.832   4.028  10.536  0.00  0.00    +0.041 A 
ATOM     14  C   UNL     1      -1.198   4.405   9.365  0.00  0.00    +0.022 A 
ATOM     15  C   UNL     1      -1.193   3.553   8.277  0.00  0.00    +0.028 A 
ATOM     16 CL   UNL     1      -1.833   5.095  11.905  0.00  0.00    -0.084 Cl
ENDBRANCH   7  10
ENDBRANCH   1   7
BRANCH   1  17
ATOM     17  C   UNL     1      -0.245  -0.765   6.006  0.00  0.00    +0.137 C 
BRANCH  17  21
ATOM     18  N   UNL     1       0.025  -0.015   2.417  0.00  0.00    -0.269 N 
ATOM     19  C   UNL     1      -0.056  -0.694   3.578  0.00  0.00    +0.304 C 
ATOM     20  O   UNL     1      -0.040  -1.910   3.573  0.00  0.00    -0.253 OA
ATOM     21  N   UNL     1      -0.156  -0.026   4.745  0.00  0.00    -0.297 N 
ATOM     22  H   UNL     1       0.078   0.954   2.425  0.00  0.00    +0.156 HD
ATOM     23  H   UNL     1      -0.169   0.944   4.748  0.00  0.00    +0.150 HD
BRANCH  18  30
ATOM     24  C   UNL     1      -1.266   1.182   0.182  0.00  0.00    +0.045 C 
ATOM     25  C   UNL     1      -0.585  -0.158   0.085  0.00  0.00    -0.029 A 
ATOM     26  C   UNL     1      -0.570  -0.841  -1.116  0.00  0.00    +0.005 A 
ATOM     27  C   UNL     1       0.055  -2.071  -1.206  0.00  0.00    +0.000 A 
ATOM     28  C   UNL     1       0.667  -2.622  -0.095  0.00  0.00    +0.002 A 
ATOM     29  C   UNL     1       0.655  -1.945   1.108  0.00  0.00    +0.023 A 
ATOM     30  C   UNL     1       0.034  -0.706   1.200  0.00  0.00    +0.038 A 
ENDBRANCH  18  30
ENDBRANCH  17  21
ENDBRANCH   1  17
TORSDOF 6
