REMARK  Name = ZINC39672750
REMARK  8 active torsions:
REMARK  status: ('A' for Active; 'I' for Inactive)
REMARK    1  A    between atoms: C_1  and  C_2
REMARK    2  A    between atoms: C_2  and  C_3
REMARK    3  A    between atoms: C_3  and  C_4
REMARK    4  A    between atoms: C_4  and  C_5
REMARK    5  A    between atoms: C_9  and  C_18
REMARK    6  A    between atoms: N_20  and  C_21
REMARK    7  A    between atoms: C_21  and  C_22
REMARK    8  A    between atoms: C_22  and  N_28
REMARK                            x       y       z     vdW  Elec       q    Type
REMARK                         _______ _______ _______ _____ _____    ______ ____
ROOT
ATOM      1  C   UNL     1      -2.968  -2.707  -0.409  0.00  0.00    +0.216 C 
ATOM      2  O   UNL     1      -3.932  -1.973  -0.446  0.00  0.00    -0.276 OA
ATOM      3  N   UNL     1      -3.140  -4.043  -0.348  0.00  0.00    -0.300 N 
ATOM      4  C   UNL     1      -2.095  -5.091  -0.290  0.00  0.00    +0.121 C 
ATOM      5  C   UNL     1      -2.647  -6.139   0.703  0.00  0.00    +0.100 C 
ATOM      6  C   UNL     1      -4.172  -5.939   0.675  0.00  0.00    -0.004 C 
ATOM      7  C   UNL     1      -4.418  -4.794  -0.317  0.00  0.00    +0.115 C 
ATOM      8  C   UNL     1      -4.679  -5.548   2.060  0.00  0.00    -0.010 C 
ATOM      9  C   UNL     1      -6.204  -5.412   2.019  0.00  0.00    -0.082 C 
ATOM     10  N   UNL     1      -6.800  -6.686   1.599  0.00  0.00    +0.379 N 
ATOM     11  C   UNL     1      -6.380  -7.008   0.231  0.00  0.00    -0.082 C 
ATOM     12  C   UNL     1      -4.863  -7.212   0.195  0.00  0.00    -0.010 C 
ATOM     13  H   UNL     1      -6.499  -7.419   2.224  0.00  0.00    -0.086 HD
ATOM     14  H   UNL     1      -7.806  -6.612   1.633  0.00  0.00    -0.086 HD
ENDROOT
BRANCH   5  15
ATOM     15  C   UNL     1      -2.289  -7.531   0.251  0.00  0.00    +0.218 C 
ATOM     16  O   UNL     1      -2.181  -7.775  -0.932  0.00  0.00    -0.275 OA
ATOM     17  N   UNL     1      -2.089  -8.505   1.161  0.00  0.00    -0.313 N 
ATOM     18  H   UNL     1      -2.175  -8.309   2.107  0.00  0.00    +0.149 HD
BRANCH  17  19
ATOM     19  C   UNL     1      -1.741  -9.858   0.721  0.00  0.00    +0.126 C 
BRANCH  19  20
ATOM     20  C   UNL     1      -1.691 -10.791   1.933  0.00  0.00    +0.038 C 
ATOM     21  C   UNL     1      -1.201 -12.172   1.493  0.00  0.00    +0.024 C 
ATOM     22  C   UNL     1      -2.159 -12.745   0.447  0.00  0.00    +0.002 C 
ATOM     23  C   UNL     1      -3.559 -12.869   1.052  0.00  0.00    +0.000 C 
ATOM     24  C   UNL     1      -4.050 -11.489   1.492  0.00  0.00    +0.002 C 
ATOM     25  C   UNL     1      -3.091 -10.916   2.538  0.00  0.00    +0.024 C 
BRANCH  20  26
ATOM     26  N   UNL     1      -0.771 -10.241   2.937  0.00  0.00    -0.291 NA
ATOM     27  C   UNL     1       0.574 -10.054   2.373  0.00  0.00    +0.113 C 
ATOM     28  C   UNL     1       1.483  -9.425   3.432  0.00  0.00    +0.175 C 
ATOM     29  O   UNL     1       1.495 -10.256   4.596  0.00  0.00    -0.377 OA
ATOM     30  C   UNL     1       0.202 -10.459   5.172  0.00  0.00    +0.175 C 
ATOM     31  C   UNL     1      -0.721 -11.098   4.130  0.00  0.00    +0.113 C 
ENDBRANCH  20  26
ENDBRANCH  19  20
ENDBRANCH  17  19
ENDBRANCH   5  15
BRANCH   1  32
ATOM     32  C   UNL     1      -1.577  -2.127  -0.432  0.00  0.00    +0.096 C 
BRANCH  32  33
ATOM     33  C   UNL     1      -1.662  -0.601  -0.503  0.00  0.00    +0.009 C 
BRANCH  33  35
ATOM     34  C   UNL     1      -0.335   1.514  -0.597  0.00  0.00    +0.004 C 
ATOM     35  C   UNL     1      -0.250  -0.012  -0.526  0.00  0.00    -0.003 C 
ENDBRANCH  33  35
ENDBRANCH  32  33
ENDBRANCH   1  32
TORSDOF 7
