REMARK  Name = ZINC58299072
REMARK  8 active torsions:
REMARK  status: ('A' for Active; 'I' for Inactive)
REMARK    1  A    between atoms: C_1  and  C_2
REMARK    2  A    between atoms: C_4  and  O_26
REMARK    3  A    between atoms: C_6  and  C_23
REMARK    4  A    between atoms: C_10  and  C_11
REMARK    5  A    between atoms: N_13  and  C_14
REMARK    6  A    between atoms: C_23  and  O_24
REMARK    7  A    between atoms: O_24  and  C_25
REMARK    8  A    between atoms: O_26  and  C_27
REMARK                            x       y       z     vdW  Elec       q    Type
REMARK                         _______ _______ _______ _____ _____    ______ ____
ROOT
ATOM      1  C   UNL     1      -0.018   1.503   0.010  0.00  0.00    +0.046 C 
ATOM      2  C   UNL     1       0.002  -0.004   0.002  0.00  0.00    -0.017 A 
ATOM      3  C   UNL     1       0.005  -0.700  -1.215  0.00  0.00    +0.073 A 
ATOM      4  C   UNL     1      -0.009  -0.190  -2.545  0.00  0.00    +0.226 A 
ATOM      5  N   UNL     1      -0.003  -1.036  -3.560  0.00  0.00    -0.195 NA
ATOM      6  C   UNL     1       0.016  -2.346  -3.387  0.00  0.00    +0.160 A 
ATOM      7  N   UNL     1       0.030  -2.881  -2.182  0.00  0.00    -0.222 NA
ATOM      8  C   UNL     1       0.026  -2.113  -1.112  0.00  0.00    +0.116 A 
ATOM      9  S   UNL     1       0.039  -2.395   0.640  0.00  0.00    -0.064 S 
ATOM     10  C   UNL     1       0.023  -0.692   1.176  0.00  0.00    +0.079 A 
ENDROOT
BRANCH  10  11
ATOM     11  C   UNL     1       0.029  -0.164   2.546  0.00  0.00    +0.251 C 
ATOM     12  O   UNL     1       0.014   1.037   2.735  0.00  0.00    -0.270 OA
ATOM     13  N   UNL     1       0.051  -1.011   3.594  0.00  0.00    -0.310 N 
ATOM     14  H   UNL     1       0.063  -1.969   3.444  0.00  0.00    +0.149 HD
BRANCH  13  15
ATOM     15  C   UNL     1       0.057  -0.485   4.962  0.00  0.00    +0.058 C 
ATOM     16  C   UNL     1       1.511  -0.277   5.457  0.00  0.00    +0.002 C 
ATOM     17  C   UNL     1       1.672  -1.262   6.646  0.00  0.00    -0.077 C 
ATOM     18  N   UNL     1       0.661  -2.296   6.374  0.00  0.00    +0.383 N 
ATOM     19  C   UNL     1      -0.526  -1.513   5.935  0.00  0.00    -0.048 C 
ATOM     20  C   UNL     1      -1.510  -2.486   5.303  0.00  0.00    -0.014 C 
ATOM     21  C   UNL     1      -1.959  -3.466   6.399  0.00  0.00    -0.003 C 
ATOM     22  C   UNL     1      -0.749  -4.145   7.040  0.00  0.00    -0.019 C 
ATOM     23  C   UNL     1       0.269  -3.101   7.523  0.00  0.00    -0.078 C 
ATOM     24  H   UNL     1       0.977  -2.895   5.626  0.00  0.00    -0.081 HD
ENDBRANCH  13  15
ENDBRANCH  10  11
BRANCH   4  25
ATOM     25  O   UNL     1      -0.029   1.145  -2.767  0.00  0.00    -0.479 OA
ATOM     26  C   UNL     1      -0.043   1.576  -4.129  0.00  0.00    +0.279 C 
ENDBRANCH   4  25
BRANCH   6  27
ATOM     27  C   UNL     1       0.021  -3.248  -4.595  0.00  0.00    +0.235 C 
BRANCH  27  28
ATOM     28  O   UNL     1       1.370  -3.514  -4.984  0.00  0.00    -0.375 OA
ATOM     29  C   UNL     1       1.488  -4.365  -6.126  0.00  0.00    +0.194 C 
ENDBRANCH  27  28
ENDBRANCH   6  27
TORSDOF 5
