REMARK  Name = ZINC64104151
REMARK  6 active torsions:
REMARK  status: ('A' for Active; 'I' for Inactive)
REMARK    1  A    between atoms: C_1  and  C_2
REMARK    2  A    between atoms: C_5  and  C_28
REMARK    3  A    between atoms: C_12  and  C_14
REMARK    4  A    between atoms: C_14  and  C_15
REMARK    5  A    between atoms: C_15  and  N_16
REMARK    6  A    between atoms: C_17  and  C_19
REMARK                            x       y       z     vdW  Elec       q    Type
REMARK                         _______ _______ _______ _____ _____    ______ ____
ROOT
ATOM      1  C   UNL     1       0.083  -1.135   7.296  0.00  0.00    +0.115 C 
ENDROOT
BRANCH   1  13
ATOM      2  C   UNL     1      -0.018   1.503   0.010  0.00  0.00    +0.046 C 
ATOM      3  C   UNL     1       0.002  -0.004   0.002  0.00  0.00    -0.024 A 
ATOM      4  C   UNL     1       0.005  -0.675  -1.193  0.00  0.00    +0.006 A 
ATOM      5  C   UNL     1       0.024  -2.061  -1.246  0.00  0.00    +0.005 A 
ATOM      6  C   UNL     1       0.040  -2.784  -0.067  0.00  0.00    -0.035 A 
ATOM      7  C   UNL     1       0.036  -2.121   1.134  0.00  0.00    +0.044 A 
ATOM      8  C   UNL     1       0.023  -0.710   1.227  0.00  0.00    +0.083 A 
ATOM      9  N   UNL     1       0.027  -0.206   2.480  0.00  0.00    -0.224 NA
ATOM     10  C   UNL     1       0.047  -0.969   3.547  0.00  0.00    +0.165 A 
ATOM     11  S   UNL     1       0.051  -2.611   2.842  0.00  0.00    -0.052 S 
ATOM     12  N   UNL     1       0.054  -0.597   4.882  0.00  0.00    -0.265 N 
ATOM     13  C   UNL     1       0.075  -1.540   5.845  0.00  0.00    +0.220 C 
ATOM     14  O   UNL     1       0.088  -2.714   5.543  0.00  0.00    -0.275 OA
ATOM     15  C   UNL     1       0.059  -4.290  -0.101  0.00  0.00    +0.045 C 
ATOM     16  H   UNL     1       0.044   0.343   5.123  0.00  0.00    +0.157 HD
ENDBRANCH   1  13
BRANCH   1  17
ATOM     17  C   UNL     1       0.107  -2.387   8.175  0.00  0.00    +0.113 C 
BRANCH  17  18
ATOM     18  N   UNL     1       0.115  -1.993   9.586  0.00  0.00    -0.311 N 
ATOM     19  C   UNL     1       0.136  -2.936  10.549  0.00  0.00    +0.242 C 
ATOM     20  O   UNL     1       0.149  -4.115  10.246  0.00  0.00    -0.270 OA
ATOM     21  H   UNL     1       0.105  -1.054   9.827  0.00  0.00    +0.149 HD
BRANCH  19  22
ATOM     22  C   UNL     1       0.144  -2.542  11.961  0.00  0.00    +0.042 C 
ATOM     23  C   UNL     1       0.170  -3.376  13.058  0.00  0.00    +0.008 A 
ATOM     24  C   UNL     1       0.196  -4.787  13.195  0.00  0.00    +0.010 A 
ATOM     25  C   UNL     1       0.218  -5.350  14.422  0.00  0.00    +0.001 A 
ATOM     26  C   UNL     1       0.217  -4.589  15.602  0.00  0.00    +0.002 A 
ATOM     27  C   UNL     1       0.193  -3.239  15.582  0.00  0.00    +0.026 A 
ATOM     28  C   UNL     1       0.169  -2.543  14.285  0.00  0.00    +0.043 A 
ATOM     29  N   UNL     1       0.143  -1.276  13.977  0.00  0.00    -0.380 N 
ATOM     30  C   UNL     1       0.131  -1.135  12.518  0.00  0.00    +0.154 C 
ATOM     31  H   UNL     1       0.137  -0.544  14.613  0.00  0.00    +0.160 HD
ENDBRANCH  19  22
ENDBRANCH  17  18
ENDBRANCH   1  17
TORSDOF 4
