REMARK  Name = ZINC66578014
REMARK  6 active torsions:
REMARK  status: ('A' for Active; 'I' for Inactive)
REMARK    1  A    between atoms: C_1  and  C_2
REMARK    2  A    between atoms: C_7  and  C_8
REMARK    3  A    between atoms: N_10  and  N_11
REMARK    4  A    between atoms: N_11  and  S_12
REMARK    5  A    between atoms: S_12  and  C_15
REMARK    6  A    between atoms: C_16  and  C_17
REMARK                            x       y       z     vdW  Elec       q    Type
REMARK                         _______ _______ _______ _____ _____    ______ ____
ROOT
ATOM      1  N   UNL     1       0.573   0.035   4.838  0.00  0.00    -0.108 NA
ATOM      2  H   UNL     1       1.219   0.753   4.932  0.00  0.00    +0.172 HD
ENDROOT
BRANCH   1   5
ATOM      3  C   UNL     1       0.242   0.021   2.481  0.00  0.00    +0.259 C 
ATOM      4  O   UNL     1       0.135   1.232   2.503  0.00  0.00    -0.269 OA
ATOM      5  N   UNL     1       0.465  -0.656   3.625  0.00  0.00    -0.228 N 
ATOM      6  H   UNL     1       0.551  -1.622   3.607  0.00  0.00    +0.171 HD
BRANCH   3  13
ATOM      7  C   UNL     1      -0.511   1.452   0.082  0.00  0.00    +0.044 C 
ATOM      8  C   UNL     1      -0.234  -0.028   0.036  0.00  0.00    -0.038 A 
ATOM      9  C   UNL     1      -0.334  -0.714  -1.157  0.00  0.00    +0.004 A 
ATOM     10  C   UNL     1      -0.080  -2.073  -1.200  0.00  0.00    +0.000 A 
ATOM     11  C   UNL     1       0.275  -2.754  -0.049  0.00  0.00    +0.001 A 
ATOM     12  C   UNL     1       0.378  -2.080   1.150  0.00  0.00    +0.013 A 
ATOM     13  C   UNL     1       0.128  -0.708   1.200  0.00  0.00    +0.041 A 
ENDBRANCH   3  13
ENDBRANCH   1   5
BRANCH   1  14
ATOM     14  S   UNL     1      -0.401  -0.373   6.114  0.00  0.00    +0.067 S 
ATOM     15  O   UNL     1       0.040   0.395   7.224  0.00  0.00    -0.152 OA
ATOM     16  O   UNL     1      -1.738  -0.323   5.636  0.00  0.00    -0.152 OA
BRANCH  14  17
ATOM     17  C   UNL     1      -0.069  -2.059   6.503  0.00  0.00    +0.155 C 
ATOM     18  C   UNL     1       0.471  -2.376   7.672  0.00  0.00    +0.028 C 
BRANCH  18  19
ATOM     19  C   UNL     1       0.750  -3.790   7.999  0.00  0.00    -0.024 A 
ATOM     20  C   UNL     1       0.450  -4.794   7.077  0.00  0.00    +0.009 A 
ATOM     21  C   UNL     1       0.712  -6.112   7.388  0.00  0.00    +0.016 A 
ATOM     22  C   UNL     1       1.272  -6.440   8.611  0.00  0.00    +0.018 A 
ATOM     23  C   UNL     1       1.572  -5.448   9.529  0.00  0.00    +0.016 A 
ATOM     24  C   UNL     1       1.319  -4.126   9.228  0.00  0.00    +0.009 A 
ATOM     25 BR   UNL     1       1.627  -8.249   9.030  0.00  0.00    -0.050 Br
ENDBRANCH  18  19
ENDBRANCH  14  17
ENDBRANCH   1  14
TORSDOF 5
