REMARK  Name = ZINC39915318
REMARK  8 active torsions:
REMARK  status: ('A' for Active; 'I' for Inactive)
REMARK    1  A    between atoms: C_1  and  C_2
REMARK    2  A    between atoms: C_2  and  C_32
REMARK    3  A    between atoms: C_3  and  C_28
REMARK    4  A    between atoms: C_5  and  C_7
REMARK    5  A    between atoms: N_9  and  C_10
REMARK    6  A    between atoms: C_11  and  C_18
REMARK    7  A    between atoms: N_20  and  C_21
REMARK    8  A    between atoms: C_21  and  C_22
REMARK                            x       y       z     vdW  Elec       q    Type
REMARK                         _______ _______ _______ _____ _____    ______ ____
ROOT
ATOM      1  C   UNL     1       2.512   0.390   4.266  0.00  0.00    +0.084 A 
ATOM      2  C   UNL     1       3.194  -0.012   5.399  0.00  0.00    +0.069 A 
ATOM      3  C   UNL     1       3.698   1.036   6.285  0.00  0.00    -0.023 A 
ATOM      4  C   UNL     1       3.423   2.285   5.869  0.00  0.00    -0.004 A 
ATOM      5  S   UNL     1       2.534   2.065   4.349  0.00  0.00    -0.077 S 
ATOM      6  C   UNL     1       3.960   3.323   6.818  0.00  0.00    +0.043 C 
ATOM      7  C   UNL     1       4.247   2.548   8.123  0.00  0.00    +0.010 C 
ATOM      8  C   UNL     1       4.480   1.118   7.595  0.00  0.00    +0.037 C 
ENDROOT
BRANCH   1  11
ATOM      9  C   UNL     1       1.317   0.160   2.235  0.00  0.00    +0.222 C 
ATOM     10  O   UNL     1       1.247   1.367   2.150  0.00  0.00    -0.275 OA
ATOM     11  N   UNL     1       1.946  -0.407   3.284  0.00  0.00    -0.279 N 
ATOM     12  H   UNL     1       2.002  -1.373   3.351  0.00  0.00    +0.155 HD
BRANCH   9  16
ATOM     13  C   UNL     1      -0.019   1.526   0.010  0.00  0.00    +0.012 C 
ATOM     14  C   UNL     1       0.002  -0.004   0.002  0.00  0.00    -0.016 C 
ATOM     15  C   UNL     1      -0.825  -0.728   1.066  0.00  0.00    +0.033 C 
ATOM     16  C   UNL     1       0.701  -0.708   1.167  0.00  0.00    +0.089 C 
ATOM     17  C   UNL     1       0.102  -0.655  -1.379  0.00  0.00    +0.012 C 
BRANCH  15  18
ATOM     18  C   UNL     1      -1.480  -2.027   0.674  0.00  0.00    +0.010 C 
ATOM     19  C   UNL     1      -2.786  -2.149   0.737  0.00  0.00    +0.103 C 
ATOM     20 CL   UNL     1      -3.758  -0.814   1.272  0.00  0.00    -0.071 Cl
ATOM     21 CL   UNL     1      -3.541  -3.646   0.285  0.00  0.00    -0.071 Cl
ENDBRANCH  15  18
ENDBRANCH   9  16
ENDBRANCH   1  11
BRANCH   2  22
ATOM     22  C   UNL     1       3.402  -1.432   5.701  0.00  0.00    +0.247 C 
ATOM     23  O   UNL     1       4.395  -2.002   5.288  0.00  0.00    -0.270 OA
ATOM     24  N   UNL     1       2.495  -2.105   6.435  0.00  0.00    -0.307 N 
ATOM     25  H   UNL     1       1.704  -1.650   6.765  0.00  0.00    +0.149 HD
BRANCH  24  26
ATOM     26  C   UNL     1       2.703  -3.523   6.737  0.00  0.00    +0.141 C 
BRANCH  26  27
ATOM     27  C   UNL     1       1.554  -4.035   7.565  0.00  0.00    -0.012 A 
ATOM     28  C   UNL     1       1.602  -3.970   8.950  0.00  0.00    +0.008 A 
ATOM     29  C   UNL     1       0.521  -4.453   9.671  0.00  0.00    +0.020 A 
ATOM     30  C   UNL     1      -0.561  -4.980   8.992  0.00  0.00    +0.111 A 
ATOM     31  N   UNL     1      -0.573  -5.026   7.674  0.00  0.00    -0.263 NA
ATOM     32  C   UNL     1       0.435  -4.570   6.955  0.00  0.00    +0.115 A 
ENDBRANCH  26  27
ENDBRANCH  24  26
ENDBRANCH   2  22
TORSDOF 6
