REMARK  Name = ZINC36063486
REMARK  16 active torsions:
REMARK  status: ('A' for Active; 'I' for Inactive)
REMARK    1  A    between atoms: C_1  and  C_2
REMARK    2  A    between atoms: C_3  and  C_30
REMARK    3  A    between atoms: C_4  and  C_21
REMARK    4  A    between atoms: C_7  and  C_12
REMARK    5  A    between atoms: C_13  and  N_15
REMARK    6  A    between atoms: N_15  and  C_16
REMARK    7  A    between atoms: C_16  and  C_17
REMARK    8  A    between atoms: C_17  and  N_18
REMARK    9  A    between atoms: N_18  and  C_19
REMARK   10  A    between atoms: N_18  and  C_20
REMARK   11  A    between atoms: C_24  and  C_27
REMARK   12  A    between atoms: C_27  and  C_28
REMARK   13  A    between atoms: C_27  and  C_29
REMARK   14  A    between atoms: C_30  and  O_32
REMARK   15  A    between atoms: O_32  and  C_33
REMARK   16  A    between atoms: C_33  and  C_34
REMARK                            x       y       z     vdW  Elec       q    Type
REMARK                         _______ _______ _______ _____ _____    ______ ____
ROOT
ATOM      1  C   UNL     1       0.004   1.542   0.242  0.00  0.00    +0.066 C 
ATOM      2  C   UNL     1      -0.001   0.037   0.174  0.00  0.00    +0.053 C 
ATOM      3  C   UNL     1      -1.203  -0.645   0.155  0.00  0.00    +0.082 C 
ATOM      4  C   UNL     1      -1.156  -2.155   0.086  0.00  0.00    +0.150 C 
ATOM      5  N   UNL     1       0.188  -2.789   0.044  0.00  0.00    -0.267 N 
ATOM      6  C   UNL     1       0.468  -4.139  -0.020  0.00  0.00    +0.048 C 
ATOM      7  C   UNL     1       1.768  -4.509  -0.050  0.00  0.00    +0.072 C 
ATOM      8  S   UNL     1       2.601  -2.936   0.013  0.00  0.00    -0.060 S 
ATOM      9  C   UNL     1       1.255  -1.935   0.072  0.00  0.00    +0.166 C 
ATOM     10  N   UNL     1       1.145  -0.623   0.128  0.00  0.00    -0.230 NA
ENDROOT
BRANCH   4  11
ATOM     11  C   UNL     1      -1.911  -2.587  -1.145  0.00  0.00    -0.022 A 
ATOM     12  C   UNL     1      -1.349  -2.412  -2.397  0.00  0.00    +0.006 A 
ATOM     13  C   UNL     1      -2.041  -2.808  -3.526  0.00  0.00    +0.004 A 
ATOM     14  C   UNL     1      -3.294  -3.379  -3.404  0.00  0.00    -0.045 A 
ATOM     15  C   UNL     1      -3.855  -3.555  -2.153  0.00  0.00    +0.004 A 
ATOM     16  C   UNL     1      -3.161  -3.163  -1.023  0.00  0.00    +0.006 A 
BRANCH  14  17
ATOM     17  C   UNL     1      -4.049  -3.810  -4.635  0.00  0.00    +0.013 C 
ATOM     18  C   UNL     1      -4.327  -5.313  -4.563  0.00  0.00    +0.012 C 
ATOM     19  C   UNL     1      -5.374  -3.049  -4.713  0.00  0.00    +0.012 C 
ENDBRANCH  14  17
ENDBRANCH   4  11
BRANCH   6  20
ATOM     20  C   UNL     1      -0.609  -5.139  -0.055  0.00  0.00    +0.091 C 
ATOM     21  C   UNL     1      -0.313  -6.451   0.029  0.00  0.00    +0.239 C 
ATOM     22  O   UNL     1       0.960  -6.844   0.279  0.00  0.00    -0.271 OA
BRANCH  21  23
ATOM     23  N   UNL     1      -1.309  -7.397  -0.140  0.00  0.00    -0.314 N 
ATOM     24  H   UNL     1      -2.232  -7.117  -0.245  0.00  0.00    +0.149 HD
BRANCH  23  25
ATOM     25  C   UNL     1      -0.970  -8.822  -0.160  0.00  0.00    +0.086 C 
BRANCH  25  26
ATOM     26  C   UNL     1      -2.222  -9.640  -0.483  0.00  0.00    -0.061 C 
BRANCH  26  27
ATOM     27  N   UNL     1      -1.882 -11.069  -0.503  0.00  0.00    +0.377 N 
ATOM     28  C   UNL     1      -3.104 -11.861  -0.694  0.00  0.00    -0.097 C 
ATOM     29  C   UNL     1      -0.949 -11.335  -1.606  0.00  0.00    -0.097 C 
ATOM     30  H   UNL     1      -1.449 -11.324   0.372  0.00  0.00    -0.083 HD
ENDBRANCH  26  27
ENDBRANCH  25  26
ENDBRANCH  23  25
ENDBRANCH  21  23
ENDBRANCH   6  20
BRANCH   3  31
ATOM     31  C   UNL     1      -2.424   0.040   0.198  0.00  0.00    +0.339 C 
ATOM     32  O   UNL     1      -2.438   1.257   0.254  0.00  0.00    -0.245 OA
BRANCH  31  33
ATOM     33  O   UNL     1      -3.586  -0.649   0.178  0.00  0.00    -0.457 OA
BRANCH  33  34
ATOM     34  C   UNL     1      -4.793   0.114   0.225  0.00  0.00    +0.268 C 
BRANCH  34  35
ATOM     35  C   UNL     1      -5.978  -0.818   0.194  0.00  0.00    -0.010 A 
ATOM     36  C   UNL     1      -6.529  -1.194  -1.016  0.00  0.00    +0.007 A 
ATOM     37  C   UNL     1      -7.615  -2.049  -1.044  0.00  0.00    +0.000 A 
ATOM     38  C   UNL     1      -8.150  -2.526   0.138  0.00  0.00    +0.000 A 
ATOM     39  C   UNL     1      -7.598  -2.150   1.348  0.00  0.00    +0.000 A 
ATOM     40  C   UNL     1      -6.509  -1.299   1.376  0.00  0.00    +0.007 A 
ENDBRANCH  34  35
ENDBRANCH  33  34
ENDBRANCH  31  33
ENDBRANCH   3  31
TORSDOF 11
