REMARK  Name = ZINC39631312
REMARK  11 active torsions:
REMARK  status: ('A' for Active; 'I' for Inactive)
REMARK    1  A    between atoms: C_1  and  C_2
REMARK    2  A    between atoms: C_2  and  C_4
REMARK    3  A    between atoms: C_2  and  N_11
REMARK    4  A    between atoms: C_4  and  C_5
REMARK    5  A    between atoms: C_5  and  C_6
REMARK    6  A    between atoms: C_6  and  C_7
REMARK    7  A    between atoms: C_7  and  C_8
REMARK    8  A    between atoms: C_7  and  C_9
REMARK    9  A    between atoms: C_7  and  O_10
REMARK   10  A    between atoms: C_12  and  C_14
REMARK   11  A    between atoms: C_25  and  C_27
REMARK                            x       y       z     vdW  Elec       q    Type
REMARK                         _______ _______ _______ _____ _____    ______ ____
ROOT
ATOM      1  C   UNL     1      -4.019  -1.415  -0.887  0.00  0.00    +0.100 C 
ATOM      2  C   UNL     1      -4.666  -0.291  -0.048  0.00  0.00    +0.121 C 
ATOM      3  N   UNL     1      -5.221   0.652  -1.048  0.00  0.00    -0.296 N 
ATOM      4  C   UNL     1      -5.772  -0.222  -2.112  0.00  0.00    +0.115 C 
ATOM      5  C   UNL     1      -4.750  -1.369  -2.240  0.00  0.00    -0.004 C 
ATOM      6  C   UNL     1      -3.762  -1.070  -3.364  0.00  0.00    -0.010 C 
ATOM      7  C   UNL     1      -4.502  -1.086  -4.705  0.00  0.00    -0.082 C 
ATOM      8  N   UNL     1      -5.123  -2.400  -4.907  0.00  0.00    +0.379 N 
ATOM      9  C   UNL     1      -6.138  -2.640  -3.874  0.00  0.00    -0.082 C 
ATOM     10  C   UNL     1      -5.467  -2.690  -2.499  0.00  0.00    -0.010 C 
ATOM     11  C   UNL     1      -5.224   1.998  -1.002  0.00  0.00    +0.247 C 
ATOM     12  O   UNL     1      -4.620   2.577  -0.120  0.00  0.00    -0.270 OA
ATOM     13  H   UNL     1      -5.558  -2.428  -5.817  0.00  0.00    -0.086 HD
ATOM     14  H   UNL     1      -4.415  -3.117  -4.854  0.00  0.00    -0.086 HD
ENDROOT
BRANCH  11  15
ATOM     15  C   UNL     1      -5.961   2.772  -2.023  0.00  0.00    +0.037 A 
ATOM     16  C   UNL     1      -7.001   2.160  -2.745  0.00  0.00    +0.013 A 
ATOM     17  C   UNL     1      -7.693   2.849  -3.688  0.00  0.00    +0.009 A 
ATOM     18  C   UNL     1      -7.372   4.193  -3.954  0.00  0.00    -0.018 A 
ATOM     19  C   UNL     1      -8.074   4.927  -4.925  0.00  0.00    +0.008 A 
ATOM     20  C   UNL     1      -7.741   6.226  -5.161  0.00  0.00    +0.001 A 
ATOM     21  C   UNL     1      -6.712   6.843  -4.453  0.00  0.00    +0.001 A 
ATOM     22  C   UNL     1      -6.009   6.165  -3.505  0.00  0.00    +0.008 A 
ATOM     23  C   UNL     1      -6.325   4.821  -3.233  0.00  0.00    -0.017 A 
ATOM     24  C   UNL     1      -5.625   4.095  -2.258  0.00  0.00    +0.021 A 
ENDBRANCH  11  15
BRANCH   1  26
ATOM     25  N   UNL     1      -1.698  -2.173  -1.284  0.00  0.00    -0.312 N 
ATOM     26  C   UNL     1      -2.548  -1.147  -1.076  0.00  0.00    +0.218 C 
ATOM     27  O   UNL     1      -2.129  -0.010  -1.041  0.00  0.00    -0.275 OA
ATOM     28  H   UNL     1      -2.033  -3.083  -1.312  0.00  0.00    +0.149 HD
BRANCH  25  30
ATOM     29  C   UNL     1       0.413  -1.818  -0.101  0.00  0.00    +0.028 C 
ATOM     30  C   UNL     1      -0.268  -1.913  -1.468  0.00  0.00    +0.070 C 
BRANCH  30  31
ATOM     31  C   UNL     1       0.359  -3.054  -2.272  0.00  0.00    +0.022 C 
BRANCH  31  32
ATOM     32  C   UNL     1      -0.234  -3.070  -3.682  0.00  0.00    +0.005 C 
BRANCH  32  33
ATOM     33  C   UNL     1       0.393  -4.212  -4.486  0.00  0.00    +0.034 C 
BRANCH  33  34
ATOM     34  C   UNL     1      -0.200  -4.228  -5.896  0.00  0.00    +0.061 C 
ATOM     35  C   UNL     1       0.332  -5.442  -6.659  0.00  0.00    +0.041 C 
ATOM     36  C   UNL     1      -1.726  -4.310  -5.807  0.00  0.00    +0.041 C 
BRANCH  34  37
ATOM     37  O   UNL     1       0.173  -3.032  -6.583  0.00  0.00    -0.389 OA
ATOM     38  H   UNL     1       1.128  -2.914  -6.677  0.00  0.00    +0.210 HD
ENDBRANCH  34  37
ENDBRANCH  33  34
ENDBRANCH  32  33
ENDBRANCH  31  32
ENDBRANCH  30  31
ENDBRANCH  25  30
ENDBRANCH   1  26
TORSDOF 8
