REMARK  Name = ZINC14027830
REMARK  7 active torsions:
REMARK  status: ('A' for Active; 'I' for Inactive)
REMARK    1  A    between atoms: C_4  and  C_7
REMARK    2  A    between atoms: C_7  and  O_8
REMARK    3  A    between atoms: O_8  and  C_9
REMARK    4  A    between atoms: C_12  and  C_15
REMARK    5  A    between atoms: N_17  and  N_18
REMARK    6  A    between atoms: C_19  and  C_21
REMARK    7  A    between atoms: C_26  and  C_27
REMARK                            x       y       z     vdW  Elec       q    Type
REMARK                         _______ _______ _______ _____ _____    ______ ____
ROOT
ATOM      1  C   UNL     1       1.170   3.562   0.043  0.00  0.00    +0.260 C 
ATOM      2  O   UNL     1       0.112   4.158   0.072  0.00  0.00    -0.269 OA
ATOM      3  N   UNL     1       2.330   4.248   0.017  0.00  0.00    -0.230 N 
ATOM      4  H   UNL     1       3.175   3.772  -0.006  0.00  0.00    +0.173 HD
ENDROOT
BRANCH   1   8
ATOM      5  C   UNL     1       1.215  -0.685   0.018  0.00  0.00    +0.121 A 
ATOM      6  C   UNL     1       0.004  -0.004   0.052  0.00  0.00    +0.046 A 
ATOM      7  C   UNL     1      -0.015   1.372   0.060  0.00  0.00    +0.016 A 
ATOM      8  C   UNL     1       1.186   2.086   0.034  0.00  0.00    +0.038 A 
ATOM      9  C   UNL     1       2.402   1.398   0.000  0.00  0.00    +0.016 A 
ATOM     10  C   UNL     1       2.412   0.021  -0.008  0.00  0.00    +0.046 A 
BRANCH   5  11
ATOM     11  O   UNL     1       1.229  -2.042   0.010  0.00  0.00    -0.487 OA
BRANCH  11  12
ATOM     12  C   UNL     1       2.509  -2.677  -0.026  0.00  0.00    +0.264 C 
BRANCH  12  16
ATOM     13  C   UNL     1       1.994  -6.918  -0.036  0.00  0.00    +0.000 A 
ATOM     14  C   UNL     1       2.048  -6.225  -1.231  0.00  0.00    +0.000 A 
ATOM     15  C   UNL     1       2.214  -4.852  -1.228  0.00  0.00    +0.007 A 
ATOM     16  C   UNL     1       2.327  -4.173  -0.029  0.00  0.00    -0.010 A 
ATOM     17  C   UNL     1       2.280  -4.866   1.165  0.00  0.00    +0.007 A 
ATOM     18  C   UNL     1       2.108  -6.238   1.162  0.00  0.00    +0.000 A 
ENDBRANCH  12  16
ENDBRANCH  11  12
ENDBRANCH   5  11
ENDBRANCH   1   8
BRANCH   3  19
ATOM     19  N   UNL     1       2.315   5.649   0.025  0.00  0.00    -0.230 N 
ATOM     20  C   UNL     1       3.475   6.335   0.000  0.00  0.00    +0.261 C 
ATOM     21  O   UNL     1       4.534   5.739  -0.030  0.00  0.00    -0.269 OA
ATOM     22  H   UNL     1       1.470   6.125   0.049  0.00  0.00    +0.173 HD
BRANCH  20  23
ATOM     23  C   UNL     1       3.459   7.815   0.009  0.00  0.00    +0.052 A 
ATOM     24  C   UNL     1       2.253   8.503  -0.087  0.00  0.00    +0.014 A 
ATOM     25  C   UNL     1       2.243   9.885  -0.073  0.00  0.00    +0.001 A 
ATOM     26  C   UNL     1       3.428  10.593   0.025  0.00  0.00    +0.001 A 
ATOM     27  C   UNL     1       4.635   9.927   0.115  0.00  0.00    +0.016 A 
ATOM     28  C   UNL     1       4.665   8.535   0.108  0.00  0.00    +0.075 A 
BRANCH  28  29
ATOM     29  C   UNL     1       5.954   7.817   0.204  0.00  0.00    +0.387 C 
ATOM     30  O   UNL     1       6.125   6.990   1.076  0.00  0.00    -0.241 OA
ATOM     31  O   UNL     1       6.938   8.081  -0.677  0.00  0.00    -0.241 OA
ENDBRANCH  28  29
ENDBRANCH  20  23
ENDBRANCH   3  19
TORSDOF 7
