REMARK  Name = ZINC66557561
REMARK  5 active torsions:
REMARK  status: ('A' for Active; 'I' for Inactive)
REMARK    1  A    between atoms: C_1  and  C_2
REMARK    2  A    between atoms: C_6  and  C_7
REMARK    3  A    between atoms: N_9  and  N_10
REMARK    4  A    between atoms: C_11  and  C_13
REMARK    5  A    between atoms: C_13  and  C_14
REMARK                            x       y       z     vdW  Elec       q    Type
REMARK                         _______ _______ _______ _____ _____    ______ ____
ROOT
ATOM      1  N   UNL     1       0.059  -0.732   4.900  0.00  0.00    -0.234 N 
ATOM      2  C   UNL     1       0.081  -1.625   5.909  0.00  0.00    +0.233 C 
ATOM      3  O   UNL     1       0.094  -2.813   5.667  0.00  0.00    -0.274 OA
ATOM      4  H   UNL     1       0.048   0.219   5.094  0.00  0.00    +0.173 HD
ENDROOT
BRANCH   1   7
ATOM      5  C   UNL     1       0.031  -0.283   2.562  0.00  0.00    +0.267 C 
ATOM      6  O   UNL     1       0.017   0.910   2.805  0.00  0.00    -0.268 OA
ATOM      7  N   UNL     1       0.052  -1.176   3.571  0.00  0.00    -0.230 N 
ATOM      8  H   UNL     1       0.063  -2.126   3.378  0.00  0.00    +0.173 HD
BRANCH   5  14
ATOM      9  C   UNL     1      -0.018   1.503   0.010  0.00  0.00    +0.045 C 
ATOM     10  C   UNL     1       0.002  -0.004   0.002  0.00  0.00    -0.031 A 
ATOM     11  C   UNL     1       0.007  -0.729  -1.166  0.00  0.00    +0.011 A 
ATOM     12  C   UNL     1       0.025  -2.083  -1.101  0.00  0.00    +0.046 A 
ATOM     13  S   UNL     1       0.037  -2.416   0.545  0.00  0.00    -0.092 S 
ATOM     14  C   UNL     1       0.023  -0.748   1.172  0.00  0.00    +0.078 A 
ENDBRANCH   5  14
ENDBRANCH   1   7
BRANCH   2  15
ATOM     15  C   UNL     1       0.088  -1.147   7.338  0.00  0.00    +0.132 C 
BRANCH  15  16
ATOM     16  C   UNL     1       0.113  -2.335   8.265  0.00  0.00    -0.034 A 
ATOM     17  C   UNL     1      -1.073  -2.898   8.697  0.00  0.00    +0.053 A 
ATOM     18  C   UNL     1      -1.054  -3.992   9.549  0.00  0.00    +0.164 A 
ATOM     19  C   UNL     1       0.161  -4.522   9.967  0.00  0.00    +0.180 A 
ATOM     20  C   UNL     1       1.348  -3.951   9.532  0.00  0.00    +0.086 A 
ATOM     21  C   UNL     1       1.322  -2.863   8.678  0.00  0.00    +0.028 A 
ATOM     22 CL   UNL     1       2.869  -4.606  10.055  0.00  0.00    -0.080 Cl
ATOM     23  O   UNL     1       0.202  -5.600  10.797  0.00  0.00    -0.483 OA
ATOM     24  C   UNL     1      -1.001  -5.912  11.507  0.00  0.00    +0.270 C 
ATOM     25  C   UNL     1      -2.172  -5.854  10.516  0.00  0.00    +0.270 C 
ATOM     26  O   UNL     1      -2.231  -4.533   9.968  0.00  0.00    -0.485 OA
ENDBRANCH  15  16
ENDBRANCH   2  15
TORSDOF 4
