REMARK  Name = ZINC14033951
REMARK  9 active torsions:
REMARK  status: ('A' for Active; 'I' for Inactive)
REMARK    1  A    between atoms: C_1  and  C_2
REMARK    2  A    between atoms: C_2  and  C_4
REMARK    3  A    between atoms: C_2  and  O_19
REMARK    4  A    between atoms: N_6  and  N_7
REMARK    5  A    between atoms: C_8  and  C_10
REMARK    6  A    between atoms: C_10  and  O_11
REMARK    7  A    between atoms: O_11  and  C_12
REMARK    8  A    between atoms: O_19  and  C_20
REMARK    9  A    between atoms: C_25  and  N_26
REMARK                            x       y       z     vdW  Elec       q    Type
REMARK                         _______ _______ _______ _____ _____    ______ ____
ROOT
ATOM      1  C   UNL     1       1.171   3.435  -0.234  0.00  0.00    +0.270 C 
ATOM      2  O   UNL     1       0.136   4.049  -0.389  0.00  0.00    -0.270 OA
ATOM      3  N   UNL     1       1.168   2.088  -0.280  0.00  0.00    -0.231 N 
ATOM      4  H   UNL     1       1.995   1.597  -0.156  0.00  0.00    +0.173 HD
ENDROOT
BRANCH   3   5
ATOM      5  N   UNL     1      -0.030   1.397  -0.506  0.00  0.00    -0.231 N 
ATOM      6  C   UNL     1      -0.033   0.050  -0.551  0.00  0.00    +0.267 C 
ATOM      7  O   UNL     1       1.002  -0.564  -0.397  0.00  0.00    -0.271 OA
ATOM      8  H   UNL     1      -0.857   1.888  -0.633  0.00  0.00    +0.173 HD
BRANCH   6   9
ATOM      9  C   UNL     1      -1.321  -0.693  -0.794  0.00  0.00    +0.326 C 
BRANCH   9  10
ATOM     10  O   UNL     1      -1.067  -2.099  -0.798  0.00  0.00    -0.483 OA
BRANCH  10  11
ATOM     11  C   UNL     1      -2.131  -2.918  -1.006  0.00  0.00    +0.121 A 
ATOM     12  C   UNL     1      -3.395  -2.380  -1.196  0.00  0.00    +0.047 A 
ATOM     13  C   UNL     1      -4.475  -3.214  -1.413  0.00  0.00    +0.019 A 
ATOM     14  C   UNL     1      -4.298  -4.586  -1.429  0.00  0.00    +0.018 A 
ATOM     15  C   UNL     1      -3.039  -5.125  -1.233  0.00  0.00    +0.019 A 
ATOM     16  C   UNL     1      -1.956  -4.294  -1.022  0.00  0.00    +0.047 A 
ATOM     17 BR   UNL     1      -5.779  -5.726  -1.719  0.00  0.00    -0.050 Br
ENDBRANCH  10  11
ENDBRANCH   9  10
ENDBRANCH   6   9
ENDBRANCH   3   5
BRANCH   1  19
ATOM     18  C   UNL     1       3.413   3.942  -1.164  0.00  0.00    +0.062 C 
ATOM     19  C   UNL     1       2.459   4.178   0.009  0.00  0.00    +0.257 C 
BRANCH  19  20
ATOM     20  O   UNL     1       2.188   5.575   0.129  0.00  0.00    -0.478 OA
BRANCH  20  21
ATOM     21  C   UNL     1       3.077   6.318   0.838  0.00  0.00    +0.152 A 
ATOM     22  C   UNL     1       4.245   5.738   1.311  0.00  0.00    +0.048 A 
ATOM     23  C   UNL     1       5.149   6.495   2.031  0.00  0.00    +0.004 A 
ATOM     24  C   UNL     1       4.890   7.831   2.280  0.00  0.00    +0.002 A 
ATOM     25  C   UNL     1       3.727   8.411   1.810  0.00  0.00    +0.036 A 
ATOM     26  C   UNL     1       2.822   7.659   1.085  0.00  0.00    +0.168 A 
BRANCH  26  27
ATOM     27  N   UNL     1       1.580   8.283   0.577  0.00  0.00    +0.060 N 
ATOM     28  O   UNL     1       1.356   9.460   0.794  0.00  0.00    -0.126 OA
ATOM     29  O   UNL     1       0.781   7.618  -0.059  0.00  0.00    -0.126 OA
ENDBRANCH  26  27
ENDBRANCH  20  21
ENDBRANCH  19  20
ENDBRANCH   1  19
TORSDOF 8
