REMARK  Name = ZINC39626973
REMARK  11 active torsions:
REMARK  status: ('A' for Active; 'I' for Inactive)
REMARK    1  A    between atoms: C_1  and  C_2
REMARK    2  A    between atoms: C_2  and  N_3
REMARK    3  A    between atoms: N_3  and  C_4
REMARK    4  A    between atoms: N_3  and  C_6
REMARK    5  A    between atoms: C_4  and  C_5
REMARK    6  A    between atoms: C_6  and  C_7
REMARK    7  A    between atoms: C_7  and  N_8
REMARK    8  A    between atoms: C_9  and  C_11
REMARK    9  A    between atoms: C_22  and  C_24
REMARK   10  A    between atoms: C_29  and  S_30
REMARK   11  A    between atoms: S_30  and  C_31
REMARK                            x       y       z     vdW  Elec       q    Type
REMARK                         _______ _______ _______ _____ _____    ______ ____
ROOT
ATOM      1  C   UNL     1       2.252  -6.741   3.495  0.00  0.00    +0.100 C 
ATOM      2  C   UNL     1       3.158  -7.211   2.335  0.00  0.00    +0.121 C 
ATOM      3  N   UNL     1       4.493  -7.392   2.952  0.00  0.00    -0.296 N 
ATOM      4  C   UNL     1       4.208  -7.988   4.280  0.00  0.00    +0.115 C 
ATOM      5  C   UNL     1       2.943  -7.255   4.769  0.00  0.00    -0.004 C 
ATOM      6  C   UNL     1       3.327  -6.086   5.671  0.00  0.00    -0.010 C 
ATOM      7  C   UNL     1       3.961  -6.626   6.956  0.00  0.00    -0.082 C 
ATOM      8  N   UNL     1       3.007  -7.506   7.642  0.00  0.00    +0.379 N 
ATOM      9  C   UNL     1       2.714  -8.676   6.806  0.00  0.00    -0.082 C 
ATOM     10  C   UNL     1       2.027  -8.223   5.514  0.00  0.00    -0.010 C 
ATOM     11  C   UNL     1       5.695  -7.085   2.426  0.00  0.00    +0.249 C 
ATOM     12  O   UNL     1       5.761  -6.512   1.355  0.00  0.00    -0.270 OA
ATOM     13  H   UNL     1       3.403  -7.812   8.518  0.00  0.00    -0.086 HD
ATOM     14  H   UNL     1       2.153  -6.999   7.821  0.00  0.00    -0.086 HD
ENDROOT
BRANCH  11  15
ATOM     15  C   UNL     1       6.929  -7.442   3.148  0.00  0.00    +0.069 A 
ATOM     16  C   UNL     1       7.002  -8.625   3.893  0.00  0.00    +0.017 A 
ATOM     17  C   UNL     1       8.184  -8.915   4.552  0.00  0.00    +0.020 A 
ATOM     18  C   UNL     1       9.250  -8.037   4.459  0.00  0.00    +0.112 A 
ATOM     19  N   UNL     1       9.162  -6.927   3.753  0.00  0.00    -0.248 NA
ATOM     20  C   UNL     1       8.056  -6.603   3.097  0.00  0.00    +0.114 A 
BRANCH  20  21
ATOM     21  S   UNL     1       7.997  -5.111   2.163  0.00  0.00    -0.069 S 
BRANCH  21  22
ATOM     22  C   UNL     1       9.639  -4.479   2.263  0.00  0.00    +0.014 A 
ATOM     23  C   UNL     1      10.553  -4.751   1.252  0.00  0.00    +0.015 A 
ATOM     24  C   UNL     1      11.838  -4.255   1.334  0.00  0.00    +0.001 A 
ATOM     25  C   UNL     1      12.218  -3.488   2.421  0.00  0.00    +0.000 A 
ATOM     26  C   UNL     1      11.311  -3.216   3.429  0.00  0.00    +0.001 A 
ATOM     27  C   UNL     1      10.022  -3.704   3.351  0.00  0.00    +0.015 A 
ENDBRANCH  21  22
ENDBRANCH  20  21
ENDBRANCH  11  15
BRANCH   1  29
ATOM     28  N   UNL     1       1.137  -4.630   4.141  0.00  0.00    -0.317 N 
ATOM     29  C   UNL     1       2.165  -5.237   3.517  0.00  0.00    +0.218 C 
ATOM     30  O   UNL     1       3.021  -4.572   2.972  0.00  0.00    -0.275 OA
ATOM     31  H   UNL     1       0.452  -5.161   4.576  0.00  0.00    +0.149 HD
BRANCH  28  32
ATOM     32  C   UNL     1       1.052  -3.167   4.161  0.00  0.00    +0.085 C 
BRANCH  32  33
ATOM     33  C   UNL     1      -0.201  -2.739   4.928  0.00  0.00    -0.060 C 
BRANCH  33  34
ATOM     34  N   UNL     1      -0.221  -1.276   5.056  0.00  0.00    +0.380 N 
ATOM     35  H   UNL     1       0.633  -0.965   5.495  0.00  0.00    -0.082 HD
BRANCH  34  37
ATOM     36  C   UNL     1      -0.231   0.852   3.845  0.00  0.00    -0.017 C 
ATOM     37  C   UNL     1      -0.336  -0.669   3.723  0.00  0.00    -0.082 C 
ENDBRANCH  34  37
BRANCH  34  38
ATOM     38  C   UNL     1      -1.369  -0.872   5.878  0.00  0.00    -0.082 C 
ATOM     39  C   UNL     1      -1.193  -1.410   7.300  0.00  0.00    -0.017 C 
ENDBRANCH  34  38
ENDBRANCH  33  34
ENDBRANCH  32  33
ENDBRANCH  28  32
ENDBRANCH   1  29
TORSDOF 9
