REMARK  Name = ZINC11784063
REMARK  7 active torsions:
REMARK  status: ('A' for Active; 'I' for Inactive)
REMARK    1  A    between atoms: C_1  and  C_2
REMARK    2  A    between atoms: C_2  and  C_3
REMARK    3  A    between atoms: C_3  and  C_20
REMARK    4  A    between atoms: N_6  and  C_10
REMARK    5  A    between atoms: C_10  and  C_11
REMARK    6  A    between atoms: C_25  and  C_26
REMARK    7  A    between atoms: C_25  and  N_61
REMARK                            x       y       z     vdW  Elec       q    Type
REMARK                         _______ _______ _______ _____ _____    ______ ____
ROOT
ATOM      1  C   UNL     1      -2.774   2.066  -4.900  0.00  0.00    +0.115 C 
ATOM      2  C   UNL     1      -1.985   1.919  -6.186  0.00  0.00    +0.247 C 
ATOM      3  O   UNL     1      -1.692   0.887  -6.751  0.00  0.00    -0.273 OA
ATOM      4  N   UNL     1      -1.678   3.173  -6.571  0.00  0.00    -0.220 N 
ATOM      5  C   UNL     1      -2.158   4.083  -5.716  0.00  0.00    +0.310 C 
ATOM      6  O   UNL     1      -2.009   5.282  -5.851  0.00  0.00    -0.252 OA
ATOM      7  N   UNL     1      -2.828   3.523  -4.688  0.00  0.00    -0.285 N 
ATOM      8  H   UNL     1      -3.260   3.986  -3.953  0.00  0.00    +0.151 HD
ENDROOT
BRANCH   1   9
ATOM      9  C   UNL     1      -2.047   1.380  -3.741  0.00  0.00    +0.018 C 
ATOM     10  C   UNL     1      -0.641   1.970  -3.598  0.00  0.00    -0.013 C 
ATOM     11  C   UNL     1       0.058   1.323  -2.400  0.00  0.00    -0.078 C 
ATOM     12  C   UNL     1      -2.061   0.974  -1.278  0.00  0.00    -0.078 C 
ATOM     13  C   UNL     1      -2.824   1.611  -2.442  0.00  0.00    -0.013 C 
ATOM     14  N   UNL     1      -0.726   1.602  -1.178  0.00  0.00    +0.382 N 
ATOM     15  H   UNL     1      -0.842   2.618  -1.082  0.00  0.00    -0.081 HD
BRANCH  14  16
ATOM     16  C   UNL     1      -0.013   1.086   0.008  0.00  0.00    -0.043 C 
BRANCH  16  17
ATOM     17  C   UNL     1      -0.718   1.572   1.248  0.00  0.00    -0.059 A 
ATOM     18  C   UNL     1      -0.359   2.779   1.818  0.00  0.00    +0.040 A 
ATOM     19  C   UNL     1      -1.010   3.228   2.955  0.00  0.00    +0.126 A 
ATOM     20  C   UNL     1      -2.013   2.464   3.526  0.00  0.00    +0.076 A 
ATOM     21  C   UNL     1      -2.367   1.253   2.957  0.00  0.00    +0.126 A 
ATOM     22  C   UNL     1      -1.719   0.808   1.817  0.00  0.00    +0.040 A 
ATOM     23  F   UNL     1      -3.345   0.505   3.514  0.00  0.00    -0.205 F 
ATOM     24  F   UNL     1      -0.663   4.411   3.509  0.00  0.00    -0.205 F 
ENDBRANCH  16  17
ENDBRANCH  14  16
ENDBRANCH   1   9
BRANCH   1  26
ATOM     25  C   UNL     1      -4.887   2.196  -6.227  0.00  0.00    +0.006 C 
ATOM     26  C   UNL     1      -4.183   1.493  -5.064  0.00  0.00    +0.032 C 
ENDBRANCH   1  26
BRANCH   4  27
ATOM     27  C   UNL     1      -0.914   3.500  -7.777  0.00  0.00    +0.153 C 
BRANCH  27  28
ATOM     28  C   UNL     1      -1.859   3.678  -8.938  0.00  0.00    -0.026 A 
ATOM     29  C   UNL     1      -2.386   4.927  -9.212  0.00  0.00    +0.009 A 
ATOM     30  C   UNL     1      -3.253   5.095 -10.276  0.00  0.00    +0.050 A 
ATOM     31  C   UNL     1      -3.595   4.013 -11.070  0.00  0.00    +0.166 A 
ATOM     32  C   UNL     1      -3.064   2.755 -10.793  0.00  0.00    +0.167 A 
ATOM     33  C   UNL     1      -2.192   2.595  -9.728  0.00  0.00    +0.054 A 
ATOM     34  O   UNL     1      -3.549   1.866 -11.708  0.00  0.00    -0.453 OA
ATOM     35  C   UNL     1      -4.697   2.507 -12.296  0.00  0.00    +0.466 C 
ATOM     36  O   UNL     1      -4.413   3.911 -12.158  0.00  0.00    -0.453 OA
ENDBRANCH  27  28
ENDBRANCH   4  27
TORSDOF 6
