REMARK  Name = ZINC39664832
REMARK  13 active torsions:
REMARK  status: ('A' for Active; 'I' for Inactive)
REMARK    1  A    between atoms: C_1  and  C_2
REMARK    2  A    between atoms: C_2  and  C_3
REMARK    3  A    between atoms: C_3  and  C_4
REMARK    4  A    between atoms: C_4  and  C_5
REMARK    5  A    between atoms: C_5  and  C_7
REMARK    6  A    between atoms: C_5  and  C_8
REMARK    7  A    between atoms: C_12  and  C_21
REMARK    8  A    between atoms: N_23  and  C_24
REMARK    9  A    between atoms: C_24  and  C_26
REMARK   10  A    between atoms: C_24  and  C_30
REMARK   11  A    between atoms: C_26  and  N_27
REMARK   12  A    between atoms: N_27  and  C_28
REMARK   13  A    between atoms: N_27  and  C_29
REMARK                            x       y       z     vdW  Elec       q    Type
REMARK                         _______ _______ _______ _____ _____    ______ ____
ROOT
ATOM      1  C   UNL     1       0.882  -3.373  -3.017  0.00  0.00    +0.218 C 
ATOM      2  O   UNL     1       0.308  -3.916  -2.096  0.00  0.00    -0.275 OA
ATOM      3  N   UNL     1       1.552  -4.112  -3.923  0.00  0.00    -0.300 N 
ATOM      4  C   UNL     1       2.313  -3.634  -5.102  0.00  0.00    +0.121 C 
ATOM      5  C   UNL     1       3.563  -4.540  -5.154  0.00  0.00    +0.100 C 
ATOM      6  C   UNL     1       3.151  -5.821  -4.409  0.00  0.00    -0.004 C 
ATOM      7  C   UNL     1       1.700  -5.587  -3.963  0.00  0.00    +0.115 C 
ATOM      8  C   UNL     1       4.043  -6.034  -3.190  0.00  0.00    -0.010 C 
ATOM      9  C   UNL     1       3.651  -7.343  -2.498  0.00  0.00    -0.082 C 
ATOM     10  N   UNL     1       3.800  -8.459  -3.440  0.00  0.00    +0.379 N 
ATOM     11  C   UNL     1       2.871  -8.293  -4.564  0.00  0.00    -0.082 C 
ATOM     12  C   UNL     1       3.230  -7.024  -5.343  0.00  0.00    -0.010 C 
ATOM     13  H   UNL     1       4.747  -8.480  -3.788  0.00  0.00    -0.086 HD
ATOM     14  H   UNL     1       3.600  -9.326  -2.965  0.00  0.00    -0.086 HD
ENDROOT
BRANCH   5  15
ATOM     15  C   UNL     1       3.925  -4.854  -6.582  0.00  0.00    +0.219 C 
ATOM     16  O   UNL     1       3.054  -4.949  -7.421  0.00  0.00    -0.275 OA
ATOM     17  N   UNL     1       5.215  -5.031  -6.928  0.00  0.00    -0.310 N 
ATOM     18  H   UNL     1       5.904  -5.034  -6.245  0.00  0.00    +0.149 HD
BRANCH  17  19
ATOM     19  C   UNL     1       5.578  -5.218  -8.335  0.00  0.00    +0.087 C 
BRANCH  19  20
ATOM     20  C   UNL     1       6.857  -6.009  -8.423  0.00  0.00    -0.029 A 
ATOM     21  C   UNL     1       7.882  -5.768  -7.527  0.00  0.00    +0.005 A 
ATOM     22  C   UNL     1       9.056  -6.494  -7.608  0.00  0.00    +0.000 A 
ATOM     23  C   UNL     1       9.204  -7.461  -8.585  0.00  0.00    +0.000 A 
ATOM     24  C   UNL     1       8.180  -7.702  -9.480  0.00  0.00    +0.000 A 
ATOM     25  C   UNL     1       7.004  -6.980  -9.396  0.00  0.00    +0.005 A 
ENDBRANCH  19  20
BRANCH  19  26
ATOM     26  C   UNL     1       5.776  -3.852  -8.996  0.00  0.00    -0.052 C 
BRANCH  26  27
ATOM     27  N   UNL     1       6.006  -4.034 -10.436  0.00  0.00    +0.377 N 
ATOM     28  C   UNL     1       4.790  -4.568 -11.063  0.00  0.00    -0.097 C 
ATOM     29  C   UNL     1       6.345  -2.741 -11.045  0.00  0.00    -0.097 C 
ATOM     30  H   UNL     1       6.768  -4.681 -10.575  0.00  0.00    -0.083 HD
ENDBRANCH  26  27
ENDBRANCH  19  26
ENDBRANCH  17  19
ENDBRANCH   5  15
BRANCH   1  31
ATOM     31  C   UNL     1       0.846  -1.872  -3.147  0.00  0.00    +0.072 C 
ATOM     32  C   UNL     1       0.204  -1.491  -4.482  0.00  0.00    +0.017 C 
BRANCH  31  33
ATOM     33  C   UNL     1       0.026  -1.281  -1.999  0.00  0.00    +0.012 C 
BRANCH  33  34
ATOM     34  C   UNL     1       0.093   0.247  -2.059  0.00  0.00    +0.000 C 
BRANCH  34  36
ATOM     35  C   UNL     1      -0.661   2.366  -0.971  0.00  0.00    +0.004 C 
ATOM     36  C   UNL     1      -0.728   0.838  -0.910  0.00  0.00    -0.003 C 
ENDBRANCH  34  36
ENDBRANCH  33  34
ENDBRANCH  31  33
ENDBRANCH   1  31
TORSDOF 9
