REMARK  Name = ZINC15988645
REMARK  5 active torsions:
REMARK  status: ('A' for Active; 'I' for Inactive)
REMARK    1  A    between atoms: C_3  and  C_6
REMARK    2  A    between atoms: C_6  and  C_8
REMARK    3  A    between atoms: C_6  and  N_41
REMARK    4  A    between atoms: C_8  and  N_9
REMARK    5  A    between atoms: C_10  and  C_12
REMARK                            x       y       z     vdW  Elec       q    Type
REMARK                         _______ _______ _______ _____ _____    ______ ____
ROOT
ATOM      1  C   UNL     1       5.891   2.963  -0.165  0.00  0.00    +0.016 C 
ENDROOT
BRANCH   1   7
ATOM      2  C   UNL     1       6.224   5.346   0.104  0.00  0.00    -0.078 C 
ATOM      3  C   UNL     1       5.928   6.539   1.015  0.00  0.00    -0.019 C 
ATOM      4  C   UNL     1       6.628   6.333   2.361  0.00  0.00    -0.004 C 
ATOM      5  C   UNL     1       6.150   5.017   2.981  0.00  0.00    -0.019 C 
ATOM      6  C   UNL     1       6.441   3.868   2.012  0.00  0.00    -0.078 C 
ATOM      7  N   UNL     1       5.718   4.114   0.746  0.00  0.00    +0.387 N 
ATOM      8  H   UNL     1       4.719   4.231   0.950  0.00  0.00    -0.081 HD
ENDBRANCH   1   7
BRANCH   1  11
ATOM      9  C   UNL     1       9.280   2.378  -1.490  0.00  0.00    +0.041 A 
ATOM     10  C   UNL     1       7.889   2.554  -1.678  0.00  0.00    +0.043 A 
ATOM     11  C   UNL     1       7.351   2.733  -0.458  0.00  0.00    +0.093 A 
ATOM     12  O   UNL     1       8.335   2.667   0.454  0.00  0.00    -0.469 OA
ATOM     13  C   UNL     1       9.506   2.452  -0.166  0.00  0.00    +0.195 A 
ENDBRANCH   1  11
BRANCH   1  14
ATOM     14  C   UNL     1       5.301   1.716   0.497  0.00  0.00    +0.097 C 
BRANCH  14  15
ATOM     15  N   UNL     1       3.917   1.982   0.895  0.00  0.00    -0.312 N 
ATOM     16  C   UNL     1       3.162   0.993   1.412  0.00  0.00    +0.251 C 
ATOM     17  O   UNL     1       3.631  -0.122   1.549  0.00  0.00    -0.270 OA
ATOM     18  H   UNL     1       3.543   2.870   0.785  0.00  0.00    +0.149 HD
BRANCH  16  19
ATOM     19  C   UNL     1       1.777   1.259   1.810  0.00  0.00    +0.076 A 
ATOM     20  C   UNL     1       0.843   0.392   2.356  0.00  0.00    +0.037 A 
ATOM     21  C   UNL     1      -0.399   0.905   2.633  0.00  0.00    +0.040 A 
ATOM     22  C   UNL     1      -0.647   2.218   2.374  0.00  0.00    +0.070 A 
ATOM     23  S   UNL     1       0.854   2.783   1.717  0.00  0.00    -0.076 S 
ATOM     24 BR   UNL     1      -2.245   3.189   2.655  0.00  0.00    -0.041 Br
ATOM     25 BR   UNL     1      -1.748  -0.196   3.371  0.00  0.00    -0.049 Br
ENDBRANCH  16  19
ENDBRANCH  14  15
ENDBRANCH   1  14
TORSDOF 5
