REMARK  Name = ZINC09686782
REMARK  7 active torsions:
REMARK  status: ('A' for Active; 'I' for Inactive)
REMARK    1  A    between atoms: C_1  and  C_2
REMARK    2  A    between atoms: C_4  and  N_9
REMARK    3  A    between atoms: N_9  and  S_10
REMARK    4  A    between atoms: S_10  and  C_13
REMARK    5  A    between atoms: C_16  and  C_18
REMARK    6  A    between atoms: C_19  and  C_25
REMARK    7  A    between atoms: C_20  and  C_24
REMARK                            x       y       z     vdW  Elec       q    Type
REMARK                         _______ _______ _______ _____ _____    ______ ____
ROOT
ATOM      1  S   UNL     1      -3.279  -4.103   0.640  0.00  0.00    +0.079 S 
ATOM      2  O   UNL     1      -3.113  -4.650   1.941  0.00  0.00    -0.149 OA
ATOM      3  O   UNL     1      -4.095  -2.967   0.390  0.00  0.00    -0.149 OA
ENDROOT
BRANCH   1   4
ATOM      4  C   UNL     1      -1.667  -3.703   0.052  0.00  0.00    +0.146 A 
ATOM      5  C   UNL     1      -1.306  -2.828  -0.921  0.00  0.00    +0.037 A 
ATOM      6  C   UNL     1       0.030  -2.665  -1.217  0.00  0.00    +0.019 A 
ATOM      7  C   UNL     1       0.952  -3.406  -0.523  0.00  0.00    +0.039 A 
ATOM      8  S   UNL     1      -0.087  -4.344   0.584  0.00  0.00    -0.067 S 
BRANCH   7   9
ATOM      9  C   UNL     1       2.420  -3.418  -0.654  0.00  0.00    +0.075 A 
ATOM     10  C   UNL     1       3.229  -4.534  -0.690  0.00  0.00    -0.002 A 
ATOM     11  C   UNL     1       4.547  -4.097  -0.822  0.00  0.00    +0.063 A 
ATOM     12  N   UNL     1       4.553  -2.789  -0.864  0.00  0.00    -0.178 NA
ATOM     13  N   UNL     1       3.234  -2.329  -0.761  0.00  0.00    -0.276 N 
ATOM     14  H   UNL     1       2.941  -1.372  -0.765  0.00  0.00    +0.189 HD
ATOM     15  C   UNL     1       5.763  -4.983  -0.901  0.00  0.00    +0.068 C 
ATOM     16  C   UNL     1       2.773  -5.968  -0.604  0.00  0.00    +0.048 C 
ENDBRANCH   7   9
ENDBRANCH   1   4
BRANCH   1  17
ATOM     17  N   UNL     1      -3.860  -5.324  -0.317  0.00  0.00    -0.216 N 
ATOM     18  H   UNL     1      -4.045  -6.195   0.068  0.00  0.00    +0.174 HD
BRANCH  17  22
ATOM     19  C   UNL     1      -2.469  -5.941  -4.990  0.00  0.00    +0.045 C 
ATOM     20  C   UNL     1      -3.425  -5.387  -3.966  0.00  0.00    -0.035 A 
ATOM     21  C   UNL     1      -3.202  -5.610  -2.621  0.00  0.00    +0.029 A 
ATOM     22  C   UNL     1      -4.083  -5.099  -1.677  0.00  0.00    +0.048 A 
ATOM     23  C   UNL     1      -5.191  -4.369  -2.090  0.00  0.00    +0.025 A 
ATOM     24  C   UNL     1      -5.406  -4.144  -3.435  0.00  0.00    +0.017 A 
ATOM     25  C   UNL     1      -4.526  -4.655  -4.373  0.00  0.00    +0.021 A 
ATOM     26 BR   UNL     1      -4.829  -4.351  -6.214  0.00  0.00    -0.050 Br
ENDBRANCH  17  22
ENDBRANCH   1  17
TORSDOF 4
