REMARK  Name = ZINC13077786
REMARK  6 active torsions:
REMARK  status: ('A' for Active; 'I' for Inactive)
REMARK    1  A    between atoms: C_1  and  C_2
REMARK    2  A    between atoms: C_2  and  C_4
REMARK    3  A    between atoms: C_2  and  O_6
REMARK    4  A    between atoms: O_6  and  C_7
REMARK    5  A    between atoms: C_10  and  C_13
REMARK    6  A    between atoms: C_15  and  C_23
REMARK                            x       y       z     vdW  Elec       q    Type
REMARK                         _______ _______ _______ _____ _____    ______ ____
ROOT
ATOM      1  C   UNL     1       3.608   3.284   4.965  0.00  0.00    +0.039 C 
ATOM      2  C   UNL     1       2.928   3.018   6.072  0.00  0.00    +0.028 C 
ATOM      3  C   UNL     1       3.442   3.322   7.453  0.00  0.00    +0.168 C 
ATOM      4  N   UNL     1       4.857   3.667   7.385  0.00  0.00    -0.202 N 
ATOM      5  C   UNL     1       5.517   3.929   6.226  0.00  0.00    +0.240 A 
ATOM      6  N   UNL     1       6.751   4.206   6.538  0.00  0.00    -0.092 NA
ATOM      7  N   UNL     1       6.917   4.132   7.814  0.00  0.00    -0.021 NA
ATOM      8  N   UNL     1       5.807   3.808   8.395  0.00  0.00    -0.042 NA
ATOM      9  N   UNL     1       4.882   3.867   4.997  0.00  0.00    -0.282 N 
ATOM     10  H   UNL     1       5.301   4.214   4.194  0.00  0.00    +0.155 HD
ENDROOT
BRANCH   3  11
ATOM     11  C   UNL     1       2.671   4.480   8.032  0.00  0.00    -0.001 A 
ATOM     12  C   UNL     1       2.687   5.707   7.395  0.00  0.00    +0.056 A 
ATOM     13  C   UNL     1       1.975   6.772   7.923  0.00  0.00    +0.167 A 
ATOM     14  C   UNL     1       1.252   6.606   9.101  0.00  0.00    +0.167 A 
ATOM     15  C   UNL     1       1.243   5.375   9.737  0.00  0.00    +0.065 A 
ATOM     16  C   UNL     1       1.952   4.314   9.202  0.00  0.00    +0.027 A 
ATOM     17 BR   UNL     1       1.939   2.635  10.072  0.00  0.00    -0.050 Br
ATOM     18  O   UNL     1       0.649   7.790   9.414  0.00  0.00    -0.453 OA
ATOM     19  C   UNL     1       0.678   8.568   8.203  0.00  0.00    +0.466 C 
ATOM     20  O   UNL     1       1.826   8.060   7.497  0.00  0.00    -0.453 OA
ENDBRANCH   3  11
BRANCH   1  24
ATOM     21  C   UNL     1       1.876   2.326   1.203  0.00  0.00    +0.122 A 
ATOM     22  C   UNL     1       1.178   2.061   2.374  0.00  0.00    +0.046 A 
ATOM     23  C   UNL     1       1.740   2.365   3.596  0.00  0.00    +0.013 A 
ATOM     24  C   UNL     1       3.005   2.950   3.654  0.00  0.00    -0.004 A 
ATOM     25  C   UNL     1       3.700   3.220   2.476  0.00  0.00    +0.013 A 
ATOM     26  C   UNL     1       3.135   2.909   1.257  0.00  0.00    +0.046 A 
BRANCH  21  27
ATOM     27  O   UNL     1       1.322   2.020   0.000  0.00  0.00    -0.478 OA
BRANCH  27  29
ATOM     28  C   UNL     1      -0.015   0.025   0.265  0.00  0.00    +0.064 C 
ATOM     29  C   UNL     1      -0.021   1.533   0.010  0.00  0.00    +0.282 C 
BRANCH  29  30
ATOM     30  C   UNL     1      -0.667   1.815  -1.323  0.00  0.00    +0.395 C 
ATOM     31  O   UNL     1      -0.016   2.292  -2.221  0.00  0.00    -0.242 OA
ATOM     32  O   UNL     1      -1.966   1.534  -1.511  0.00  0.00    -0.242 OA
ENDBRANCH  29  30
ENDBRANCH  27  29
ENDBRANCH  21  27
ENDBRANCH   1  24
TORSDOF 5
