REMARK  Name = ZINC14550817
REMARK  5 active torsions:
REMARK  status: ('A' for Active; 'I' for Inactive)
REMARK    1  A    between atoms: C_1  and  N_2
REMARK    2  A    between atoms: N_5  and  S_8
REMARK    3  A    between atoms: S_8  and  C_11
REMARK    4  A    between atoms: C_24  and  C_27
REMARK    5  A    between atoms: C_30  and  N_33
REMARK                            x       y       z     vdW  Elec       q    Type
REMARK                         _______ _______ _______ _____ _____    ______ ____
ROOT
ATOM      1  C   UNL     1       3.693  -3.114  -0.187  0.00  0.00    +0.106 A 
ATOM      2  C   UNL     1       4.263  -2.815  -1.411  0.00  0.00    +0.030 A 
ATOM      3  C   UNL     1       5.514  -2.237  -1.470  0.00  0.00    +0.025 A 
ATOM      4  C   UNL     1       6.212  -1.953  -0.303  0.00  0.00    +0.031 A 
ATOM      5  C   UNL     1       5.634  -2.268   0.932  0.00  0.00    -0.018 A 
ATOM      6  C   UNL     1       4.378  -2.832   0.981  0.00  0.00    +0.034 A 
ATOM      7  C   UNL     1       6.426  -1.986   2.149  0.00  0.00    +0.049 C 
ATOM      8  C   UNL     1       5.782  -1.711   3.459  0.00  0.00    -0.023 C 
ATOM      9  C   UNL     1       6.556  -0.879   4.145  0.00  0.00    -0.030 C 
ATOM     10  C   UNL     1       7.784  -0.501   3.315  0.00  0.00    +0.033 C 
ATOM     11  C   UNL     1       7.242  -0.683   1.895  0.00  0.00    +0.029 C 
ATOM     12  C   UNL     1       8.259  -1.043   0.827  0.00  0.00    +0.105 C 
ATOM     13  N   UNL     1       7.472  -1.347  -0.387  0.00  0.00    -0.336 N 
ATOM     14  H   UNL     1       7.834  -1.122  -1.259  0.00  0.00    +0.147 HD
ENDROOT
BRANCH  12  15
ATOM     15  C   UNL     1       9.184   0.120   0.575  0.00  0.00    -0.027 A 
ATOM     16  C   UNL     1       8.771   1.169  -0.226  0.00  0.00    +0.008 A 
ATOM     17  C   UNL     1       9.619   2.236  -0.458  0.00  0.00    +0.033 A 
ATOM     18  C   UNL     1      10.879   2.255   0.112  0.00  0.00    +0.126 A 
ATOM     19  C   UNL     1      11.290   1.206   0.913  0.00  0.00    +0.033 A 
ATOM     20  C   UNL     1      10.441   0.141   1.148  0.00  0.00    +0.008 A 
BRANCH  18  21
ATOM     21  N   UNL     1      11.787   3.397  -0.137  0.00  0.00    +0.056 N 
ATOM     22  O   UNL     1      11.427   4.314  -0.838  0.00  0.00    -0.126 OA
ATOM     23  O   UNL     1      12.888   3.413   0.361  0.00  0.00    -0.126 OA
ENDBRANCH  18  21
ENDBRANCH  12  15
BRANCH   1  24
ATOM     24  S   UNL     1       2.092  -3.845  -0.115  0.00  0.00    +0.061 S 
ATOM     25  O   UNL     1       2.009  -4.521   1.132  0.00  0.00    -0.153 OA
ATOM     26  O   UNL     1       1.892  -4.508  -1.356  0.00  0.00    -0.153 OA
BRANCH  24  31
ATOM     27  C   UNL     1      -0.018   1.465   0.010  0.00  0.00    +0.105 C 
ATOM     28  N   UNL     1       0.002  -0.004   0.002  0.00  0.00    -0.303 NA
ATOM     29  C   UNL     1       0.592  -0.516  -1.242  0.00  0.00    +0.101 C 
ATOM     30  C   UNL     1       0.430  -2.039  -1.292  0.00  0.00    +0.125 C 
ATOM     31  N   UNL     1       0.991  -2.608  -0.057  0.00  0.00    -0.174 NA
ATOM     32  C   UNL     1       0.549  -2.051   1.230  0.00  0.00    +0.125 C 
ATOM     33  C   UNL     1       0.706  -0.527   1.180  0.00  0.00    +0.101 C 
ENDBRANCH  24  31
ENDBRANCH   1  24
TORSDOF 4
