REMARK  Name = ZINC09119425
REMARK  6 active torsions:
REMARK  status: ('A' for Active; 'I' for Inactive)
REMARK    1  A    between atoms: C_4  and  O_32
REMARK    2  A    between atoms: C_5  and  C_7
REMARK    3  A    between atoms: C_7  and  C_9
REMARK    4  A    between atoms: C_11  and  S_27
REMARK    5  A    between atoms: S_27  and  C_28
REMARK    6  A    between atoms: C_28  and  C_29
REMARK                            x       y       z     vdW  Elec       q    Type
REMARK                         _______ _______ _______ _____ _____    ______ ____
ROOT
ATOM      1  C   UNL     1      -0.006  -2.921   0.098  0.00  0.00    +0.040 A 
ATOM      2  C   UNL     1      -1.250  -2.241   0.109  0.00  0.00    +0.031 A 
ATOM      3  C   UNL     1      -2.402  -2.960   0.220  0.00  0.00    +0.052 A 
ATOM      4  C   UNL     1      -2.340  -4.373   0.323  0.00  0.00    +0.155 A 
ATOM      5  N   UNL     1      -3.468  -5.065   0.431  0.00  0.00    -0.221 NA
ATOM      6  C   UNL     1      -3.451  -6.382   0.531  0.00  0.00    +0.116 A 
ATOM      7  C   UNL     1      -2.250  -7.118   0.528  0.00  0.00    +0.076 A 
ATOM      8  C   UNL     1      -2.392  -8.570   0.649  0.00  0.00    -0.023 A 
ATOM      9  C   UNL     1      -3.646  -9.056   0.750  0.00  0.00    -0.004 A 
ATOM     10  S   UNL     1      -4.700  -7.633   0.690  0.00  0.00    -0.073 S 
ATOM     11  C   UNL     1      -4.054 -10.492   0.884  0.00  0.00    +0.043 C 
ATOM     12  C   UNL     1      -2.852 -11.374   0.519  0.00  0.00    +0.005 C 
ATOM     13  C   UNL     1      -1.616 -10.851   1.257  0.00  0.00    +0.005 C 
ATOM     14  C   UNL     1      -1.188  -9.508   0.664  0.00  0.00    +0.037 C 
ATOM     15  C   UNL     1      -1.051  -6.354   0.407  0.00  0.00    +0.267 A 
ATOM     16  O   UNL     1       0.033  -6.911   0.392  0.00  0.00    -0.267 OA
ATOM     17  N   UNL     1      -1.127  -5.011   0.309  0.00  0.00    -0.266 N 
ATOM     18  C   UNL     1       0.026  -4.293   0.193  0.00  0.00    +0.108 A 
ENDROOT
BRANCH   1  19
ATOM     19  C   UNL     1       1.251  -2.159  -0.022  0.00  0.00    +0.198 C 
ATOM     20  O   UNL     1       2.320  -2.733   0.061  0.00  0.00    -0.286 OA
BRANCH  19  25
ATOM     21  C   UNL     1       1.457   1.537   0.595  0.00  0.00    +0.001 A 
ATOM     22  C   UNL     1       1.137   2.041  -0.656  0.00  0.00    +0.004 A 
ATOM     23  C   UNL     1       0.853   1.185  -1.702  0.00  0.00    +0.046 A 
ATOM     24  C   UNL     1       0.888  -0.187  -1.506  0.00  0.00    +0.128 A 
ATOM     25  C   UNL     1       1.212  -0.701  -0.242  0.00  0.00    +0.064 A 
ATOM     26  C   UNL     1       1.496   0.177   0.808  0.00  0.00    +0.015 A 
BRANCH  24  27
ATOM     27  O   UNL     1       0.609  -1.029  -2.533  0.00  0.00    -0.506 OA
ATOM     28  H   UNL     1       1.382  -1.283  -3.054  0.00  0.00    +0.292 HD
ENDBRANCH  24  27
ENDBRANCH  19  25
ENDBRANCH   1  19
BRANCH   3  29
ATOM     29  S   UNL     1      -3.961  -2.139   0.235  0.00  0.00    -0.110 S 
BRANCH  29  30
ATOM     30  C   UNL     1      -3.533  -0.382   0.083  0.00  0.00    +0.199 C 
BRANCH  30  31
ATOM     31  C   UNL     1      -4.793   0.444   0.084  0.00  0.00    +0.366 C 
ATOM     32  O   UNL     1      -5.880  -0.102   0.178  0.00  0.00    -0.245 OA
ATOM     33  O   UNL     1      -4.727   1.657  -0.011  0.00  0.00    -0.245 OA
ENDBRANCH  30  31
ENDBRANCH  29  30
ENDBRANCH   3  29
TORSDOF 6
