REMARK  Name = ZINC39684233
REMARK  11 active torsions:
REMARK  status: ('A' for Active; 'I' for Inactive)
REMARK    1  A    between atoms: C_1  and  C_2
REMARK    2  A    between atoms: C_7  and  C_11
REMARK    3  A    between atoms: C_11  and  C_12
REMARK    4  A    between atoms: C_12  and  N_13
REMARK    5  A    between atoms: C_14  and  C_16
REMARK    6  A    between atoms: C_27  and  C_29
REMARK    7  A    between atoms: C_29  and  C_31
REMARK    8  A    between atoms: C_29  and  O_34
REMARK    9  A    between atoms: C_31  and  C_32
REMARK   10  A    between atoms: C_31  and  C_33
REMARK   11  A    between atoms: O_34  and  C_35
REMARK                            x       y       z     vdW  Elec       q    Type
REMARK                         _______ _______ _______ _____ _____    ______ ____
ROOT
ATOM      1  C   UNL     1      -8.680   1.909  -6.870  0.00  0.00    +0.100 C 
ATOM      2  C   UNL     1      -9.699   2.407  -5.820  0.00  0.00    +0.121 C 
ATOM      3  N   UNL     1     -10.943   1.660  -6.123  0.00  0.00    -0.297 N 
ATOM      4  C   UNL     1     -10.479   0.296  -6.471  0.00  0.00    +0.115 C 
ATOM      5  C   UNL     1      -9.195   0.523  -7.293  0.00  0.00    -0.004 C 
ATOM      6  C   UNL     1      -8.160  -0.549  -6.962  0.00  0.00    -0.010 C 
ATOM      7  C   UNL     1      -8.669  -1.910  -7.446  0.00  0.00    -0.082 C 
ATOM      8  N   UNL     1      -8.906  -1.860  -8.893  0.00  0.00    +0.379 N 
ATOM      9  C   UNL     1      -9.968  -0.893  -9.194  0.00  0.00    -0.082 C 
ATOM     10  C   UNL     1      -9.514   0.511  -8.785  0.00  0.00    -0.010 C 
ATOM     11  C   UNL     1     -12.210   2.118  -6.089  0.00  0.00    +0.257 C 
ATOM     12  O   UNL     1     -13.135   1.355  -6.268  0.00  0.00    -0.272 OA
ATOM     13  H   UNL     1      -8.057  -1.582  -9.362  0.00  0.00    -0.086 HD
ATOM     14  H   UNL     1      -9.183  -2.774  -9.219  0.00  0.00    -0.086 HD
ENDROOT
BRANCH   1  16
ATOM     15  N   UNL     1      -6.215   1.808  -7.043  0.00  0.00    -0.315 N 
ATOM     16  C   UNL     1      -7.308   1.794  -6.256  0.00  0.00    +0.218 C 
ATOM     17  O   UNL     1      -7.189   1.689  -5.054  0.00  0.00    -0.275 OA
ATOM     18  H   UNL     1      -6.310   1.892  -8.005  0.00  0.00    +0.149 HD
BRANCH  15  19
ATOM     19  C   UNL     1      -4.881   1.696  -6.447  0.00  0.00    +0.109 C 
BRANCH  19  20
ATOM     20  C   UNL     1      -3.823   1.739  -7.551  0.00  0.00    +0.056 C 
BRANCH  20  27
ATOM     21  C   UNL     1       1.712   0.196  -5.040  0.00  0.00    +0.046 C 
ATOM     22  C   UNL     1       0.379  -0.202  -5.618  0.00  0.00    -0.027 A 
ATOM     23  C   UNL     1       0.040  -1.533  -5.723  0.00  0.00    +0.005 A 
ATOM     24  C   UNL     1      -1.185  -1.913  -6.254  0.00  0.00    +0.001 A 
ATOM     25  C   UNL     1      -2.077  -0.971  -6.683  0.00  0.00    +0.010 A 
ATOM     26  C   UNL     1      -1.755   0.384  -6.585  0.00  0.00    +0.003 A 
ATOM     27  C   UNL     1      -2.451   1.624  -6.937  0.00  0.00    -0.021 A 
ATOM     28  C   UNL     1      -1.636   2.639  -6.609  0.00  0.00    +0.087 A 
ATOM     29  N   UNL     1      -0.474   2.150  -6.077  0.00  0.00    -0.360 N 
ATOM     30  C   UNL     1      -0.517   0.774  -6.043  0.00  0.00    +0.050 A 
ATOM     31  H   UNL     1       0.268   2.692  -5.766  0.00  0.00    +0.165 HD
ENDBRANCH  20  27
ENDBRANCH  19  20
ENDBRANCH  15  19
ENDBRANCH   1  16
BRANCH  11  32
ATOM     32  C   UNL     1     -12.477   3.578  -5.830  0.00  0.00    +0.261 C 
BRANCH  32  33
ATOM     33  C   UNL     1     -12.464   4.343  -7.155  0.00  0.00    +0.033 C 
ATOM     34  C   UNL     1     -12.868   5.798  -6.909  0.00  0.00    +0.011 C 
ATOM     35  C   UNL     1     -11.057   4.299  -7.755  0.00  0.00    +0.011 C 
ENDBRANCH  32  33
BRANCH  32  36
ATOM     36  O   UNL     1     -13.755   3.726  -5.207  0.00  0.00    -0.479 OA
BRANCH  36  37
ATOM     37  C   UNL     1     -13.879   4.711  -4.280  0.00  0.00    +0.122 A 
ATOM     38  C   UNL     1     -15.096   4.920  -3.647  0.00  0.00    +0.045 A 
ATOM     39  C   UNL     1     -15.220   5.922  -2.704  0.00  0.00    +0.004 A 
ATOM     40  C   UNL     1     -14.133   6.718  -2.392  0.00  0.00    +0.000 A 
ATOM     41  C   UNL     1     -12.919   6.512  -3.022  0.00  0.00    +0.004 A 
ATOM     42  C   UNL     1     -12.789   5.507  -3.961  0.00  0.00    +0.045 A 
ENDBRANCH  36  37
ENDBRANCH  32  36
ENDBRANCH  11  32
TORSDOF 8
