REMARK  Name = ZINC59160740
REMARK  10 active torsions:
REMARK  status: ('A' for Active; 'I' for Inactive)
REMARK    1  A    between atoms: C_1  and  C_2
REMARK    2  A    between atoms: C_2  and  C_3
REMARK    3  A    between atoms: C_2  and  C_4
REMARK    4  A    between atoms: C_4  and  C_5
REMARK    5  A    between atoms: C_5  and  C_7
REMARK    6  A    between atoms: C_5  and  N_34
REMARK    7  A    between atoms: N_9  and  N_10
REMARK    8  A    between atoms: N_18  and  C_21
REMARK    9  A    between atoms: C_21  and  C_22
REMARK   10  A    between atoms: C_22  and  N_23
REMARK                            x       y       z     vdW  Elec       q    Type
REMARK                         _______ _______ _______ _____ _____    ______ ____
ROOT
ATOM      1  N   UNL     1      -4.648  -3.145  -1.700  0.00  0.00    -0.175 NA
ATOM      2  C   UNL     1      -5.095  -3.284  -2.924  0.00  0.00    +0.153 C 
ATOM      3  C   UNL     1      -4.347  -3.079  -4.186  0.00  0.00    +0.028 A 
ATOM      4  C   UNL     1      -3.037  -2.705  -4.467  0.00  0.00    +0.012 A 
ATOM      5  C   UNL     1      -2.622  -2.597  -5.779  0.00  0.00    +0.001 A 
ATOM      6  C   UNL     1      -3.508  -2.860  -6.811  0.00  0.00    +0.002 A 
ATOM      7  C   UNL     1      -4.809  -3.231  -6.542  0.00  0.00    +0.024 A 
ATOM      8  C   UNL     1      -5.246  -3.346  -5.227  0.00  0.00    +0.046 A 
ATOM      9  N   UNL     1      -6.480  -3.696  -4.690  0.00  0.00    -0.264 N 
ATOM     10  C   UNL     1      -6.453  -3.684  -3.346  0.00  0.00    +0.271 C 
ATOM     11  O   UNL     1      -7.383  -3.952  -2.609  0.00  0.00    -0.268 OA
ENDROOT
BRANCH   1  14
ATOM     12  C   UNL     1      -2.867  -2.577  -0.226  0.00  0.00    +0.218 C 
ATOM     13  O   UNL     1      -3.520  -2.999   0.704  0.00  0.00    -0.276 OA
ATOM     14  N   UNL     1      -3.370  -2.617  -1.476  0.00  0.00    -0.208 N 
ATOM     15  H   UNL     1      -2.848  -2.279  -2.220  0.00  0.00    +0.177 HD
BRANCH  12  16
ATOM     16  C   UNL     1      -1.492  -2.008   0.014  0.00  0.00    +0.015 C 
BRANCH  16  17
ATOM     17  N   UNL     1      -0.981  -2.493   1.303  0.00  0.00    +0.386 N 
ATOM     18  H   UNL     1      -0.029  -2.181   1.426  0.00  0.00    -0.089 HD
ATOM     19  H   UNL     1      -1.552  -2.128   2.050  0.00  0.00    -0.089 HD
ATOM     20  H   UNL     1      -1.009  -3.501   1.319  0.00  0.00    -0.089 HD
ENDBRANCH  16  17
BRANCH  16  21
ATOM     21  C   UNL     1      -1.569  -0.480   0.038  0.00  0.00    -0.004 C 
BRANCH  21  23
ATOM     22  C   UNL     1       0.653  -0.230  -1.077  0.00  0.00    +0.007 C 
ATOM     23  C   UNL     1      -0.160   0.099   0.176  0.00  0.00    -0.018 C 
ATOM     24  C   UNL     1      -0.247   1.618   0.343  0.00  0.00    +0.007 C 
ENDBRANCH  21  23
ENDBRANCH  16  21
ENDBRANCH  12  16
ENDBRANCH   1  14
BRANCH   9  25
ATOM     25  C   UNL     1      -7.659  -4.041  -5.489  0.00  0.00    +0.133 C 
BRANCH  25  26
ATOM     26  C   UNL     1      -7.671  -5.548  -5.755  0.00  0.00    +0.136 C 
BRANCH  26  27
ATOM     27  N   UNL     1      -8.850  -5.893  -6.553  0.00  0.00    -0.233 N 
ATOM     28  C   UNL     1     -10.047  -6.226  -6.038  0.00  0.00    +0.254 C 
ATOM     29  O   UNL     1     -10.317  -6.289  -4.856  0.00  0.00    -0.270 OA
ATOM     30  C   UNL     1     -10.978  -6.504  -7.152  0.00  0.00    +0.049 A 
ATOM     31  C   UNL     1     -12.309  -6.883  -7.229  0.00  0.00    +0.014 A 
ATOM     32  C   UNL     1     -12.900  -7.066  -8.470  0.00  0.00    +0.001 A 
ATOM     33  C   UNL     1     -12.172  -6.873  -9.629  0.00  0.00    +0.001 A 
ATOM     34  C   UNL     1     -10.840  -6.494  -9.567  0.00  0.00    +0.014 A 
ATOM     35  C   UNL     1     -10.235  -6.308  -8.334  0.00  0.00    +0.049 A 
ATOM     36  C   UNL     1      -8.879  -5.912  -7.898  0.00  0.00    +0.254 C 
ATOM     37  O   UNL     1      -7.947  -5.651  -8.632  0.00  0.00    -0.270 OA
ENDBRANCH  26  27
ENDBRANCH  25  26
ENDBRANCH   9  25
TORSDOF 8
