REMARK  Name = ZINC39634687
REMARK  15 active torsions:
REMARK  status: ('A' for Active; 'I' for Inactive)
REMARK    1  A    between atoms: C_1  and  C_2
REMARK    2  A    between atoms: C_2  and  C_3
REMARK    3  A    between atoms: C_2  and  N_4
REMARK    4  A    between atoms: N_4  and  C_5
REMARK    5  A    between atoms: N_4  and  C_33
REMARK    6  A    between atoms: C_5  and  C_6
REMARK    7  A    between atoms: C_6  and  N_7
REMARK    8  A    between atoms: C_8  and  C_10
REMARK    9  A    between atoms: C_21  and  C_23
REMARK   10  A    between atoms: C_25  and  O_31
REMARK   11  A    between atoms: C_27  and  O_29
REMARK   12  A    between atoms: O_29  and  C_30
REMARK   13  A    between atoms: O_31  and  C_32
REMARK   14  A    between atoms: C_33  and  C_34
REMARK   15  A    between atoms: C_33  and  C_35
REMARK                            x       y       z     vdW  Elec       q    Type
REMARK                         _______ _______ _______ _____ _____    ______ ____
ROOT
ATOM      1  C   UNL     1      -4.385   1.020  -2.949  0.00  0.00    +0.100 C 
ATOM      2  C   UNL     1      -3.602   1.913  -3.937  0.00  0.00    +0.121 C 
ATOM      3  N   UNL     1      -4.630   2.793  -4.541  0.00  0.00    -0.296 N 
ATOM      4  C   UNL     1      -5.534   3.131  -3.416  0.00  0.00    +0.115 C 
ATOM      5  C   UNL     1      -5.651   1.823  -2.608  0.00  0.00    -0.004 C 
ATOM      6  C   UNL     1      -5.698   2.128  -1.114  0.00  0.00    -0.010 C 
ATOM      7  C   UNL     1      -6.995   2.875  -0.791  0.00  0.00    -0.082 C 
ATOM      8  N   UNL     1      -8.147   2.052  -1.179  0.00  0.00    +0.379 N 
ATOM      9  C   UNL     1      -8.145   1.841  -2.632  0.00  0.00    -0.082 C 
ATOM     10  C   UNL     1      -6.896   1.050  -3.033  0.00  0.00    -0.010 C 
ATOM     11  C   UNL     1      -4.723   3.195  -5.824  0.00  0.00    +0.247 C 
ATOM     12  O   UNL     1      -3.966   2.740  -6.660  0.00  0.00    -0.270 OA
ATOM     13  H   UNL     1      -8.093   1.159  -0.711  0.00  0.00    -0.086 HD
ATOM     14  H   UNL     1      -8.999   2.519  -0.910  0.00  0.00    -0.086 HD
ENDROOT
BRANCH  11  15
ATOM     15  C   UNL     1      -5.746   4.188  -6.216  0.00  0.00    +0.044 A 
ATOM     16  C   UNL     1      -6.331   5.007  -5.250  0.00  0.00    +0.059 A 
ATOM     17  C   UNL     1      -7.289   5.937  -5.622  0.00  0.00    +0.124 A 
ATOM     18  C   UNL     1      -7.666   6.054  -6.952  0.00  0.00    +0.091 A 
ATOM     19  C   UNL     1      -7.086   5.241  -7.915  0.00  0.00    +0.124 A 
ATOM     20  C   UNL     1      -6.124   4.313  -7.553  0.00  0.00    +0.059 A 
BRANCH  19  21
ATOM     21  O   UNL     1      -7.459   5.360  -9.216  0.00  0.00    -0.495 OA
ATOM     22  C   UNL     1      -8.453   6.341  -9.520  0.00  0.00    +0.277 C 
ENDBRANCH  19  21
BRANCH  17  23
ATOM     23  O   UNL     1      -7.860   6.735  -4.681  0.00  0.00    -0.495 OA
ATOM     24  C   UNL     1      -8.840   7.671  -5.134  0.00  0.00    +0.277 C 
ENDBRANCH  17  23
ENDBRANCH  11  15
BRANCH   1  26
ATOM     25  N   UNL     1      -3.728  -0.370  -1.011  0.00  0.00    -0.317 N 
ATOM     26  C   UNL     1      -3.569   0.774  -1.705  0.00  0.00    +0.218 C 
ATOM     27  O   UNL     1      -2.771   1.606  -1.329  0.00  0.00    -0.275 OA
ATOM     28  H   UNL     1      -4.367  -1.035  -1.311  0.00  0.00    +0.149 HD
BRANCH  25  29
ATOM     29  C   UNL     1      -2.936  -0.609   0.198  0.00  0.00    +0.085 C 
BRANCH  29  30
ATOM     30  C   UNL     1      -3.306  -1.971   0.790  0.00  0.00    -0.059 C 
BRANCH  30  31
ATOM     31  N   UNL     1      -2.564  -2.179   2.040  0.00  0.00    +0.384 N 
ATOM     32  H   UNL     1      -1.575  -2.093   1.862  0.00  0.00    -0.081 HD
BRANCH  31  34
ATOM     33  C   UNL     1      -2.428  -4.571   1.532  0.00  0.00    -0.014 C 
ATOM     34  C   UNL     1      -2.852  -3.522   2.562  0.00  0.00    -0.074 C 
ATOM     35  C   UNL     1      -2.076  -3.741   3.862  0.00  0.00    -0.014 C 
ENDBRANCH  31  34
BRANCH  31  36
ATOM     36  C   UNL     1      -2.974  -1.172   3.027  0.00  0.00    -0.074 C 
ATOM     37  C   UNL     1      -4.260  -1.630   3.720  0.00  0.00    -0.014 C 
ATOM     38  C   UNL     1      -1.867  -0.999   4.070  0.00  0.00    -0.014 C 
ENDBRANCH  31  36
ENDBRANCH  30  31
ENDBRANCH  29  30
ENDBRANCH  25  29
ENDBRANCH   1  26
TORSDOF 9
