REMARK  Name = ZINC33261403
REMARK  12 active torsions:
REMARK  status: ('A' for Active; 'I' for Inactive)
REMARK    1  A    between atoms: C_1  and  C_2
REMARK    2  A    between atoms: C_5  and  N_14
REMARK    3  A    between atoms: N_6  and  C_8
REMARK    4  A    between atoms: N_21  and  C_23
REMARK    5  A    between atoms: C_23  and  C_24
REMARK    6  A    between atoms: C_24  and  C_25
REMARK    7  A    between atoms: C_25  and  C_26
REMARK    8  A    between atoms: N_28  and  C_29
REMARK    9  A    between atoms: C_29  and  C_30
REMARK   10  A    between atoms: C_30  and  C_31
REMARK   11  A    between atoms: C_31  and  C_33
REMARK   12  A    between atoms: C_31  and  N_34
REMARK                            x       y       z     vdW  Elec       q    Type
REMARK                         _______ _______ _______ _____ _____    ______ ____
ROOT
ATOM      1  C   UNL     1       3.526   2.533   2.425  0.00  0.00    +0.070 C 
ATOM      2  C   UNL     1       2.093   2.082   2.299  0.00  0.00    +0.086 A 
ATOM      3  C   UNL     1       1.749   0.668   2.482  0.00  0.00    +0.123 A 
ATOM      4  C   UNL     1       0.332   0.286   2.347  0.00  0.00    +0.112 A 
ATOM      5  C   UNL     1       0.272  -1.078   2.562  0.00  0.00    +0.154 A 
ATOM      6  N   UNL     1       1.528  -1.507   2.808  0.00  0.00    -0.215 N 
ATOM      7  N   UNL     1       2.417  -0.427   2.755  0.00  0.00    -0.162 NA
ATOM      8  C   UNL     1      -0.631   1.343   2.045  0.00  0.00    +0.280 A 
ATOM      9  O   UNL     1      -1.817   1.087   1.927  0.00  0.00    -0.265 OA
ATOM     10  N   UNL     1      -0.183   2.606   1.896  0.00  0.00    -0.229 N 
ATOM     11  N   UNL     1       1.162   2.944   2.029  0.00  0.00    -0.171 NA
ENDROOT
BRANCH   6  12
ATOM     12  C   UNL     1       1.888  -2.834   3.075  0.00  0.00    +0.068 A 
ATOM     13  C   UNL     1       1.033  -3.655   3.799  0.00  0.00    +0.028 A 
ATOM     14  C   UNL     1       1.389  -4.964   4.056  0.00  0.00    +0.002 A 
ATOM     15  C   UNL     1       2.599  -5.455   3.603  0.00  0.00    +0.000 A 
ATOM     16  C   UNL     1       3.455  -4.639   2.886  0.00  0.00    +0.002 A 
ATOM     17  C   UNL     1       3.103  -3.330   2.620  0.00  0.00    +0.028 A 
ENDBRANCH   6  12
BRANCH   5  18
ATOM     18  N   UNL     1      -0.874  -1.865   2.531  0.00  0.00    -0.307 N 
ATOM     19  C   UNL     1      -2.068  -1.558   3.121  0.00  0.00    +0.092 A 
ATOM     20  C   UNL     1      -2.933  -2.561   2.866  0.00  0.00    +0.019 A 
ATOM     21  C   UNL     1      -2.249  -3.527   2.100  0.00  0.00    +0.019 A 
ATOM     22  C   UNL     1      -0.992  -3.077   1.909  0.00  0.00    +0.092 A 
ENDBRANCH   5  18
BRANCH  10  23
ATOM     23  C   UNL     1      -1.148   3.664   1.589  0.00  0.00    +0.148 C 
BRANCH  23  24
ATOM     24  C   UNL     1      -1.681   4.263   2.892  0.00  0.00    +0.033 C 
BRANCH  24  25
ATOM     25  C   UNL     1      -2.689   5.369   2.571  0.00  0.00    +0.097 C 
BRANCH  25  26
ATOM     26  C   UNL     1      -3.214   5.958   3.855  0.00  0.00    +0.213 C 
ATOM     27  O   UNL     1      -2.820   5.536   4.921  0.00  0.00    -0.276 OA
ATOM     28  N   UNL     1      -4.120   6.955   3.817  0.00  0.00    -0.315 N 
ATOM     29  H   UNL     1      -4.477   7.338   2.850  0.00  0.00    +0.149 HD
BRANCH  28  30
ATOM     30  C   UNL     1      -4.630   7.529   5.065  0.00  0.00    +0.102 C 
BRANCH  30  31
ATOM     31  C   UNL     1      -5.638   8.634   4.744  0.00  0.00    +0.003 C 
BRANCH  31  32
ATOM     32  C   UNL     1      -6.171   9.233   6.047  0.00  0.00    -0.070 C 
ATOM     33  C   UNL     1      -7.269  10.250   5.730  0.00  0.00    -0.013 C 
BRANCH  32  34
ATOM     34  N   UNL     1      -5.076   9.901   6.763  0.00  0.00    +0.381 N 
ATOM     35  C   UNL     1      -4.668  11.148   6.066  0.00  0.00    -0.079 C 
ATOM     36  C   UNL     1      -3.938  11.950   7.172  0.00  0.00    -0.020 C 
ATOM     37  C   UNL     1      -4.773  11.635   8.435  0.00  0.00    -0.020 C 
ATOM     38  C   UNL     1      -5.503  10.317   8.116  0.00  0.00    -0.079 C 
ATOM     39  H   UNL     1      -4.256   9.169   6.806  0.00  0.00    -0.081 HD
ENDBRANCH  32  34
ENDBRANCH  31  32
ENDBRANCH  30  31
ENDBRANCH  28  30
ENDBRANCH  25  26
ENDBRANCH  24  25
ENDBRANCH  23  24
ENDBRANCH  10  23
TORSDOF 10
