REMARK  Name = ZINC39623479
REMARK  7 active torsions:
REMARK  status: ('A' for Active; 'I' for Inactive)
REMARK    1  A    between atoms: C_1  and  C_2
REMARK    2  A    between atoms: C_2  and  C_3
REMARK    3  A    between atoms: C_3  and  C_4
REMARK    4  A    between atoms: C_4  and  C_5
REMARK    5  A    between atoms: C_5  and  N_6
REMARK    6  A    between atoms: C_7  and  C_9
REMARK    7  A    between atoms: C_20  and  C_22
REMARK                            x       y       z     vdW  Elec       q    Type
REMARK                         _______ _______ _______ _____ _____    ______ ____
ROOT
ATOM      1  C   UNL     1       2.078  -6.153  -3.560  0.00  0.00    +0.100 C 
ATOM      2  C   UNL     1       0.639  -6.711  -3.498  0.00  0.00    +0.121 C 
ATOM      3  N   UNL     1       0.271  -6.956  -4.912  0.00  0.00    -0.297 N 
ATOM      4  C   UNL     1       1.508  -7.496  -5.527  0.00  0.00    +0.115 C 
ATOM      5  C   UNL     1       2.647  -6.673  -4.891  0.00  0.00    -0.004 C 
ATOM      6  C   UNL     1       3.861  -7.561  -4.636  0.00  0.00    -0.010 C 
ATOM      7  C   UNL     1       4.443  -8.019  -5.977  0.00  0.00    -0.082 C 
ATOM      8  N   UNL     1       4.827  -6.846  -6.772  0.00  0.00    +0.379 N 
ATOM      9  C   UNL     1       3.639  -6.047  -7.091  0.00  0.00    -0.082 C 
ATOM     10  C   UNL     1       3.022  -5.505  -5.798  0.00  0.00    -0.010 C 
ATOM     11  C   UNL     1      -0.919  -6.739  -5.506  0.00  0.00    +0.260 C 
ATOM     12  O   UNL     1      -1.065  -6.993  -6.683  0.00  0.00    -0.271 OA
ATOM     13  H   UNL     1       5.478  -6.283  -6.245  0.00  0.00    -0.086 HD
ATOM     14  H   UNL     1       5.266  -7.151  -7.628  0.00  0.00    -0.086 HD
ENDROOT
BRANCH  11  15
ATOM     15  C   UNL     1      -2.068  -6.180  -4.708  0.00  0.00    +0.296 C 
ATOM     16  C   UNL     1      -2.495  -7.192  -3.636  0.00  0.00    +0.283 C 
ATOM     17  O   UNL     1      -3.595  -6.636  -2.907  0.00  0.00    -0.484 OA
ATOM     18  C   UNL     1      -4.593  -6.073  -3.641  0.00  0.00    +0.162 A 
ATOM     19  C   UNL     1      -5.828  -5.848  -3.052  0.00  0.00    +0.049 A 
ATOM     20  C   UNL     1      -6.850  -5.273  -3.784  0.00  0.00    +0.004 A 
ATOM     21  C   UNL     1      -6.644  -4.921  -5.105  0.00  0.00    +0.004 A 
ATOM     22  C   UNL     1      -5.417  -5.144  -5.699  0.00  0.00    +0.049 A 
ATOM     23  C   UNL     1      -4.387  -5.721  -4.970  0.00  0.00    +0.163 A 
ATOM     24  O   UNL     1      -3.186  -5.941  -5.571  0.00  0.00    -0.473 OA
ENDBRANCH  11  15
BRANCH   1  26
ATOM     25  N   UNL     1       3.101  -3.961  -3.043  0.00  0.00    -0.315 N 
ATOM     26  C   UNL     1       2.058  -4.646  -3.552  0.00  0.00    +0.218 C 
ATOM     27  O   UNL     1       1.103  -4.050  -4.003  0.00  0.00    -0.275 OA
ATOM     28  H   UNL     1       3.865  -4.437  -2.683  0.00  0.00    +0.149 HD
BRANCH  25  29
ATOM     29  C   UNL     1       3.081  -2.496  -3.035  0.00  0.00    +0.104 C 
BRANCH  29  30
ATOM     30  C   UNL     1       4.375  -1.972  -2.409  0.00  0.00    +0.019 C 
BRANCH  30  31
ATOM     31  C   UNL     1       4.354  -0.442  -2.400  0.00  0.00    +0.001 C 
BRANCH  31  33
ATOM     32  C   UNL     1       5.627   1.612  -1.765  0.00  0.00    +0.004 C 
ATOM     33  C   UNL     1       5.648   0.082  -1.773  0.00  0.00    -0.003 C 
ENDBRANCH  31  33
ENDBRANCH  30  31
ENDBRANCH  29  30
ENDBRANCH  25  29
ENDBRANCH   1  26
TORSDOF 6
