REMARK  Name = ZINC49539593
REMARK  8 active torsions:
REMARK  status: ('A' for Active; 'I' for Inactive)
REMARK    1  A    between atoms: C_1  and  C_2
REMARK    2  A    between atoms: C_2  and  C_3
REMARK    3  A    between atoms: C_3  and  C_5
REMARK    4  A    between atoms: C_3  and  S_12
REMARK    5  A    between atoms: S_12  and  C_13
REMARK    6  A    between atoms: C_17  and  C_21
REMARK    7  A    between atoms: N_24  and  C_25
REMARK    8  A    between atoms: C_30  and  C_31
REMARK                            x       y       z     vdW  Elec       q    Type
REMARK                         _______ _______ _______ _____ _____    ______ ____
ROOT
ATOM      1  C   UNL     1      -2.584   1.521   1.679  0.00  0.00    +0.178 A 
ATOM      2  N   UNL     1      -2.187   2.198   0.626  0.00  0.00    -0.201 NA
ATOM      3  C   UNL     1      -2.406   3.525   0.531  0.00  0.00    +0.187 A 
ATOM      4  C   UNL     1      -3.104   4.190   1.645  0.00  0.00    +0.079 A 
ATOM      5  C   UNL     1      -3.202   5.522   1.310  0.00  0.00    +0.046 A 
ATOM      6  N   UNL     1      -2.628   5.685   0.110  0.00  0.00    -0.279 N 
ATOM      7  N   UNL     1      -2.144   4.458  -0.358  0.00  0.00    -0.153 NA
ATOM      8  H   UNL     1      -2.558   6.528  -0.364  0.00  0.00    +0.189 HD
ATOM      9  C   UNL     1      -3.842   6.603   2.142  0.00  0.00    +0.066 C 
ATOM     10  C   UNL     1      -3.509   3.361   2.777  0.00  0.00    +0.115 A 
ATOM     11  N   UNL     1      -4.166   3.902   3.858  0.00  0.00    -0.344 N 
ATOM     12  N   UNL     1      -3.226   2.059   2.722  0.00  0.00    -0.276 N 
ATOM     13  H   UNL     1      -4.367   4.850   3.878  0.00  0.00    +0.144 HD
ATOM     14  H   UNL     1      -4.427   3.335   4.600  0.00  0.00    +0.144 HD
ENDROOT
BRANCH  12  15
ATOM     15  C   UNL     1      -3.600   1.247   3.771  0.00  0.00    +0.054 A 
ATOM     16  C   UNL     1      -2.735   1.052   4.847  0.00  0.00    +0.046 A 
ATOM     17  C   UNL     1      -3.115   0.237   5.895  0.00  0.00    +0.043 A 
ATOM     18  C   UNL     1      -4.352  -0.385   5.878  0.00  0.00    +0.020 A 
ATOM     19  C   UNL     1      -5.213  -0.195   4.813  0.00  0.00    +0.007 A 
ATOM     20  C   UNL     1      -4.846   0.623   3.763  0.00  0.00    -0.026 A 
ATOM     21  C   UNL     1      -5.788   0.835   2.606  0.00  0.00    +0.046 C 
ATOM     22 CL   UNL     1      -2.040  -0.007   7.237  0.00  0.00    -0.083 Cl
ENDBRANCH  12  15
BRANCH   1  23
ATOM     23  S   UNL     1      -2.255  -0.210   1.718  0.00  0.00    -0.075 S 
BRANCH  23  24
ATOM     24  C   UNL     1      -1.531  -0.556   0.091  0.00  0.00    +0.140 C 
BRANCH  24  25
ATOM     25  C   UNL     1      -2.578  -0.366  -0.975  0.00  0.00    +0.229 C 
ATOM     26  O   UNL     1      -3.755  -0.391  -0.681  0.00  0.00    -0.274 OA
ATOM     27  N   UNL     1      -2.208  -0.168  -2.256  0.00  0.00    -0.301 N 
ATOM     28  C   UNL     1      -0.824  -0.121  -2.750  0.00  0.00    +0.108 C 
ATOM     29  C   UNL     1      -0.889   0.152  -4.268  0.00  0.00    +0.020 C 
ATOM     30  C   UNL     1      -2.284   0.806  -4.444  0.00  0.00    +0.020 C 
ATOM     31  C   UNL     1      -3.123   0.031  -3.394  0.00  0.00    +0.108 C 
ENDBRANCH  24  25
BRANCH  24  33
ATOM     32  C   UNL     1       0.139  -2.154   1.040  0.00  0.00    +0.005 C 
ATOM     33  C   UNL     1      -1.022  -1.998   0.056  0.00  0.00    +0.020 C 
ENDBRANCH  24  33
ENDBRANCH  23  24
ENDBRANCH   1  23
TORSDOF 5
