REMARK  Name = ZINC12539011
REMARK  7 active torsions:
REMARK  status: ('A' for Active; 'I' for Inactive)
REMARK    1  A    between atoms: N_13  and  C_14
REMARK    2  A    between atoms: C_14  and  C_15
REMARK    3  A    between atoms: C_15  and  C_17
REMARK    4  A    between atoms: C_15  and  O_34
REMARK    5  A    between atoms: C_17  and  N_18
REMARK    6  A    between atoms: C_21  and  C_26
REMARK    7  A    between atoms: C_26  and  C_27
REMARK                            x       y       z     vdW  Elec       q    Type
REMARK                         _______ _______ _______ _____ _____    ______ ____
ROOT
ATOM      1  C   UNL     1      -1.180   6.620   1.489  0.00  0.00    +0.152 C 
ENDROOT
BRANCH   1   2
ATOM      2  O   UNL     1      -0.036   7.200   2.120  0.00  0.00    -0.388 OA
ATOM      3  H   UNL     1       0.281   8.008   1.693  0.00  0.00    +0.210 HD
ENDBRANCH   1   2
BRANCH   1   4
ATOM      4  C   UNL     1      -0.837   6.262   0.041  0.00  0.00    +0.155 C 
BRANCH   4  17
ATOM      5  C   UNL     1      -0.013   1.076   0.008  0.00  0.00    +0.001 A 
ATOM      6  C   UNL     1      -1.224   1.750   0.017  0.00  0.00    +0.002 A 
ATOM      7  C   UNL     1      -1.259   3.128   0.030  0.00  0.00    +0.026 A 
ATOM      8  C   UNL     1      -0.073   3.855   0.022  0.00  0.00    +0.050 A 
ATOM      9  C   UNL     1       1.151   3.171   0.008  0.00  0.00    +0.008 A 
ATOM     10  C   UNL     1       1.173   1.779   0.000  0.00  0.00    +0.010 A 
ATOM     11  C   UNL     1       2.206   4.202   0.003  0.00  0.00    +0.008 A 
ATOM     12  C   UNL     1       3.598   4.148  -0.011  0.00  0.00    +0.010 A 
ATOM     13  C   UNL     1       4.328   5.316  -0.012  0.00  0.00    +0.001 A 
ATOM     14  C   UNL     1       3.683   6.543   0.000  0.00  0.00    +0.002 A 
ATOM     15  C   UNL     1       2.306   6.611   0.013  0.00  0.00    +0.026 A 
ATOM     16  C   UNL     1       1.551   5.442   0.015  0.00  0.00    +0.050 A 
ATOM     17  N   UNL     1       0.187   5.214   0.026  0.00  0.00    -0.337 N 
ENDBRANCH   4  17
ENDBRANCH   1   4
BRANCH   1  18
ATOM     18  C   UNL     1      -2.335   7.623   1.506  0.00  0.00    +0.151 C 
BRANCH  18  19
ATOM     19  N   UNL     1      -2.663   7.966   2.892  0.00  0.00    -0.222 N 
ATOM     20  C   UNL     1      -2.102   8.985   3.573  0.00  0.00    +0.244 C 
ATOM     21  O   UNL     1      -1.262   9.760   3.170  0.00  0.00    -0.273 OA
ATOM     22  C   UNL     1      -2.740   8.959   4.948  0.00  0.00    +0.170 C 
ATOM     23  N   UNL     1      -3.673   7.821   4.876  0.00  0.00    -0.287 N 
ATOM     24  C   UNL     1      -3.560   7.309   3.637  0.00  0.00    +0.309 C 
ATOM     25  O   UNL     1      -4.200   6.356   3.239  0.00  0.00    -0.252 OA
ATOM     26  H   UNL     1      -4.258   7.506   5.582  0.00  0.00    +0.151 HD
BRANCH  22  27
ATOM     27  C   UNL     1      -3.494  10.262   5.217  0.00  0.00    +0.127 C 
BRANCH  27  28
ATOM     28  C   UNL     1      -4.013  10.260   6.632  0.00  0.00    +0.218 C 
ATOM     29  O   UNL     1      -3.800   9.310   7.354  0.00  0.00    -0.276 OA
ATOM     30  N   UNL     1      -4.713  11.315   7.094  0.00  0.00    -0.301 N 
ATOM     31  C   UNL     1      -5.037  12.530   6.331  0.00  0.00    +0.108 C 
ATOM     32  C   UNL     1      -5.827  13.464   7.272  0.00  0.00    +0.020 C 
ATOM     33  C   UNL     1      -5.407  12.970   8.681  0.00  0.00    +0.020 C 
ATOM     34  C   UNL     1      -5.277  11.444   8.450  0.00  0.00    +0.108 C 
ENDBRANCH  27  28
ENDBRANCH  22  27
ENDBRANCH  18  19
ENDBRANCH   1  18
TORSDOF 7
