REMARK  Name = ZINC59950649
REMARK  8 active torsions:
REMARK  status: ('A' for Active; 'I' for Inactive)
REMARK    1  A    between atoms: C_1  and  C_2
REMARK    2  A    between atoms: C_3  and  C_14
REMARK    3  A    between atoms: C_4  and  C_13
REMARK    4  A    between atoms: C_9  and  S_11
REMARK    5  A    between atoms: S_11  and  C_12
REMARK    6  A    between atoms: C_14  and  C_15
REMARK    7  A    between atoms: N_17  and  C_18
REMARK    8  A    between atoms: C_25  and  C_28
REMARK                            x       y       z     vdW  Elec       q    Type
REMARK                         _______ _______ _______ _____ _____    ______ ____
ROOT
ATOM      1  C   UNL     1      -2.893   0.354   1.435  0.00  0.00    +0.222 C 
ATOM      2  O   UNL     1      -2.165   0.029   2.348  0.00  0.00    -0.275 OA
ATOM      3  N   UNL     1      -4.040   1.015   1.690  0.00  0.00    -0.285 N 
ATOM      4  H   UNL     1      -4.590   1.334   0.957  0.00  0.00    +0.155 HD
ENDROOT
BRANCH   3   5
ATOM      5  C   UNL     1      -4.438   1.242   3.014  0.00  0.00    +0.036 A 
ATOM      6  C   UNL     1      -3.478   1.494   3.992  0.00  0.00    +0.025 A 
ATOM      7  C   UNL     1      -3.856   1.719   5.298  0.00  0.00    +0.029 A 
ATOM      8  C   UNL     1      -5.200   1.696   5.645  0.00  0.00    +0.067 A 
ATOM      9  C   UNL     1      -6.175   1.442   4.664  0.00  0.00    +0.091 A 
ATOM     10  C   UNL     1      -5.780   1.220   3.341  0.00  0.00    +0.053 A 
ATOM     11  N   UNL     1      -7.383   1.479   5.279  0.00  0.00    -0.227 NA
ATOM     12  C   UNL     1      -7.220   1.735   6.558  0.00  0.00    +0.146 A 
ATOM     13  N   UNL     1      -5.885   1.877   6.834  0.00  0.00    -0.337 N 
ATOM     14  H   UNL     1      -5.493   2.069   7.700  0.00  0.00    +0.167 HD
BRANCH  12  15
ATOM     15  C   UNL     1      -8.305   1.851   7.543  0.00  0.00    +0.054 A 
ATOM     16  C   UNL     1      -9.669   1.717   7.357  0.00  0.00    +0.019 A 
ATOM     17  C   UNL     1     -10.495   1.871   8.444  0.00  0.00    +0.008 A 
ATOM     18  C   UNL     1      -9.952   2.147   9.659  0.00  0.00    +0.046 A 
ATOM     19  S   UNL     1      -8.206   2.192   9.292  0.00  0.00    -0.094 S 
ENDBRANCH  12  15
ENDBRANCH   3   5
BRANCH   1  20
ATOM     20  C   UNL     1      -2.517   0.019   0.014  0.00  0.00    +0.134 C 
BRANCH  20  23
ATOM     21  C   UNL     1      -0.011   1.501   0.028  0.00  0.00    +0.066 C 
ATOM     22  C   UNL     1       0.005  -0.006   0.010  0.00  0.00    +0.047 A 
ATOM     23  C   UNL     1      -1.201  -0.715   0.003  0.00  0.00    +0.004 A 
ATOM     24  C   UNL     1      -1.172  -2.073  -0.013  0.00  0.00    +0.049 A 
ATOM     25  N   UNL     1       0.029  -2.707  -0.022  0.00  0.00    -0.200 N 
ATOM     26  C   UNL     1       1.190  -1.985  -0.015  0.00  0.00    +0.254 A 
ATOM     27  N   UNL     1       1.152  -0.648  -0.004  0.00  0.00    -0.216 NA
ATOM     28  N   UNL     1       2.196  -2.852  -0.027  0.00  0.00    -0.183 NA
ATOM     29  C   UNL     1       1.719  -4.095  -0.041  0.00  0.00    +0.211 A 
ATOM     30  N   UNL     1       0.401  -4.058  -0.039  0.00  0.00    -0.137 NA
ATOM     31  C   UNL     1      -2.454  -2.865  -0.021  0.00  0.00    +0.066 C 
BRANCH  29  32
ATOM     32  S   UNL     1       2.696  -5.561  -0.061  0.00  0.00    -0.088 S 
ATOM     33  C   UNL     1       4.404  -4.949  -0.055  0.00  0.00    +0.093 C 
ENDBRANCH  29  32
ENDBRANCH  20  23
ENDBRANCH   1  20
TORSDOF 5
