REMARK  Name = ZINC63985829
REMARK  14 active torsions:
REMARK  status: ('A' for Active; 'I' for Inactive)
REMARK    1  A    between atoms: C_1  and  C_2
REMARK    2  A    between atoms: C_2  and  C_3
REMARK    3  A    between atoms: C_2  and  C_4
REMARK    4  A    between atoms: C_4  and  C_5
REMARK    5  A    between atoms: C_5  and  N_6
REMARK    6  A    between atoms: N_6  and  C_7
REMARK    7  A    between atoms: N_13  and  C_26
REMARK    8  A    between atoms: C_14  and  C_22
REMARK    9  A    between atoms: C_16  and  N_18
REMARK   10  A    between atoms: C_19  and  C_21
REMARK   11  A    between atoms: C_22  and  O_24
REMARK   12  A    between atoms: O_24  and  C_25
REMARK   13  A    between atoms: C_26  and  C_27
REMARK   14  A    between atoms: C_27  and  C_28
REMARK                            x       y       z     vdW  Elec       q    Type
REMARK                         _______ _______ _______ _____ _____    ______ ____
ROOT
ATOM      1  C   UNL     1      -4.354  -0.394  -2.365  0.00  0.00    +0.044 A 
ATOM      2  C   UNL     1      -5.667  -0.866  -2.366  0.00  0.00    +0.033 A 
ATOM      3  C   UNL     1      -6.461  -0.599  -3.465  0.00  0.00    +0.015 A 
ATOM      4  C   UNL     1      -5.949   0.123  -4.534  0.00  0.00    +0.105 A 
ATOM      5  N   UNL     1      -4.689   0.556  -4.492  0.00  0.00    -0.348 N 
ATOM      6  C   UNL     1      -3.904   0.326  -3.461  0.00  0.00    +0.107 A 
ATOM      7  N   UNL     1      -6.899   0.288  -5.540  0.00  0.00    -0.301 N 
ATOM      8  C   UNL     1      -8.158  -0.357  -5.158  0.00  0.00    +0.208 C 
ATOM      9  C   UNL     1      -7.896  -0.962  -3.769  0.00  0.00    +0.138 C 
ATOM     10  H   UNL     1      -4.341   1.059  -5.244  0.00  0.00    +0.167 HD
ENDROOT
BRANCH   9  11
ATOM     11  N   UNL     1      -8.795  -0.370  -2.775  0.00  0.00    -0.306 N 
ATOM     12  C   UNL     1      -9.050  -1.023  -1.624  0.00  0.00    +0.210 C 
ATOM     13  O   UNL     1      -8.536  -2.100  -1.411  0.00  0.00    -0.276 OA
ATOM     14  C   UNL     1      -9.976  -0.414  -0.602  0.00  0.00    +0.109 C 
ATOM     15  H   UNL     1      -9.207   0.491  -2.946  0.00  0.00    +0.149 HD
ENDBRANCH   9  11
BRANCH   1  16
ATOM     16  N   UNL     1      -3.510  -0.638  -1.275  0.00  0.00    -0.343 N 
ATOM     17  H   UNL     1      -3.834  -1.143  -0.513  0.00  0.00    +0.146 HD
BRANCH  16  18
ATOM     18  C   UNL     1      -2.135  -0.131  -1.286  0.00  0.00    +0.102 C 
BRANCH  18  19
ATOM     19  C   UNL     1      -1.433  -0.534   0.013  0.00  0.00    +0.021 C 
BRANCH  19  21
ATOM     20  C   UNL     1      -0.019   1.526   0.010  0.00  0.00    +0.007 C 
ATOM     21  C   UNL     1       0.002  -0.004   0.002  0.00  0.00    -0.016 C 
ATOM     22  C   UNL     1       0.742  -0.511   1.242  0.00  0.00    +0.007 C 
ENDBRANCH  19  21
ENDBRANCH  18  19
ENDBRANCH  16  18
ENDBRANCH   1  16
BRANCH   8  23
ATOM     23  C   UNL     1      -9.267   0.661  -5.087  0.00  0.00    +0.330 C 
ATOM     24  O   UNL     1      -9.002   1.836  -4.995  0.00  0.00    -0.249 OA
BRANCH  23  25
ATOM     25  O   UNL     1     -10.548   0.262  -5.125  0.00  0.00    -0.467 OA
ATOM     26  C   UNL     1     -11.547   1.281  -5.053  0.00  0.00    +0.280 C 
ENDBRANCH  23  25
ENDBRANCH   8  23
BRANCH   7  27
ATOM     27  C   UNL     1      -6.672   1.004  -6.798  0.00  0.00    +0.112 C 
BRANCH  27  28
ATOM     28  C   UNL     1      -6.151   0.026  -7.854  0.00  0.00    +0.052 C 
BRANCH  28  29
ATOM     29  C   UNL     1      -5.918   0.762  -9.148  0.00  0.00    -0.040 C 
ATOM     30  C   UNL     1      -4.750   1.286  -9.586  0.00  0.00    -0.001 A 
ATOM     31  C   UNL     1      -3.401   1.327  -9.011  0.00  0.00    +0.010 A 
ATOM     32  C   UNL     1      -2.411   1.938  -9.701  0.00  0.00    +0.001 A 
ATOM     33  C   UNL     1      -2.642   2.533 -10.949  0.00  0.00    +0.002 A 
ATOM     34  C   UNL     1      -3.855   2.536 -11.542  0.00  0.00    +0.026 A 
ATOM     35  C   UNL     1      -4.968   1.921 -10.906  0.00  0.00    +0.043 A 
ATOM     36  N   UNL     1      -6.221   1.795 -11.269  0.00  0.00    -0.380 N 
ATOM     37  C   UNL     1      -6.940   1.059 -10.223  0.00  0.00    +0.144 C 
ATOM     38  H   UNL     1      -6.608   2.128 -12.094  0.00  0.00    +0.160 HD
ENDBRANCH  28  29
ENDBRANCH  27  28
ENDBRANCH   7  27
TORSDOF 10
