REMARK  Name = ZINC08636046
REMARK  10 active torsions:
REMARK  status: ('A' for Active; 'I' for Inactive)
REMARK    1  A    between atoms: C_1  and  O_2
REMARK    2  A    between atoms: O_2  and  C_3
REMARK    3  A    between atoms: C_7  and  C_9
REMARK    4  A    between atoms: C_12  and  N_64
REMARK    5  A    between atoms: C_17  and  C_30
REMARK    6  A    between atoms: C_30  and  O_32
REMARK    7  A    between atoms: O_32  and  C_33
REMARK    8  A    between atoms: C_34  and  C_35
REMARK    9  A    between atoms: C_34  and  N_64
REMARK   10  A    between atoms: C_35  and  O_36
REMARK                            x       y       z     vdW  Elec       q    Type
REMARK                         _______ _______ _______ _____ _____    ______ ____
ROOT
ATOM      1  C   UNL     1      -0.650  -2.570  -1.497  0.00  0.00    -0.037 C 
ATOM      2  C   UNL     1      -0.554  -4.094  -1.612  0.00  0.00    -0.027 C 
ATOM      3  C   UNL     1       0.499  -4.614  -0.630  0.00  0.00    -0.074 C 
ATOM      4  C   UNL     1       0.132  -4.172   0.790  0.00  0.00    -0.025 C 
ATOM      5  C   UNL     1       0.028  -2.646   0.826  0.00  0.00    -0.020 C 
ATOM      6  C   UNL     1      -1.293  -0.775   0.010  0.00  0.00    +0.049 C 
ATOM      7  C   UNL     1      -2.033  -0.519   1.331  0.00  0.00    +0.033 C 
ATOM      8  C   UNL     1      -1.291  -1.232   2.433  0.00  0.00    -0.022 A 
ATOM      9  C   UNL     1      -0.362  -2.191   2.210  0.00  0.00    +0.007 A 
ATOM     10  N   UNL     1       0.129  -2.645   3.404  0.00  0.00    -0.359 N 
ATOM     11  H   UNL     1       0.804  -3.334   3.503  0.00  0.00    +0.166 HD
ATOM     12  C   UNL     1      -0.476  -1.984   4.434  0.00  0.00    +0.047 A 
ATOM     13  C   UNL     1      -1.396  -1.064   3.865  0.00  0.00    +0.003 A 
ATOM     14  C   UNL     1      -2.176  -0.228   4.669  0.00  0.00    +0.010 A 
ATOM     15  C   UNL     1      -2.011  -0.342   6.028  0.00  0.00    +0.001 A 
ATOM     16  C   UNL     1      -1.116  -1.238   6.588  0.00  0.00    +0.002 A 
ATOM     17  C   UNL     1      -0.331  -2.077   5.816  0.00  0.00    +0.026 A 
ATOM     18  N   UNL     1      -1.039  -2.232  -0.112  0.00  0.00    +0.399 N 
ATOM     19  H   UNL     1      -1.901  -2.737   0.123  0.00  0.00    -0.079 HD
ENDROOT
BRANCH   1  24
ATOM     20  C   UNL     1      -2.312  -1.046  -4.529  0.00  0.00    +0.120 A 
ATOM     21  C   UNL     1      -3.651  -1.123  -4.176  0.00  0.00    +0.045 A 
ATOM     22  C   UNL     1      -4.013  -1.667  -2.959  0.00  0.00    +0.004 A 
ATOM     23  C   UNL     1      -3.042  -2.135  -2.093  0.00  0.00    +0.002 A 
ATOM     24  C   UNL     1      -1.706  -2.059  -2.443  0.00  0.00    -0.057 A 
ATOM     25  C   UNL     1      -1.339  -1.511  -3.656  0.00  0.00    +0.047 A 
BRANCH  20  27
ATOM     26  C   UNL     1      -3.008  -0.047  -6.571  0.00  0.00    +0.277 C 
ATOM     27  O   UNL     1      -1.954  -0.510  -5.726  0.00  0.00    -0.495 OA
ENDBRANCH  20  27
ENDBRANCH   1  24
BRANCH   3  28
ATOM     28  N   UNL     1       1.819  -4.059  -0.985  0.00  0.00    +0.382 N 
ATOM     29  H   UNL     1       2.414  -4.039  -0.147  0.00  0.00    -0.085 HD
ATOM     30  H   UNL     1       1.700  -3.105  -1.343  0.00  0.00    -0.085 HD
BRANCH  28  31
ATOM     31  C   UNL     1       2.463  -4.891  -2.019  0.00  0.00    -0.054 C 
BRANCH  31  32
ATOM     32  C   UNL     1       3.828  -4.293  -2.365  0.00  0.00    +0.137 C 
BRANCH  32  33
ATOM     33  O   UNL     1       4.686  -4.370  -1.224  0.00  0.00    -0.397 OA
ATOM     34  H   UNL     1       5.570  -4.008  -1.371  0.00  0.00    +0.209 HD
ENDBRANCH  32  33
ENDBRANCH  31  32
ENDBRANCH  28  31
ENDBRANCH   3  28
BRANCH   6  35
ATOM     35  C   UNL     1       0.002  -0.004   0.002  0.00  0.00    +0.294 C 
ATOM     36  O   UNL     1       1.032  -0.557  -0.302  0.00  0.00    -0.253 OA
BRANCH  35  37
ATOM     37  O   UNL     1       0.011   1.297   0.333  0.00  0.00    -0.469 OA
ATOM     38  C   UNL     1       1.293   1.976   0.303  0.00  0.00    +0.280 C 
ENDBRANCH  35  37
ENDBRANCH   6  35
TORSDOF 8
