REMARK  Name = ZINC21186935
REMARK  7 active torsions:
REMARK  status: ('A' for Active; 'I' for Inactive)
REMARK    1  A    between atoms: C_1  and  C_2
REMARK    2  A    between atoms: C_3  and  C_21
REMARK    3  A    between atoms: C_4  and  C_11
REMARK    4  A    between atoms: N_9  and  C_10
REMARK    5  A    between atoms: C_16  and  O_17
REMARK    6  A    between atoms: O_17  and  C_18
REMARK    7  A    between atoms: N_23  and  C_24
REMARK                            x       y       z     vdW  Elec       q    Type
REMARK                         _______ _______ _______ _____ _____    ______ ____
ROOT
ATOM      1  C   UNL     1      -0.903   1.671   1.558  0.00  0.00    +0.061 C 
ATOM      2  C   UNL     1      -0.491   0.269   1.191  0.00  0.00    +0.019 C 
ATOM      3  C   UNL     1      -1.422  -0.601   0.743  0.00  0.00    +0.056 C 
ATOM      4  C   UNL     1      -0.965  -2.001   0.385  0.00  0.00    +0.143 C 
ATOM      5  N   UNL     1       0.467  -2.299   0.556  0.00  0.00    -0.315 N 
ATOM      6  C   UNL     1       1.275  -1.323   1.014  0.00  0.00    +0.137 C 
ATOM      7  S   UNL     1       2.942  -1.656   1.218  0.00  0.00    -0.018 S 
ATOM      8  N   UNL     1       0.818  -0.100   1.311  0.00  0.00    -0.289 N 
ATOM      9  C   UNL     1       1.776   0.896   1.798  0.00  0.00    +0.137 C 
ATOM     10  H   UNL     1       0.820  -3.178   0.343  0.00  0.00    +0.149 HD
ENDROOT
BRANCH   4  11
ATOM     11  C   UNL     1      -1.746  -2.974   1.229  0.00  0.00    +0.019 A 
ATOM     12  C   UNL     1      -2.330  -2.554   2.408  0.00  0.00    +0.009 A 
ATOM     13  C   UNL     1      -3.046  -3.446   3.184  0.00  0.00    +0.001 A 
ATOM     14  C   UNL     1      -3.180  -4.763   2.781  0.00  0.00    +0.004 A 
ATOM     15  C   UNL     1      -2.598  -5.188   1.603  0.00  0.00    +0.046 A 
ATOM     16  C   UNL     1      -1.883  -4.293   0.821  0.00  0.00    +0.132 A 
BRANCH  16  17
ATOM     17  O   UNL     1      -1.314  -4.708  -0.342  0.00  0.00    -0.434 OA
BRANCH  17  18
ATOM     18  C   UNL     1      -1.507  -6.076  -0.706  0.00  0.00    +0.541 C 
ATOM     19  F   UNL     1      -0.924  -6.902   0.262  0.00  0.00    -0.166 F 
ATOM     20  F   UNL     1      -2.876  -6.349  -0.789  0.00  0.00    -0.166 F 
ENDBRANCH  17  18
ENDBRANCH  16  17
ENDBRANCH   4  11
BRANCH   3  21
ATOM     21  C   UNL     1      -2.779  -0.218   0.614  0.00  0.00    +0.248 C 
ATOM     22  O   UNL     1      -3.143   0.877   1.004  0.00  0.00    -0.270 OA
ATOM     23  N   UNL     1      -3.668  -1.065   0.058  0.00  0.00    -0.282 N 
ATOM     24  H   UNL     1      -3.393  -1.960  -0.195  0.00  0.00    +0.155 HD
BRANCH  23  25
ATOM     25  C   UNL     1      -4.988  -0.654  -0.153  0.00  0.00    +0.034 A 
ATOM     26  C   UNL     1      -5.253   0.637  -0.592  0.00  0.00    +0.023 A 
ATOM     27  C   UNL     1      -6.558   1.040  -0.800  0.00  0.00    +0.002 A 
ATOM     28  C   UNL     1      -7.599   0.160  -0.571  0.00  0.00    +0.000 A 
ATOM     29  C   UNL     1      -7.339  -1.126  -0.134  0.00  0.00    +0.002 A 
ATOM     30  C   UNL     1      -6.036  -1.537   0.070  0.00  0.00    +0.023 A 
ENDBRANCH  23  25
ENDBRANCH   3  21
TORSDOF 5
