REMARK  Name = ZINC15071495
REMARK  6 active torsions:
REMARK  status: ('A' for Active; 'I' for Inactive)
REMARK    1  A    between atoms: C_4  and  C_7
REMARK    2  A    between atoms: C_7  and  C_12
REMARK    3  A    between atoms: C_12  and  N_63
REMARK    4  A    between atoms: C_13  and  N_63
REMARK    5  A    between atoms: N_24  and  C_27
REMARK    6  A    between atoms: C_27  and  C_28
REMARK                            x       y       z     vdW  Elec       q    Type
REMARK                         _______ _______ _______ _____ _____    ______ ____
ROOT
ATOM      1  C   UNL     1      -4.267   7.443   6.218  0.00  0.00    -0.067 C 
ATOM      2  C   UNL     1      -4.933   6.277   5.480  0.00  0.00    -0.011 C 
ATOM      3  C   UNL     1      -4.324   6.131   4.085  0.00  0.00    +0.035 C 
ATOM      4  C   UNL     1      -2.806   6.045   4.216  0.00  0.00    -0.023 A 
ATOM      5  C   UNL     1      -2.187   6.465   5.340  0.00  0.00    -0.006 A 
ATOM      6  S   UNL     1      -0.462   6.178   5.047  0.00  0.00    -0.073 S 
ATOM      7  C   UNL     1      -0.580   5.494   3.414  0.00  0.00    +0.116 A 
ATOM      8  C   UNL     1      -1.958   5.512   3.151  0.00  0.00    +0.076 A 
ATOM      9  C   UNL     1      -2.352   5.008   1.868  0.00  0.00    +0.263 A 
ATOM     10  O   UNL     1      -3.527   4.987   1.545  0.00  0.00    -0.267 OA
ATOM     11  N   UNL     1      -1.403   4.555   1.028  0.00  0.00    -0.293 N 
ATOM     12  C   UNL     1      -0.089   4.577   1.369  0.00  0.00    +0.203 A 
ATOM     13  N   UNL     1       0.301   5.034   2.529  0.00  0.00    -0.230 NA
ATOM     14  C   UNL     1      -2.824   7.046   6.564  0.00  0.00    +0.027 C 
ENDROOT
BRANCH   1  15
ATOM     15  N   UNL     1      -5.014   7.725   7.458  0.00  0.00    +0.382 N 
ATOM     16  H   UNL     1      -6.015   7.561   7.295  0.00  0.00    -0.085 HD
ATOM     17  H   UNL     1      -4.682   7.101   8.203  0.00  0.00    -0.085 HD
BRANCH  15  18
ATOM     18  C   UNL     1      -4.812   9.127   7.870  0.00  0.00    -0.071 C 
BRANCH  18  19
ATOM     19  C   UNL     1      -5.597   9.390   9.156  0.00  0.00    -0.019 C 
ATOM     20  C   UNL     1      -7.104   9.208   8.900  0.00  0.00    +0.010 C 
ATOM     21  C   UNL     1      -7.769  10.566   9.204  0.00  0.00    +0.001 C 
ATOM     22  C   UNL     1      -6.627  11.597   9.026  0.00  0.00    +0.001 C 
ATOM     23  C   UNL     1      -5.400  10.852   9.607  0.00  0.00    +0.010 C 
BRANCH  19  27
ATOM     24  C   UNL     1      -4.301   6.724  12.232  0.00  0.00    +0.000 A 
ATOM     25  C   UNL     1      -5.388   7.551  12.447  0.00  0.00    +0.000 A 
ATOM     26  C   UNL     1      -5.807   8.414  11.452  0.00  0.00    +0.004 A 
ATOM     27  C   UNL     1      -5.140   8.449  10.242  0.00  0.00    -0.043 A 
ATOM     28  C   UNL     1      -4.057   7.618  10.025  0.00  0.00    +0.004 A 
ATOM     29  C   UNL     1      -3.635   6.758  11.021  0.00  0.00    +0.000 A 
ENDBRANCH  19  27
ENDBRANCH  18  19
ENDBRANCH  15  18
ENDBRANCH   1  15
BRANCH  11  30
ATOM     30  C   UNL     1      -1.795   4.033  -0.283  0.00  0.00    +0.181 C 
BRANCH  30  31
ATOM     31  C   UNL     1      -2.052   2.552  -0.178  0.00  0.00    +0.061 A 
ATOM     32  C   UNL     1      -3.341   2.095   0.024  0.00  0.00    +0.025 A 
ATOM     33  C   UNL     1      -3.567   0.730   0.113  0.00  0.00    +0.003 A 
ATOM     34  C   UNL     1      -2.482  -0.127   0.006  0.00  0.00    +0.020 A 
ATOM     35  C   UNL     1      -1.222   0.403  -0.195  0.00  0.00    +0.111 A 
ATOM     36  N   UNL     1      -1.045   1.707  -0.280  0.00  0.00    -0.258 NA
ENDBRANCH  30  31
ENDBRANCH  11  30
TORSDOF 6
