REMARK  Name = ZINC40406299
REMARK  13 active torsions:
REMARK  status: ('A' for Active; 'I' for Inactive)
REMARK    1  A    between atoms: C_1  and  C_2
REMARK    2  A    between atoms: C_6  and  C_8
REMARK    3  A    between atoms: C_8  and  N_9
REMARK    4  A    between atoms: C_10  and  C_33
REMARK    5  A    between atoms: C_12  and  C_17
REMARK    6  A    between atoms: C_20  and  N_23
REMARK    7  A    between atoms: C_24  and  C_26
REMARK    8  A    between atoms: C_26  and  C_27
REMARK    9  A    between atoms: N_35  and  C_36
REMARK   10  A    between atoms: C_36  and  C_37
REMARK   11  A    between atoms: C_37  and  N_38
REMARK   12  A    between atoms: N_38  and  C_39
REMARK   13  A    between atoms: N_38  and  C_40
REMARK                            x       y       z     vdW  Elec       q    Type
REMARK                         _______ _______ _______ _____ _____    ______ ____
ROOT
ATOM      1  N   UNL     1       1.365  -3.339   2.712  0.00  0.00    -0.248 N 
ATOM      2  C   UNL     1       2.347  -4.417   2.485  0.00  0.00    +0.210 C 
ATOM      3  C   UNL     1       3.674  -3.746   2.914  0.00  0.00    +0.238 C 
ATOM      4  O   UNL     1       3.214  -2.722   3.817  0.00  0.00    -0.440 OA
ATOM      5  C   UNL     1       1.958  -2.395   3.467  0.00  0.00    +0.405 C 
ATOM      6  O   UNL     1       1.415  -1.360   3.799  0.00  0.00    -0.226 OA
ENDROOT
BRANCH   3   7
ATOM      7  C   UNL     1       4.380  -3.142   1.728  0.00  0.00    -0.005 A 
ATOM      8  C   UNL     1       4.052  -1.867   1.306  0.00  0.00    +0.009 A 
ATOM      9  C   UNL     1       4.697  -1.311   0.219  0.00  0.00    +0.024 A 
ATOM     10  C   UNL     1       5.677  -2.033  -0.450  0.00  0.00    +0.033 A 
ATOM     11  C   UNL     1       6.004  -3.313  -0.023  0.00  0.00    +0.024 A 
ATOM     12  C   UNL     1       5.359  -3.862   1.068  0.00  0.00    +0.009 A 
BRANCH  10  13
ATOM     13  N   UNL     1       6.332  -1.472  -1.552  0.00  0.00    -0.285 N 
ATOM     14  C   UNL     1       6.563  -0.145  -1.595  0.00  0.00    +0.222 C 
ATOM     15  O   UNL     1       6.290   0.549  -0.639  0.00  0.00    -0.275 OA
ATOM     16  H   UNL     1       6.620  -2.039  -2.284  0.00  0.00    +0.155 HD
BRANCH  14  17
ATOM     17  C   UNL     1       7.161   0.476  -2.831  0.00  0.00    +0.131 C 
BRANCH  17  18
ATOM     18  C   UNL     1       7.316   1.960  -2.623  0.00  0.00    -0.039 A 
ATOM     19  C   UNL     1       6.286   2.817  -2.964  0.00  0.00    +0.004 A 
ATOM     20  C   UNL     1       6.428   4.179  -2.773  0.00  0.00    +0.000 A 
ATOM     21  C   UNL     1       7.599   4.684  -2.240  0.00  0.00    +0.000 A 
ATOM     22  C   UNL     1       8.629   3.826  -1.898  0.00  0.00    +0.000 A 
ATOM     23  C   UNL     1       8.485   2.464  -2.085  0.00  0.00    +0.004 A 
ENDBRANCH  17  18
ENDBRANCH  14  17
ENDBRANCH  10  13
ENDBRANCH   3   7
BRANCH   2  24
ATOM     24  C   UNL     1       2.041  -5.612   3.350  0.00  0.00    +0.238 C 
ATOM     25  O   UNL     1       1.325  -5.491   4.321  0.00  0.00    -0.274 OA
ATOM     26  N   UNL     1       2.563  -6.817   3.045  0.00  0.00    -0.315 N 
ATOM     27  H   UNL     1       3.136  -6.914   2.268  0.00  0.00    +0.149 HD
BRANCH  26  28
ATOM     28  C   UNL     1       2.265  -7.979   3.885  0.00  0.00    +0.085 C 
BRANCH  28  29
ATOM     29  C   UNL     1       2.976  -9.211   3.322  0.00  0.00    -0.061 C 
BRANCH  29  30
ATOM     30  N   UNL     1       2.677 -10.377   4.165  0.00  0.00    +0.377 N 
ATOM     31  C   UNL     1       3.260 -11.582   3.560  0.00  0.00    -0.097 C 
ATOM     32  C   UNL     1       3.252 -10.174   5.502  0.00  0.00    -0.097 C 
ATOM     33  H   UNL     1       1.677 -10.489   4.242  0.00  0.00    -0.083 HD
ENDBRANCH  29  30
ENDBRANCH  28  29
ENDBRANCH  26  28
ENDBRANCH   2  24
BRANCH   1  34
ATOM     34  C   UNL     1      -0.008  -3.300   2.201  0.00  0.00    +0.147 C 
BRANCH  34  40
ATOM     35  C   UNL     1      -0.401   0.841  -0.582  0.00  0.00    +0.044 C 
ATOM     36  C   UNL     1      -0.211  -0.651  -0.481  0.00  0.00    -0.050 A 
ATOM     37  C   UNL     1      -0.052  -1.407  -1.627  0.00  0.00    +0.003 A 
ATOM     38  C   UNL     1       0.122  -2.775  -1.535  0.00  0.00    +0.001 A 
ATOM     39  C   UNL     1       0.136  -3.387  -0.296  0.00  0.00    +0.005 A 
ATOM     40  C   UNL     1      -0.023  -2.632   0.851  0.00  0.00    -0.030 A 
ATOM     41  C   UNL     1      -0.192  -1.263   0.758  0.00  0.00    +0.008 A 
ENDBRANCH  34  40
ENDBRANCH   1  34
TORSDOF 10
