REMARK  Name = ZINC39665430
REMARK  9 active torsions:
REMARK  status: ('A' for Active; 'I' for Inactive)
REMARK    1  A    between atoms: C_1  and  C_2
REMARK    2  A    between atoms: C_5  and  C_12
REMARK    3  A    between atoms: N_9  and  C_11
REMARK    4  A    between atoms: C_16  and  C_25
REMARK    5  A    between atoms: N_27  and  C_28
REMARK    6  A    between atoms: C_28  and  C_29
REMARK    7  A    between atoms: C_29  and  C_31
REMARK    8  A    between atoms: C_29  and  O_32
REMARK    9  A    between atoms: O_32  and  C_33
REMARK                            x       y       z     vdW  Elec       q    Type
REMARK                         _______ _______ _______ _____ _____    ______ ____
ROOT
ATOM      1  C   UNL     1       0.942  -2.300  -3.822  0.00  0.00    +0.250 C 
ATOM      2  O   UNL     1       0.993  -1.120  -4.111  0.00  0.00    -0.270 OA
ATOM      3  N   UNL     1       0.935  -3.232  -4.795  0.00  0.00    -0.296 N 
ATOM      4  C   UNL     1       0.773  -4.698  -4.648  0.00  0.00    +0.121 C 
ATOM      5  C   UNL     1      -0.119  -5.114  -5.839  0.00  0.00    +0.100 C 
ATOM      6  C   UNL     1       0.093  -4.012  -6.891  0.00  0.00    -0.004 C 
ATOM      7  C   UNL     1       1.080  -3.022  -6.256  0.00  0.00    +0.115 C 
ATOM      8  C   UNL     1       0.685  -4.606  -8.166  0.00  0.00    -0.010 C 
ATOM      9  C   UNL     1       0.832  -3.502  -9.217  0.00  0.00    -0.082 C 
ATOM     10  N   UNL     1      -0.482  -2.909  -9.494  0.00  0.00    +0.379 N 
ATOM     11  C   UNL     1      -1.003  -2.259  -8.285  0.00  0.00    -0.082 C 
ATOM     12  C   UNL     1      -1.228  -3.311  -7.195  0.00  0.00    -0.010 C 
ATOM     13  H   UNL     1      -0.392  -2.224 -10.230  0.00  0.00    -0.086 HD
ATOM     14  H   UNL     1      -1.121  -3.633  -9.787  0.00  0.00    -0.086 HD
ENDROOT
BRANCH   1  19
ATOM     15  C   UNL     1      -1.266  -0.626   1.219  0.00  0.00    +0.068 C 
ATOM     16  C   UNL     1      -0.434  -1.876   1.084  0.00  0.00    +0.071 A 
ATOM     17  C   UNL     1       0.168  -2.382  -0.145  0.00  0.00    +0.060 A 
ATOM     18  C   UNL     1       0.185  -1.944  -1.473  0.00  0.00    +0.067 A 
ATOM     19  C   UNL     1       0.887  -2.711  -2.406  0.00  0.00    +0.074 A 
ATOM     20  C   UNL     1       1.539  -3.876  -1.980  0.00  0.00    +0.127 A 
ATOM     21  N   UNL     1       1.503  -4.259  -0.725  0.00  0.00    -0.235 NA
ATOM     22  C   UNL     1       0.849  -3.566   0.203  0.00  0.00    +0.160 A 
ATOM     23  N   UNL     1       0.661  -3.744   1.544  0.00  0.00    -0.249 N 
ATOM     24  N   UNL     1      -0.117  -2.696   2.044  0.00  0.00    -0.174 NA
ATOM     25  C   UNL     1       1.196  -4.855   2.335  0.00  0.00    +0.174 C 
ATOM     26 CL   UNL     1      -0.640  -0.492  -1.947  0.00  0.00    -0.082 Cl
ENDBRANCH   1  19
BRANCH   5  27
ATOM     27  C   UNL     1       0.319  -6.451  -6.380  0.00  0.00    +0.218 C 
ATOM     28  O   UNL     1       1.472  -6.805  -6.260  0.00  0.00    -0.275 OA
ATOM     29  N   UNL     1      -0.572  -7.252  -6.998  0.00  0.00    -0.312 N 
ATOM     30  H   UNL     1      -1.494  -6.968  -7.094  0.00  0.00    +0.149 HD
BRANCH  29  31
ATOM     31  C   UNL     1      -0.146  -8.551  -7.524  0.00  0.00    +0.148 C 
BRANCH  31  32
ATOM     32  C   UNL     1      -1.340  -9.255  -8.171  0.00  0.00    +0.187 C 
ATOM     33  C   UNL     1      -0.896 -10.613  -8.720  0.00  0.00    +0.053 C 
BRANCH  32  34
ATOM     34  O   UNL     1      -2.365  -9.449  -7.195  0.00  0.00    -0.488 OA
BRANCH  34  35
ATOM     35  C   UNL     1      -3.639  -9.568  -7.653  0.00  0.00    +0.121 A 
ATOM     36  C   UNL     1      -4.696  -9.636  -6.757  0.00  0.00    +0.045 A 
ATOM     37  C   UNL     1      -5.990  -9.756  -7.225  0.00  0.00    +0.004 A 
ATOM     38  C   UNL     1      -6.232  -9.809  -8.585  0.00  0.00    +0.000 A 
ATOM     39  C   UNL     1      -5.181  -9.742  -9.480  0.00  0.00    +0.004 A 
ATOM     40  C   UNL     1      -3.885  -9.616  -9.017  0.00  0.00    +0.045 A 
ENDBRANCH  34  35
ENDBRANCH  32  34
ENDBRANCH  31  32
ENDBRANCH  29  31
ENDBRANCH   5  27
TORSDOF 6
