REMARK  Name = ZINC09384341
REMARK  5 active torsions:
REMARK  status: ('A' for Active; 'I' for Inactive)
REMARK    1  A    between atoms: C_1  and  O_2
REMARK    2  A    between atoms: O_2  and  C_3
REMARK    3  A    between atoms: C_6  and  C_8
REMARK    4  A    between atoms: C_12  and  N_13
REMARK    5  A    between atoms: C_14  and  C_16
REMARK                            x       y       z     vdW  Elec       q    Type
REMARK                         _______ _______ _______ _____ _____    ______ ____
ROOT
ATOM      1  N   UNL     1       1.143   1.902   0.001  0.00  0.00    -0.275 N 
ATOM      2  C   UNL     1      -0.014   1.212   0.009  0.00  0.00    +0.256 C 
ATOM      3  O   UNL     1       0.002  -0.004   0.002  0.00  0.00    -0.270 OA
ATOM      4  H   UNL     1       1.130   2.872   0.007  0.00  0.00    +0.156 HD
ENDROOT
BRANCH   2   5
ATOM      5  C   UNL     1      -1.298   1.930   0.019  0.00  0.00    +0.122 A 
ATOM      6  C   UNL     1      -1.334   3.320   0.032  0.00  0.00    +0.032 A 
ATOM      7  C   UNL     1      -2.586   3.963   0.036  0.00  0.00    +0.026 A 
ATOM      8  C   UNL     1      -2.672   5.426   0.045  0.00  0.00    -0.007 A 
ATOM      9  C   UNL     1      -1.526   6.226   0.044  0.00  0.00    +0.009 A 
ATOM     10  C   UNL     1      -1.651   7.585   0.052  0.00  0.00    +0.001 A 
ATOM     11  C   UNL     1      -2.906   8.186   0.061  0.00  0.00    +0.001 A 
ATOM     12  C   UNL     1      -4.043   7.434   0.062  0.00  0.00    +0.008 A 
ATOM     13  C   UNL     1      -3.950   6.033   0.054  0.00  0.00    -0.017 A 
ATOM     14  C   UNL     1      -5.102   5.223   0.056  0.00  0.00    +0.012 A 
ATOM     15  C   UNL     1      -5.008   3.870   0.047  0.00  0.00    +0.047 A 
ATOM     16  C   UNL     1      -3.771   3.214   0.038  0.00  0.00    +0.140 A 
ATOM     17  O   UNL     1      -3.731   1.865   0.030  0.00  0.00    -0.422 OA
ATOM     18  C   UNL     1      -2.567   1.196   0.021  0.00  0.00    +0.350 A 
ATOM     19  O   UNL     1      -2.565  -0.021   0.014  0.00  0.00    -0.244 OA
ENDBRANCH   2   5
BRANCH   1  24
ATOM     20  C   UNL     1       3.638   1.756  -0.029  0.00  0.00    +0.066 A 
ATOM     21  C   UNL     1       4.729   0.809  -0.040  0.00  0.00    +0.022 A 
ATOM     22  C   UNL     1       4.409  -0.497  -0.044  0.00  0.00    +0.048 A 
ATOM     23  S   UNL     1       2.628  -0.483  -0.026  0.00  0.00    -0.081 S 
ATOM     24  C   UNL     1       2.352   1.226  -0.014  0.00  0.00    +0.084 A 
BRANCH  20  28
ATOM     25  C   UNL     1       5.353   5.008  -0.045  0.00  0.00    +0.407 C 
ATOM     26  O   UNL     1       4.413   5.777  -0.033  0.00  0.00    -0.226 OA
ATOM     27  N   UNL     1       5.135   3.678  -0.045  0.00  0.00    -0.217 N 
ATOM     28  C   UNL     1       3.875   3.201  -0.030  0.00  0.00    +0.255 C 
ATOM     29  O   UNL     1       2.933   3.971  -0.017  0.00  0.00    -0.270 OA
ATOM     30  H   UNL     1       5.886   3.064  -0.055  0.00  0.00    +0.161 HD
BRANCH  25  32
ATOM     31  C   UNL     1       6.771   6.927  -0.060  0.00  0.00    +0.282 C 
ATOM     32  O   UNL     1       6.612   5.484  -0.060  0.00  0.00    -0.453 OA
ENDBRANCH  25  32
ENDBRANCH  20  28
ENDBRANCH   1  24
TORSDOF 4
