REMARK  Name = ZINC33437129
REMARK  8 active torsions:
REMARK  status: ('A' for Active; 'I' for Inactive)
REMARK    1  A    between atoms: C_1  and  C_2
REMARK    2  A    between atoms: C_2  and  C_33
REMARK    3  A    between atoms: C_3  and  C_29
REMARK    4  A    between atoms: C_5  and  C_7
REMARK    5  A    between atoms: N_9  and  C_10
REMARK    6  A    between atoms: C_11  and  C_19
REMARK    7  A    between atoms: N_21  and  C_22
REMARK    8  A    between atoms: C_22  and  C_23
REMARK                            x       y       z     vdW  Elec       q    Type
REMARK                         _______ _______ _______ _____ _____    ______ ____
ROOT
ATOM      1  C   UNL     1       1.872   2.330   1.183  0.00  0.00    +0.084 A 
ATOM      2  C   UNL     1       1.245   1.963   0.001  0.00  0.00    +0.069 A 
ATOM      3  C   UNL     1       1.881   2.356  -1.246  0.00  0.00    -0.023 A 
ATOM      4  C   UNL     1       3.036   3.042  -1.111  0.00  0.00    -0.004 A 
ATOM      5  S   UNL     1       3.285   3.171   0.637  0.00  0.00    -0.077 S 
ATOM      6  C   UNL     1       3.906   3.570  -2.210  0.00  0.00    +0.043 C 
ATOM      7  C   UNL     1       3.488   2.896  -3.524  0.00  0.00    +0.005 C 
ATOM      8  C   UNL     1       1.964   2.963  -3.651  0.00  0.00    +0.005 C 
ATOM      9  C   UNL     1       1.315   2.035  -2.623  0.00  0.00    +0.037 C 
ENDROOT
BRANCH   1  12
ATOM     10  C   UNL     1       2.213   2.521   3.519  0.00  0.00    +0.222 C 
ATOM     11  O   UNL     1       3.239   3.133   3.309  0.00  0.00    -0.275 OA
ATOM     12  N   UNL     1       1.466   2.082   2.486  0.00  0.00    -0.279 N 
ATOM     13  H   UNL     1       0.536   1.528   2.676  0.00  0.00    +0.155 HD
BRANCH  10  17
ATOM     14  C   UNL     1       2.768   1.926   7.332  0.00  0.00    +0.012 C 
ATOM     15  C   UNL     1       2.662   2.775   6.063  0.00  0.00    -0.016 C 
ATOM     16  C   UNL     1       1.319   3.448   5.774  0.00  0.00    +0.033 C 
ATOM     17  C   UNL     1       1.772   2.252   4.935  0.00  0.00    +0.089 C 
ATOM     18  C   UNL     1       3.932   3.532   5.668  0.00  0.00    +0.012 C 
BRANCH  16  19
ATOM     19  C   UNL     1       1.348   4.806   5.121  0.00  0.00    +0.010 C 
ATOM     20  C   UNL     1       0.815   5.840   5.731  0.00  0.00    +0.103 C 
ATOM     21 CL   UNL     1       0.076   5.641   7.289  0.00  0.00    -0.071 Cl
ATOM     22 CL   UNL     1       0.848   7.404   4.979  0.00  0.00    -0.071 Cl
ENDBRANCH  16  19
ENDBRANCH  10  17
ENDBRANCH   1  12
BRANCH   2  23
ATOM     23  C   UNL     1      -0.014   1.213   0.009  0.00  0.00    +0.247 C 
ATOM     24  O   UNL     1       0.002  -0.004   0.002  0.00  0.00    -0.270 OA
ATOM     25  N   UNL     1      -1.191   1.871   0.018  0.00  0.00    -0.307 N 
ATOM     26  H   UNL     1      -1.206   2.971   0.024  0.00  0.00    +0.149 HD
BRANCH  25  27
ATOM     27  C   UNL     1      -2.449   1.121   0.020  0.00  0.00    +0.141 C 
BRANCH  27  28
ATOM     28  C   UNL     1      -3.608   2.085   0.030  0.00  0.00    -0.012 A 
ATOM     29  C   UNL     1      -4.153   2.540  -1.160  0.00  0.00    +0.008 A 
ATOM     30  C   UNL     1      -5.218   3.426  -1.102  0.00  0.00    +0.020 A 
ATOM     31  C   UNL     1      -5.698   3.823   0.132  0.00  0.00    +0.111 A 
ATOM     32  N   UNL     1      -5.154   3.369   1.244  0.00  0.00    -0.263 NA
ATOM     33  C   UNL     1      -4.144   2.521   1.227  0.00  0.00    +0.115 A 
ENDBRANCH  27  28
ENDBRANCH  25  27
ENDBRANCH   2  23
TORSDOF 6
