REMARK  Name = ZINC25174354
REMARK  4 active torsions:
REMARK  status: ('A' for Active; 'I' for Inactive)
REMARK    1  A    between atoms: C_6  and  C_7
REMARK    2  A    between atoms: N_9  and  C_10
REMARK    3  A    between atoms: C_10  and  C_11
REMARK    4  A    between atoms: C_11  and  N_17
REMARK                            x       y       z     vdW  Elec       q    Type
REMARK                         _______ _______ _______ _____ _____    ______ ____
ROOT
ATOM      1  C   UNL     1      -3.044  -2.711  -1.481  0.00  0.00    +0.244 C 
ATOM      2  O   UNL     1      -2.115  -2.923  -0.726  0.00  0.00    -0.270 OA
ATOM      3  N   UNL     1      -3.922  -1.725  -1.209  0.00  0.00    -0.313 N 
ATOM      4  H   UNL     1      -4.663  -1.555  -1.811  0.00  0.00    +0.149 HD
ENDROOT
BRANCH   1  10
ATOM      5  C   UNL     1      -4.277  -3.288  -3.564  0.00  0.00    +0.015 A 
ATOM      6  C   UNL     1      -4.432  -4.054  -4.700  0.00  0.00    +0.028 A 
ATOM      7  C   UNL     1      -3.528  -5.069  -4.982  0.00  0.00    +0.076 A 
ATOM      8  C   UNL     1      -2.459  -5.318  -4.117  0.00  0.00    +0.143 A 
ATOM      9  C   UNL     1      -2.299  -4.554  -2.980  0.00  0.00    +0.060 A 
ATOM     10  C   UNL     1      -3.210  -3.532  -2.696  0.00  0.00    +0.040 A 
ATOM     11  O   UNL     1      -1.584  -6.318  -4.407  0.00  0.00    -0.481 OA
ATOM     12  C   UNL     1      -2.116  -7.461  -5.082  0.00  0.00    +0.325 C 
ATOM     13  C   UNL     1      -2.990  -7.012  -6.225  0.00  0.00    +0.255 C 
ATOM     14  O   UNL     1      -3.080  -7.692  -7.225  0.00  0.00    -0.272 OA
ATOM     15  N   UNL     1      -3.674  -5.851  -6.131  0.00  0.00    -0.280 N 
ATOM     16  H   UNL     1      -4.257  -5.564  -6.850  0.00  0.00    +0.155 HD
ENDBRANCH   1  10
BRANCH   3  17
ATOM     17  C   UNL     1      -3.758  -0.910  -0.003  0.00  0.00    +0.092 C 
BRANCH  17  18
ATOM     18  C   UNL     1      -4.800   0.210   0.003  0.00  0.00    -0.050 C 
ATOM     19  C   UNL     1      -4.545   1.139   1.191  0.00  0.00    -0.010 C 
ATOM     20  C   UNL     1      -4.647   0.341   2.493  0.00  0.00    -0.001 C 
ATOM     21  C   UNL     1      -6.047  -0.266   2.611  0.00  0.00    -0.000 C 
ATOM     22  C   UNL     1      -6.302  -1.195   1.422  0.00  0.00    -0.001 C 
ATOM     23  C   UNL     1      -6.200  -0.397   0.120  0.00  0.00    -0.010 C 
BRANCH  18  24
ATOM     24  N   UNL     1      -4.702   0.976  -1.247  0.00  0.00    +0.384 N 
ATOM     25  C   UNL     1      -3.346   1.521  -1.380  0.00  0.00    -0.078 C 
ATOM     26  C   UNL     1      -3.215   2.252  -2.718  0.00  0.00    -0.019 C 
ATOM     27  C   UNL     1      -4.234   3.394  -2.772  0.00  0.00    -0.004 C 
ATOM     28  C   UNL     1      -5.639   2.822  -2.558  0.00  0.00    -0.019 C 
ATOM     29  C   UNL     1      -5.680   2.071  -1.226  0.00  0.00    -0.078 C 
ATOM     30  H   UNL     1      -4.896   0.368  -2.029  0.00  0.00    -0.081 HD
ENDBRANCH  18  24
ENDBRANCH  17  18
ENDBRANCH   3  17
TORSDOF 4
