REMARK  Name = ZINC38980329
REMARK  8 active torsions:
REMARK  status: ('A' for Active; 'I' for Inactive)
REMARK    1  A    between atoms: C_1  and  C_2
REMARK    2  A    between atoms: C_2  and  N_3
REMARK    3  A    between atoms: N_3  and  C_4
REMARK    4  A    between atoms: N_3  and  C_6
REMARK    5  A    between atoms: C_4  and  C_5
REMARK    6  A    between atoms: C_9  and  C_12
REMARK    7  A    between atoms: N_13  and  N_14
REMARK    8  A    between atoms: C_15  and  C_21
REMARK                            x       y       z     vdW  Elec       q    Type
REMARK                         _______ _______ _______ _____ _____    ______ ____
ROOT
ATOM      1  N   UNL     1       8.272  -2.103   1.964  0.00  0.00    -0.175 N 
ATOM      2  C   UNL     1       9.158  -1.896   0.806  0.00  0.00    +0.230 C 
ATOM      3  N   UNL     1      10.465  -2.397   1.266  0.00  0.00    -0.242 N 
ATOM      4  N   UNL     1      10.272  -2.838   2.581  0.00  0.00    -0.160 NA
ATOM      5  C   UNL     1       9.051  -2.665   2.962  0.00  0.00    +0.206 C 
ATOM      6  S   UNL     1       8.446  -3.097   4.559  0.00  0.00    -0.011 SA
ATOM      7  H   UNL     1      11.292  -2.417   0.760  0.00  0.00    +0.170 HD
ENDROOT
BRANCH   2   8
ATOM      8  C   UNL     1       9.243  -0.409   0.455  0.00  0.00    +0.197 C 
ATOM      9  C   UNL     1      10.105  -0.196  -0.773  0.00  0.00    -0.017 C 
ATOM     10  C   UNL     1      11.117   0.559  -0.350  0.00  0.00    +0.065 C 
ATOM     11  C   UNL     1      12.062   0.846  -1.503  0.00  0.00    +0.057 C 
ATOM     12  C   UNL     1      11.705  -0.197  -2.585  0.00  0.00    +0.011 C 
ATOM     13  C   UNL     1      10.232  -0.514  -2.240  0.00  0.00    +0.035 C 
ATOM     14  N   UNL     1      10.974   0.825   0.977  0.00  0.00    -0.158 NA
ATOM     15  N   UNL     1       9.968   0.334   1.500  0.00  0.00    -0.176 NA
ENDBRANCH   2   8
BRANCH   1  17
ATOM     16  C   UNL     1       6.280  -1.361   0.989  0.00  0.00    +0.138 C 
ATOM     17  N   UNL     1       6.909  -1.789   2.042  0.00  0.00    -0.184 NA
BRANCH  16  21
ATOM     18  C   UNL     1       2.246  -0.074   1.304  0.00  0.00    +0.030 A 
ATOM     19  C   UNL     1       2.892  -0.037   0.073  0.00  0.00    +0.024 A 
ATOM     20  C   UNL     1       4.201  -0.453  -0.033  0.00  0.00    +0.011 A 
ATOM     21  C   UNL     1       4.880  -0.914   1.099  0.00  0.00    -0.005 A 
ATOM     22  C   UNL     1       4.227  -0.951   2.334  0.00  0.00    +0.011 A 
ATOM     23  C   UNL     1       2.920  -0.527   2.433  0.00  0.00    +0.024 A 
BRANCH  18  24
ATOM     24  N   UNL     1       0.920   0.348   1.407  0.00  0.00    -0.330 N 
BRANCH  24  26
ATOM     25  C   UNL     1       0.410   2.335   0.075  0.00  0.00    +0.024 C 
ATOM     26  C   UNL     1       0.209   0.825   0.219  0.00  0.00    +0.102 C 
ENDBRANCH  24  26
BRANCH  24  27
ATOM     27  C   UNL     1       0.240   0.315   2.704  0.00  0.00    +0.102 C 
ATOM     28  C   UNL     1      -0.447  -1.040   2.885  0.00  0.00    +0.024 C 
ENDBRANCH  24  27
ENDBRANCH  18  24
ENDBRANCH  16  21
ENDBRANCH   1  17
TORSDOF 6
