REMARK  Name = ZINC37637649
REMARK  5 active torsions:
REMARK  status: ('A' for Active; 'I' for Inactive)
REMARK    1  A    between atoms: C_1  and  C_2
REMARK    2  A    between atoms: C_2  and  N_3
REMARK    3  A    between atoms: N_3  and  C_4
REMARK    4  A    between atoms: C_4  and  C_5
REMARK    5  A    between atoms: C_15  and  C_17
REMARK                            x       y       z     vdW  Elec       q    Type
REMARK                         _______ _______ _______ _____ _____    ______ ____
ROOT
ATOM      1  N   UNL     1       0.688  -0.476  -1.203  0.00  0.00    -0.314 N 
ATOM      2  C   UNL     1      -0.032  -0.749  -2.356  0.00  0.00    +0.151 A 
ATOM      3  C   UNL     1       0.611  -1.205  -3.507  0.00  0.00    +0.127 A 
ATOM      4  C   UNL     1      -0.161  -1.467  -4.651  0.00  0.00    +0.184 A 
ATOM      5  N   UNL     1       0.687  -1.888  -5.608  0.00  0.00    -0.198 NA
ATOM      6  H   UNL     1       2.694  -1.413  -3.279  0.00  0.00    +0.168 HD
ATOM      7  C   UNL     1       1.907  -1.903  -5.142  0.00  0.00    +0.203 A 
ATOM      8  N   UNL     1       1.916  -1.491  -3.853  0.00  0.00    -0.325 N 
ATOM      9 CL   UNL     1       3.311  -2.382  -6.044  0.00  0.00    -0.043 Cl
ATOM     10  N   UNL     1      -1.482  -1.270  -4.591  0.00  0.00    -0.211 NA
ATOM     11  C   UNL     1      -2.045  -0.839  -3.484  0.00  0.00    +0.131 A 
ATOM     12  N   UNL     1      -1.352  -0.586  -2.388  0.00  0.00    -0.215 NA
ATOM     13  C   UNL     1      -3.537  -0.630  -3.462  0.00  0.00    +0.088 C 
ENDROOT
BRANCH   1  15
ATOM     14  C   UNL     1       2.585  -2.004  -0.983  0.00  0.00    +0.024 C 
ATOM     15  C   UNL     1       2.151  -0.556  -1.217  0.00  0.00    +0.103 C 
ENDBRANCH   1  15
BRANCH   1  16
ATOM     16  C   UNL     1      -0.014  -0.110   0.029  0.00  0.00    +0.103 C 
ATOM     17  C   UNL     1      -0.146   1.413   0.107  0.00  0.00    +0.024 C 
ENDBRANCH   1  16
TORSDOF 2
