REMARK  Name = ZINC61687520
REMARK  10 active torsions:
REMARK  status: ('A' for Active; 'I' for Inactive)
REMARK    1  A    between atoms: C_1  and  C_2
REMARK    2  A    between atoms: C_3  and  C_9
REMARK    3  A    between atoms: C_4  and  C_8
REMARK    4  A    between atoms: N_5  and  C_7
REMARK    5  A    between atoms: C_11  and  C_20
REMARK    6  A    between atoms: C_12  and  C_17
REMARK    7  A    between atoms: C_13  and  N_15
REMARK    8  A    between atoms: N_15  and  C_16
REMARK    9  A    between atoms: C_17  and  C_18
REMARK   10  A    between atoms: C_17  and  C_19
REMARK                            x       y       z     vdW  Elec       q    Type
REMARK                         _______ _______ _______ _____ _____    ______ ____
ROOT
ATOM      1  C   UNL     1      -0.334  -0.625  -2.643  0.00  0.00    +0.165 A 
ATOM      2  N   UNL     1      -0.221   0.681  -2.849  0.00  0.00    -0.232 NA
ATOM      3  C   UNL     1       0.035   1.159  -4.057  0.00  0.00    +0.047 A 
ATOM      4  C   UNL     1       0.187   0.281  -5.114  0.00  0.00    +0.016 A 
ATOM      5  C   UNL     1       0.063  -1.088  -4.867  0.00  0.00    +0.126 A 
ATOM      6  N   UNL     1      -0.190  -1.500  -3.629  0.00  0.00    -0.212 NA
ATOM      7  C   UNL     1       0.160   2.644  -4.277  0.00  0.00    +0.066 C 
ENDROOT
BRANCH   1  10
ATOM      8  C   UNL     1      -0.735   1.179  -0.065  0.00  0.00    +0.068 C 
ATOM      9  C   UNL     1      -0.802  -0.325  -0.124  0.00  0.00    +0.071 A 
ATOM     10  C   UNL     1      -0.622  -1.118  -1.275  0.00  0.00    +0.062 A 
ATOM     11  C   UNL     1      -0.761  -2.424  -0.900  0.00  0.00    +0.047 A 
ATOM     12  N   UNL     1      -1.016  -2.444   0.421  0.00  0.00    -0.271 N 
ATOM     13  N   UNL     1      -1.032  -1.123   0.885  0.00  0.00    -0.176 NA
ATOM     14  C   UNL     1      -1.234  -3.642   1.236  0.00  0.00    +0.172 C 
ATOM     15  C   UNL     1      -0.650  -3.626  -1.803  0.00  0.00    +0.066 C 
ENDBRANCH   1  10
BRANCH   5  16
ATOM     16  N   UNL     1       0.207  -2.004  -5.896  0.00  0.00    -0.332 N 
ATOM     17  C   UNL     1       0.001  -3.432  -5.641  0.00  0.00    +0.127 C 
ATOM     18  H   UNL     1       0.444  -1.700  -6.786  0.00  0.00    +0.147 HD
ENDBRANCH   5  16
BRANCH   4  19
ATOM     19  C   UNL     1       0.479   0.790  -6.502  0.00  0.00    +0.018 C 
ATOM     20  C   UNL     1       1.821   0.231  -6.978  0.00  0.00    +0.012 C 
ATOM     21  C   UNL     1      -0.629   0.338  -7.455  0.00  0.00    +0.012 C 
ENDBRANCH   4  19
TORSDOF 3
