REMARK  Name = ZINC19460536
REMARK  6 active torsions:
REMARK  status: ('A' for Active; 'I' for Inactive)
REMARK    1  A    between atoms: C_1  and  C_2
REMARK    2  A    between atoms: C_2  and  C_28
REMARK    3  A    between atoms: C_7  and  C_10
REMARK    4  A    between atoms: N_19  and  C_22
REMARK    5  A    between atoms: C_28  and  O_30
REMARK    6  A    between atoms: O_30  and  C_31
REMARK                            x       y       z     vdW  Elec       q    Type
REMARK                         _______ _______ _______ _____ _____    ______ ____
ROOT
ATOM      1  C   UNL     1      -1.194   0.976  -0.409  0.00  0.00    +0.002 C 
ATOM      2  C   UNL     1      -0.716  -0.460  -0.185  0.00  0.00    +0.041 C 
ATOM      3  C   UNL     1      -1.850  -1.314   0.356  0.00  0.00    +0.086 C 
ATOM      4  C   UNL     1      -0.990  -2.365   1.156  0.00  0.00    +0.077 C 
ATOM      5  C   UNL     1      -0.075  -1.497   1.916  0.00  0.00    -0.027 C 
ATOM      6  N   UNL     1       0.346  -0.492   0.866  0.00  0.00    +0.395 N 
ATOM      7  C   UNL     1      -1.947  -3.422   1.373  0.00  0.00    +0.229 C 
ATOM      8  O   UNL     1      -2.030  -4.156   2.334  0.00  0.00    -0.275 OA
ATOM      9  N   UNL     1      -2.743  -3.417   0.254  0.00  0.00    -0.210 N 
ATOM     10  C   UNL     1      -2.581  -2.287  -0.516  0.00  0.00    +0.229 C 
ATOM     11  O   UNL     1      -2.946  -2.112  -1.659  0.00  0.00    -0.275 OA
ATOM     12  H   UNL     1       1.226  -0.768   0.454  0.00  0.00    -0.083 HD
ATOM     13  H   UNL     1       0.437   0.419   1.288  0.00  0.00    -0.083 HD
ENDROOT
BRANCH   5  14
ATOM     14  C   UNL     1      -0.794  -0.836   3.064  0.00  0.00    -0.061 A 
ATOM     15  C   UNL     1      -0.960  -1.513   4.258  0.00  0.00    +0.003 A 
ATOM     16  C   UNL     1      -1.619  -0.907   5.311  0.00  0.00    +0.020 A 
ATOM     17  C   UNL     1      -2.113   0.378   5.169  0.00  0.00    +0.041 A 
ATOM     18  C   UNL     1      -1.947   1.055   3.974  0.00  0.00    +0.020 A 
ATOM     19  C   UNL     1      -1.283   0.450   2.924  0.00  0.00    +0.003 A 
ATOM     20 CL   UNL     1      -2.942   1.139   6.491  0.00  0.00    -0.084 Cl
ENDBRANCH   5  14
BRANCH   9  21
ATOM     21  C   UNL     1      -3.636  -4.449  -0.068  0.00  0.00    +0.044 A 
ATOM     22  C   UNL     1      -4.403  -4.370  -1.223  0.00  0.00    +0.024 A 
ATOM     23  C   UNL     1      -5.282  -5.387  -1.538  0.00  0.00    +0.002 A 
ATOM     24  C   UNL     1      -5.399  -6.484  -0.704  0.00  0.00    +0.000 A 
ATOM     25  C   UNL     1      -4.637  -6.566   0.447  0.00  0.00    +0.002 A 
ATOM     26  C   UNL     1      -3.752  -5.554   0.764  0.00  0.00    +0.024 A 
ENDBRANCH   9  21
BRANCH   2  27
ATOM     27  C   UNL     1      -0.193  -1.042  -1.473  0.00  0.00    +0.296 C 
ATOM     28  O   UNL     1      -0.914  -1.717  -2.168  0.00  0.00    -0.252 OA
BRANCH  27  29
ATOM     29  O   UNL     1       1.075  -0.809  -1.848  0.00  0.00    -0.469 OA
ATOM     30  C   UNL     1       1.504  -1.391  -3.081  0.00  0.00    +0.280 C 
ENDBRANCH  27  29
ENDBRANCH   2  27
TORSDOF 4
