REMARK  Name = ZINC67592967
REMARK  7 active torsions:
REMARK  status: ('A' for Active; 'I' for Inactive)
REMARK    1  A    between atoms: C_1  and  C_2
REMARK    2  A    between atoms: C_7  and  C_8
REMARK    3  A    between atoms: C_8  and  C_10
REMARK    4  A    between atoms: C_8  and  N_27
REMARK    5  A    between atoms: C_10  and  C_11
REMARK    6  A    between atoms: C_16  and  N_19
REMARK    7  A    between atoms: N_19  and  C_20
REMARK                            x       y       z     vdW  Elec       q    Type
REMARK                         _______ _______ _______ _____ _____    ______ ____
ROOT
ATOM      1  C   UNL     1       1.128   1.536   4.147  0.00  0.00    +0.218 C 
ATOM      2  O   UNL     1       0.004   1.711   4.566  0.00  0.00    -0.276 OA
ATOM      3  N   UNL     1       2.170   2.161   4.731  0.00  0.00    -0.301 N 
ATOM      4  C   UNL     1       3.537   1.965   4.231  0.00  0.00    +0.109 C 
ATOM      5  C   UNL     1       4.159   3.335   3.944  0.00  0.00    +0.041 C 
ATOM      6  C   UNL     1       4.068   4.205   5.199  0.00  0.00    +0.073 C 
ATOM      7  C   UNL     1       2.599   4.410   5.575  0.00  0.00    +0.041 C 
ATOM      8  C   UNL     1       1.958   3.057   5.876  0.00  0.00    +0.109 C 
ENDROOT
BRANCH   6   9
ATOM      9  N   UNL     1       4.691   5.505   4.939  0.00  0.00    -0.341 N 
ATOM     10  H   UNL     1       4.748   5.842   4.031  0.00  0.00    +0.146 HD
BRANCH   9  11
ATOM     11  C   UNL     1       5.205   6.259   5.998  0.00  0.00    +0.027 A 
ATOM     12  C   UNL     1       5.130   5.774   7.298  0.00  0.00    +0.026 A 
ATOM     13  C   UNL     1       5.638   6.521   8.343  0.00  0.00    +0.040 A 
ATOM     14  C   UNL     1       6.222   7.752   8.095  0.00  0.00    +0.124 A 
ATOM     15  C   UNL     1       6.298   8.237   6.801  0.00  0.00    +0.040 A 
ATOM     16  C   UNL     1       5.796   7.491   5.752  0.00  0.00    +0.026 A 
ATOM     17  F   UNL     1       6.718   8.480   9.119  0.00  0.00    -0.205 F 
ENDBRANCH   9  11
ENDBRANCH   6   9
BRANCH   1  18
ATOM     18  C   UNL     1       1.361   0.620   2.973  0.00  0.00    +0.123 C 
BRANCH  18  19
ATOM     19  C   UNL     1       0.024   0.044   2.503  0.00  0.00    +0.114 C 
BRANCH  19  26
ATOM     20  C   UNL     1      -2.230  -0.709   0.860  0.00  0.00    +0.044 C 
ATOM     21  C   UNL     1      -0.838  -1.133   0.469  0.00  0.00    -0.045 A 
ATOM     22  C   UNL     1      -0.639  -1.879  -0.678  0.00  0.00    +0.004 A 
ATOM     23  C   UNL     1       0.638  -2.268  -1.036  0.00  0.00    +0.000 A 
ATOM     24  C   UNL     1       1.716  -1.913  -0.247  0.00  0.00    +0.000 A 
ATOM     25  C   UNL     1       1.517  -1.167   0.900  0.00  0.00    +0.006 A 
ATOM     26  C   UNL     1       0.240  -0.774   1.255  0.00  0.00    -0.024 A 
ENDBRANCH  19  26
BRANCH  19  27
ATOM     27  N   UNL     1      -0.537  -0.808   3.554  0.00  0.00    -0.292 N 
ATOM     28  C   UNL     1       0.102  -1.937   3.920  0.00  0.00    +0.298 C 
ATOM     29  O   UNL     1       1.190  -2.201   3.444  0.00  0.00    -0.253 OA
ATOM     30  N   UNL     1      -0.464  -2.773   4.812  0.00  0.00    -0.313 N 
ATOM     31  H   UNL     1      -1.369  -0.560   3.987  0.00  0.00    +0.151 HD
ATOM     32  H   UNL     1      -1.331  -2.563   5.191  0.00  0.00    +0.146 HD
ATOM     33  H   UNL     1      -0.003  -3.586   5.075  0.00  0.00    +0.146 HD
ENDBRANCH  19  27
ENDBRANCH  18  19
ENDBRANCH   1  18
TORSDOF 6
