REMARK  Name = ZINC09873667
REMARK  9 active torsions:
REMARK  status: ('A' for Active; 'I' for Inactive)
REMARK    1  A    between atoms: C_1  and  C_2
REMARK    2  A    between atoms: C_2  and  C_3
REMARK    3  A    between atoms: C_2  and  C_4
REMARK    4  A    between atoms: C_4  and  C_6
REMARK    5  A    between atoms: C_4  and  S_12
REMARK    6  A    between atoms: S_12  and  C_13
REMARK    7  A    between atoms: C_16  and  C_24
REMARK    8  A    between atoms: N_17  and  C_18
REMARK    9  A    between atoms: C_24  and  N_54
REMARK                            x       y       z     vdW  Elec       q    Type
REMARK                         _______ _______ _______ _____ _____    ______ ____
ROOT
ATOM      1  C   UNL     1      -5.108   0.707  -0.716  0.00  0.00    +0.197 A 
ATOM      2  N   UNL     1      -5.107  -0.511  -0.224  0.00  0.00    -0.122 NA
ATOM      3  N   UNL     1      -6.278  -1.028  -0.334  0.00  0.00    -0.135 NA
ATOM      4  C   UNL     1      -7.092  -0.182  -0.898  0.00  0.00    +0.122 A 
ATOM      5  N   UNL     1      -6.378   0.958  -1.157  0.00  0.00    -0.276 N 
ENDROOT
BRANCH   5   6
ATOM      6  C   UNL     1      -6.850   2.137  -1.754  0.00  0.00    +0.050 A 
ATOM      7  C   UNL     1      -7.783   2.925  -1.094  0.00  0.00    +0.026 A 
ATOM      8  C   UNL     1      -8.241   4.088  -1.682  0.00  0.00    +0.002 A 
ATOM      9  C   UNL     1      -7.781   4.461  -2.931  0.00  0.00    +0.000 A 
ATOM     10  C   UNL     1      -6.856   3.675  -3.593  0.00  0.00    +0.002 A 
ATOM     11  C   UNL     1      -6.389   2.514  -3.008  0.00  0.00    +0.026 A 
ENDBRANCH   5   6
BRANCH   1  12
ATOM     12  S   UNL     1      -3.736   1.809  -0.787  0.00  0.00    -0.073 S 
BRANCH  12  13
ATOM     13  C   UNL     1      -2.462   0.775  -0.023  0.00  0.00    +0.143 C 
BRANCH  13  14
ATOM     14  C   UNL     1      -1.134   1.486  -0.086  0.00  0.00    +0.234 C 
ATOM     15  O   UNL     1      -1.097   2.695  -0.158  0.00  0.00    -0.274 OA
ATOM     16  N   UNL     1       0.011   0.776  -0.061  0.00  0.00    -0.239 N 
ATOM     17  C   UNL     1       1.199   1.411  -0.123  0.00  0.00    +0.303 C 
ATOM     18  O   UNL     1       1.236   2.624  -0.195  0.00  0.00    -0.253 OA
ATOM     19  N   UNL     1       2.344   0.701  -0.104  0.00  0.00    -0.313 N 
ATOM     20  H   UNL     1      -0.019  -0.192  -0.003  0.00  0.00    +0.159 HD
ATOM     21  H   UNL     1       2.314  -0.267  -0.046  0.00  0.00    +0.146 HD
ATOM     22  H   UNL     1       3.199   1.158  -0.148  0.00  0.00    +0.146 HD
ENDBRANCH  13  14
BRANCH  13  24
ATOM     23  C   UNL     1      -1.753  -0.364   2.084  0.00  0.00    +0.009 C 
ATOM     24  C   UNL     1      -2.830   0.510   1.438  0.00  0.00    +0.005 C 
ATOM     25  C   UNL     1      -2.926   1.839   2.190  0.00  0.00    +0.009 C 
ENDBRANCH  13  24
ENDBRANCH  12  13
ENDBRANCH   1  12
BRANCH   4  26
ATOM     26  C   UNL     1      -8.550  -0.411  -1.204  0.00  0.00    -0.001 C 
BRANCH  26  31
ATOM     27  C   UNL     1      -7.920  -2.115  -2.826  0.00  0.00    -0.078 C 
ATOM     28  C   UNL     1      -8.583  -2.712  -4.092  0.00  0.00    -0.020 C 
ATOM     29  C   UNL     1     -10.080  -2.385  -3.885  0.00  0.00    -0.020 C 
ATOM     30  C   UNL     1     -10.101  -1.204  -2.897  0.00  0.00    -0.078 C 
ATOM     31  N   UNL     1      -8.701  -0.886  -2.612  0.00  0.00    +0.384 N 
ATOM     32  H   UNL     1      -8.375  -0.152  -3.252  0.00  0.00    -0.081 HD
ENDBRANCH  26  31
ENDBRANCH   4  26
TORSDOF 7
