REMARK  Name = ZINC17086368
REMARK  5 active torsions:
REMARK  status: ('A' for Active; 'I' for Inactive)
REMARK    1  A    between atoms: C_4  and  C_7
REMARK    2  A    between atoms: C_7  and  C_8
REMARK    3  A    between atoms: C_12  and  S_16
REMARK    4  A    between atoms: S_16  and  C_17
REMARK    5  A    between atoms: C_17  and  C_18
REMARK                            x       y       z     vdW  Elec       q    Type
REMARK                         _______ _______ _______ _____ _____    ______ ____
ROOT
ATOM      1  C   UNL     1       4.164  -0.959   1.377  0.00  0.00    +0.087 A 
ATOM      2  C   UNL     1       4.879   0.017   2.082  0.00  0.00    +0.259 A 
ATOM      3  O   UNL     1       5.145   1.088   1.561  0.00  0.00    -0.267 OA
ATOM      4  N   UNL     1       5.267  -0.247   3.347  0.00  0.00    -0.302 N 
ATOM      5  C   UNL     1       4.964  -1.446   3.918  0.00  0.00    +0.173 A 
ATOM      6  N   UNL     1       4.292  -2.368   3.259  0.00  0.00    -0.185 NA
ATOM      7  C   UNL     1       3.877  -2.159   2.007  0.00  0.00    +0.281 A 
ATOM      8  O   UNL     1       3.183  -3.119   1.353  0.00  0.00    -0.265 OA
ATOM      9  H   UNL     1       5.763   0.418   3.850  0.00  0.00    +0.171 HD
ENDROOT
BRANCH   1  10
ATOM     10  C   UNL     1       3.711  -0.707  -0.038  0.00  0.00    +0.081 C 
BRANCH  10  14
ATOM     11  C   UNL     1      -0.017   1.378   0.010  0.00  0.00    +0.000 A 
ATOM     12  C   UNL     1       1.171   2.086   0.002  0.00  0.00    +0.000 A 
ATOM     13  C   UNL     1       2.377   1.411  -0.013  0.00  0.00    +0.004 A 
ATOM     14  C   UNL     1       2.396   0.029  -0.020  0.00  0.00    -0.043 A 
ATOM     15  C   UNL     1       1.208  -0.679  -0.012  0.00  0.00    +0.004 A 
ATOM     16  C   UNL     1       0.002  -0.004   0.002  0.00  0.00    +0.000 A 
ENDBRANCH  10  14
ENDBRANCH   1  10
BRANCH   5  17
ATOM     17  S   UNL     1       5.481  -1.770   5.572  0.00  0.00    -0.078 S 
BRANCH  17  18
ATOM     18  C   UNL     1       4.869  -3.446   5.902  0.00  0.00    +0.173 C 
BRANCH  18  19
ATOM     19  C   UNL     1       5.249  -3.852   7.302  0.00  0.00    +0.229 C 
ATOM     20  O   UNL     1       5.870  -3.086   8.008  0.00  0.00    -0.275 OA
ATOM     21  N   UNL     1       4.897  -5.066   7.771  0.00  0.00    -0.264 N 
ATOM     22  C   UNL     1       5.247  -5.441   9.062  0.00  0.00    +0.164 A 
ATOM     23  N   UNL     1       5.908  -4.747   9.964  0.00  0.00    -0.233 NA
ATOM     24  C   UNL     1       6.164  -5.249  11.158  0.00  0.00    +0.120 A 
ATOM     25  C   UNL     1       5.716  -6.503  11.408  0.00  0.00    +0.068 A 
ATOM     26  S   UNL     1       4.922  -6.889   9.856  0.00  0.00    -0.061 S 
ATOM     27  H   UNL     1       4.401  -5.678   7.206  0.00  0.00    +0.157 HD
ENDBRANCH  18  19
ENDBRANCH  17  18
ENDBRANCH   5  17
TORSDOF 5
