REMARK  Name = ZINC03164800
REMARK  4 active torsions:
REMARK  status: ('A' for Active; 'I' for Inactive)
REMARK    1  A    between atoms: C_1  and  O_2
REMARK    2  A    between atoms: O_2  and  C_3
REMARK    3  A    between atoms: C_3  and  C_5
REMARK    4  A    between atoms: C_7  and  C_22
REMARK                            x       y       z     vdW  Elec       q    Type
REMARK                         _______ _______ _______ _____ _____    ______ ____
ROOT
ATOM      1  C   UNL     1      -0.438   1.139   0.172  0.00  0.00    +0.153 C 
ATOM      2  C   UNL     1      -0.782  -0.196  -0.492  0.00  0.00    +0.077 C 
ATOM      3  C   UNL     1      -2.028  -0.067  -1.326  0.00  0.00    +0.063 A 
ATOM      4  C   UNL     1      -2.470   1.128  -1.805  0.00  0.00    +0.111 A 
ATOM      5  N   UNL     1      -3.601   1.171  -2.588  0.00  0.00    -0.323 N 
ATOM      6  H   UNL     1      -3.911   2.020  -2.941  0.00  0.00    +0.169 HD
ATOM      7  C   UNL     1      -4.280   0.044  -2.868  0.00  0.00    +0.159 A 
ATOM      8  S   UNL     1      -5.687   0.123  -3.841  0.00  0.00    -0.013 S 
ATOM      9  N   UNL     1      -3.867  -1.145  -2.393  0.00  0.00    -0.302 N 
ATOM     10  H   UNL     1      -4.373  -1.947  -2.599  0.00  0.00    +0.171 HD
ATOM     11  C   UNL     1      -2.759  -1.232  -1.634  0.00  0.00    +0.258 A 
ATOM     12  O   UNL     1      -2.390  -2.314  -1.212  0.00  0.00    -0.267 OA
ATOM     13  N   UNL     1      -1.814   2.305  -1.524  0.00  0.00    -0.304 N 
ATOM     14  C   UNL     1      -0.573   2.226  -0.878  0.00  0.00    +0.017 C 
ATOM     15  C   UNL     1       0.418   3.048  -1.166  0.00  0.00    +0.029 C 
ATOM     16  H   UNL     1      -2.198   3.162  -1.767  0.00  0.00    +0.153 HD
ENDROOT
BRANCH   2  17
ATOM     17  C   UNL     1      -1.003  -1.238   0.573  0.00  0.00    -0.038 A 
ATOM     18  C   UNL     1      -2.148  -1.204   1.347  0.00  0.00    +0.005 A 
ATOM     19  C   UNL     1      -2.353  -2.163   2.321  0.00  0.00    +0.015 A 
ATOM     20  C   UNL     1      -1.407  -3.151   2.529  0.00  0.00    +0.018 A 
ATOM     21  C   UNL     1      -0.259  -3.181   1.758  0.00  0.00    +0.015 A 
ATOM     22  C   UNL     1      -0.057  -2.225   0.781  0.00  0.00    +0.005 A 
ATOM     23 BR   UNL     1      -1.684  -4.459   3.866  0.00  0.00    -0.050 Br
ENDBRANCH   2  17
BRANCH   1  24
ATOM     24  C   UNL     1      -1.391   1.406   1.308  0.00  0.00    +0.316 C 
ATOM     25  O   UNL     1      -2.477   1.887   1.086  0.00  0.00    -0.250 OA
BRANCH  24  27
ATOM     26  C   UNL     1      -2.001   1.394   3.612  0.00  0.00    +0.280 C 
ATOM     27  O   UNL     1      -1.033   1.111   2.568  0.00  0.00    -0.467 OA
ENDBRANCH  24  27
ENDBRANCH   1  24
TORSDOF 3
