REMARK  Name = ZINC09151750
REMARK  8 active torsions:
REMARK  status: ('A' for Active; 'I' for Inactive)
REMARK    1  A    between atoms: C_1  and  C_2
REMARK    2  A    between atoms: C_7  and  S_8
REMARK    3  A    between atoms: S_8  and  C_11
REMARK    4  A    between atoms: C_11  and  C_13
REMARK    5  A    between atoms: C_11  and  C_14
REMARK    6  A    between atoms: C_14  and  C_15
REMARK    7  A    between atoms: N_17  and  C_18
REMARK    8  A    between atoms: C_18  and  C_19
REMARK                            x       y       z     vdW  Elec       q    Type
REMARK                         _______ _______ _______ _____ _____    ______ ____
ROOT
ATOM      1  C   UNL     1       9.700  -1.734   1.055  0.00  0.00    +0.142 C 
ATOM      2  C   UNL     1      10.673  -1.953  -0.105  0.00  0.00    +0.032 C 
ENDROOT
BRANCH   1   3
ATOM      3  S   UNL     1       9.821  -3.123   2.216  0.00  0.00    +0.000 S 
ATOM      4  O   UNL     1       9.185  -2.792   3.443  0.00  0.00    -0.169 OA
ATOM      5  O   UNL     1       9.523  -4.343   1.552  0.00  0.00    -0.169 OA
BRANCH   3  12
ATOM      6  C   UNL     1      11.317  -1.064   3.841  0.00  0.00    +0.046 C 
ATOM      7  C   UNL     1      12.132  -2.239   3.364  0.00  0.00    -0.024 A 
ATOM      8  C   UNL     1      13.475  -2.322   3.685  0.00  0.00    +0.032 A 
ATOM      9  C   UNL     1      14.223  -3.399   3.242  0.00  0.00    +0.076 A 
ATOM     10  C   UNL     1      13.621  -4.399   2.479  0.00  0.00    +0.144 A 
ATOM     11  C   UNL     1      12.276  -4.312   2.167  0.00  0.00    +0.074 A 
ATOM     12  C   UNL     1      11.534  -3.233   2.613  0.00  0.00    +0.095 A 
ATOM     13  O   UNL     1      14.367  -5.452   2.048  0.00  0.00    -0.481 OA
ATOM     14  C   UNL     1      15.740  -5.188   1.749  0.00  0.00    +0.325 C 
ATOM     15  C   UNL     1      16.352  -4.373   2.860  0.00  0.00    +0.255 C 
ATOM     16  O   UNL     1      17.528  -4.499   3.131  0.00  0.00    -0.272 OA
ATOM     17  N   UNL     1      15.587  -3.501   3.552  0.00  0.00    -0.280 N 
ATOM     18  H   UNL     1      15.975  -2.953   4.252  0.00  0.00    +0.155 HD
ENDBRANCH   3  12
ENDBRANCH   1   3
BRANCH   1  19
ATOM     19  C   UNL     1       8.272  -1.645   0.513  0.00  0.00    +0.122 C 
BRANCH  19  20
ATOM     20  C   UNL     1       7.328  -1.308   1.638  0.00  0.00    +0.215 C 
ATOM     21  O   UNL     1       7.755  -1.153   2.762  0.00  0.00    -0.276 OA
ATOM     22  N   UNL     1       6.009  -1.177   1.394  0.00  0.00    -0.311 N 
ATOM     23  H   UNL     1       5.667  -1.300   0.495  0.00  0.00    +0.149 HD
BRANCH  22  24
ATOM     24  C   UNL     1       5.091  -0.849   2.488  0.00  0.00    +0.139 C 
BRANCH  24  25
ATOM     25  C   UNL     1       3.684  -0.761   1.954  0.00  0.00    -0.027 A 
ATOM     26  C   UNL     1       2.885  -1.889   1.929  0.00  0.00    +0.009 A 
ATOM     27  C   UNL     1       1.594  -1.813   1.439  0.00  0.00    +0.050 A 
ATOM     28  C   UNL     1       1.098  -0.606   0.973  0.00  0.00    +0.166 A 
ATOM     29  C   UNL     1       1.904   0.529   0.999  0.00  0.00    +0.167 A 
ATOM     30  C   UNL     1       3.196   0.447   1.490  0.00  0.00    +0.054 A 
ATOM     31  O   UNL     1       1.194   1.579   0.491  0.00  0.00    -0.453 OA
ATOM     32  C   UNL     1      -0.185   1.167   0.534  0.00  0.00    +0.466 C 
ATOM     33  O   UNL     1      -0.116  -0.268   0.449  0.00  0.00    -0.453 OA
ENDBRANCH  24  25
ENDBRANCH  22  24
ENDBRANCH  19  20
ENDBRANCH   1  19
TORSDOF 6
