REMARK  Name = ZINC14550669
REMARK  2 active torsions:
REMARK  status: ('A' for Active; 'I' for Inactive)
REMARK    1  A    between atoms: C_12  and  C_21
REMARK    2  A    between atoms: C_24  and  N_27
REMARK                            x       y       z     vdW  Elec       q    Type
REMARK                         _______ _______ _______ _____ _____    ______ ____
ROOT
ATOM      1  C   UNL     1       5.385   4.967  -0.205  0.00  0.00    +0.001 A 
ATOM      2  C   UNL     1       5.137   3.679   0.266  0.00  0.00    +0.001 A 
ATOM      3  C   UNL     1       3.892   3.133   0.192  0.00  0.00    +0.010 A 
ATOM      4  C   UNL     1       2.839   3.877  -0.366  0.00  0.00    +0.003 A 
ATOM      5  C   UNL     1       3.089   5.184  -0.842  0.00  0.00    -0.016 A 
ATOM      6  C   UNL     1       4.388   5.716  -0.751  0.00  0.00    +0.008 A 
ATOM      7  C   UNL     1       2.037   5.933  -1.397  0.00  0.00    +0.009 A 
ATOM      8  C   UNL     1       0.789   5.395  -1.454  0.00  0.00    +0.006 A 
ATOM      9  C   UNL     1       0.525   4.114  -0.982  0.00  0.00    -0.019 A 
ATOM     10  C   UNL     1       1.535   3.325  -0.452  0.00  0.00    +0.039 A 
ATOM     11  N   UNL     1       1.358   2.023   0.000  0.00  0.00    -0.336 N 
ATOM     12  C   UNL     1      -0.018   1.503   0.010  0.00  0.00    +0.105 C 
ATOM     13  C   UNL     1      -0.698   2.017  -1.242  0.00  0.00    +0.029 C 
ATOM     14  C   UNL     1      -0.844   3.552  -1.004  0.00  0.00    +0.049 C 
ATOM     15  C   UNL     1      -1.851   3.939  -2.023  0.00  0.00    -0.023 C 
ATOM     16  C   UNL     1      -2.641   2.895  -2.251  0.00  0.00    -0.030 C 
ATOM     17  C   UNL     1      -2.185   1.701  -1.409  0.00  0.00    +0.033 C 
ATOM     18  H   UNL     1       1.802   1.888   0.896  0.00  0.00    +0.147 HD
ENDROOT
BRANCH  12  19
ATOM     19  C   UNL     1       0.002  -0.004   0.002  0.00  0.00    -0.027 A 
ATOM     20  C   UNL     1       0.917  -0.679  -0.784  0.00  0.00    +0.008 A 
ATOM     21  C   UNL     1       0.939  -2.061  -0.788  0.00  0.00    +0.033 A 
ATOM     22  C   UNL     1       0.039  -2.768  -0.013  0.00  0.00    +0.126 A 
ATOM     23  C   UNL     1      -0.879  -2.094   0.769  0.00  0.00    +0.033 A 
ATOM     24  C   UNL     1      -0.898  -0.712   0.776  0.00  0.00    +0.008 A 
BRANCH  22  25
ATOM     25  N   UNL     1       0.060  -4.248  -0.021  0.00  0.00    +0.056 N 
ATOM     26  O   UNL     1      -0.732  -4.872   0.662  0.00  0.00    -0.126 OA
ATOM     27  O   UNL     1       0.870  -4.843  -0.710  0.00  0.00    -0.126 OA
ENDBRANCH  22  25
ENDBRANCH  12  19
TORSDOF 2
