REMARK  Name = ZINC39464604
REMARK  8 active torsions:
REMARK  status: ('A' for Active; 'I' for Inactive)
REMARK    1  A    between atoms: C_1  and  C_2
REMARK    2  A    between atoms: C_2  and  C_3
REMARK    3  A    between atoms: C_2  and  S_4
REMARK    4  A    between atoms: S_4  and  C_7
REMARK    5  A    between atoms: C_12  and  C_13
REMARK    6  A    between atoms: C_18  and  O_19
REMARK    7  A    between atoms: P_27  and  O_30
REMARK    8  A    between atoms: O_30  and  C_31
REMARK                            x       y       z     vdW  Elec       q    Type
REMARK                         _______ _______ _______ _____ _____    ______ ____
ROOT
ATOM      1  C   UNL     1       0.165   0.009   2.903  0.00  0.00    +0.097 A 
ATOM      2  C   UNL     1      -0.404  -0.835   3.832  0.00  0.00    +0.033 A 
ATOM      3  C   UNL     1      -1.483  -0.416   4.601  0.00  0.00    -0.022 A 
ATOM      4  C   UNL     1      -1.992   0.855   4.433  0.00  0.00    -0.041 A 
ATOM      5  C   UNL     1      -1.428   1.711   3.503  0.00  0.00    +0.014 A 
ATOM      6  C   UNL     1      -0.343   1.296   2.736  0.00  0.00    +0.011 A 
ATOM      7  C   UNL     1      -3.164   1.346   5.243  0.00  0.00    +0.052 C 
ATOM      8  C   UNL     1      -3.331   0.473   6.486  0.00  0.00    +0.108 C 
ATOM      9  N   UNL     1      -3.372  -0.938   6.072  0.00  0.00    -0.224 NA
ATOM     10  C   UNL     1      -2.060  -1.383   5.602  0.00  0.00    +0.130 C 
ATOM     11  C   UNL     1      -2.146  -2.772   4.963  0.00  0.00    +0.196 C 
ATOM     12  O   UNL     1      -2.587  -3.713   5.963  0.00  0.00    -0.294 OA
ATOM     13  P   UNL     1      -3.906  -3.345   6.840  0.00  0.00    +0.421 P 
ATOM     14  O   UNL     1      -3.890  -4.083   8.122  0.00  0.00    -0.239 OA
ATOM     15  N   UNL     1      -3.817  -1.717   7.117  0.00  0.00    -0.156 NA
ATOM     16  H   UNL     1      -4.065  -1.331   7.971  0.00  0.00    +0.153 HD
ENDROOT
BRANCH   6  17
ATOM     17  C   UNL     1       0.266   2.215   1.744  0.00  0.00    +0.025 A 
ATOM     18  C   UNL     1       1.124   3.229   2.163  0.00  0.00    +0.012 A 
ATOM     19  C   UNL     1       1.687   4.082   1.236  0.00  0.00    +0.001 A 
ATOM     20  C   UNL     1       1.403   3.934  -0.110  0.00  0.00    +0.004 A 
ATOM     21  C   UNL     1       0.554   2.932  -0.537  0.00  0.00    +0.046 A 
ATOM     22  C   UNL     1      -0.015   2.065   0.382  0.00  0.00    +0.125 A 
BRANCH  22  23
ATOM     23  O   UNL     1      -0.845   1.075  -0.037  0.00  0.00    -0.506 OA
ATOM     24  H   UNL     1      -1.764   1.354  -0.151  0.00  0.00    +0.292 HD
ENDBRANCH  22  23
ENDBRANCH   6  17
BRANCH   1  25
ATOM     25  S   UNL     1       1.533  -0.535   1.936  0.00  0.00    -0.000 S 
ATOM     26  O   UNL     1       1.172  -0.232   0.595  0.00  0.00    -0.169 OA
ATOM     27  O   UNL     1       1.752  -1.879   2.341  0.00  0.00    -0.169 OA
BRANCH  25  29
ATOM     28  C   UNL     1       3.086   0.411   3.979  0.00  0.00    +0.032 C 
ATOM     29  C   UNL     1       2.920   0.510   2.461  0.00  0.00    +0.130 C 
ATOM     30  C   UNL     1       4.203   0.036   1.775  0.00  0.00    +0.032 C 
ENDBRANCH  25  29
ENDBRANCH   1  25
BRANCH  13  31
ATOM     31  O   UNL     1      -5.240  -3.699   6.012  0.00  0.00    -0.299 OA
ATOM     32  C   UNL     1      -6.545  -3.682   6.594  0.00  0.00    +0.206 C 
ENDBRANCH  13  31
TORSDOF 5
