REMARK  Name = ZINC29189656
REMARK  12 active torsions:
REMARK  status: ('A' for Active; 'I' for Inactive)
REMARK    1  A    between atoms: C_1  and  C_2
REMARK    2  A    between atoms: C_2  and  C_3
REMARK    3  A    between atoms: C_2  and  C_4
REMARK    4  A    between atoms: C_4  and  C_6
REMARK    5  A    between atoms: C_4  and  N_13
REMARK    6  A    between atoms: N_13  and  C_14
REMARK    7  A    between atoms: C_14  and  C_15
REMARK    8  A    between atoms: N_17  and  N_18
REMARK    9  A    between atoms: C_21  and  C_25
REMARK   10  A    between atoms: C_21  and  C_26
REMARK   11  A    between atoms: C_26  and  C_27
REMARK   12  A    between atoms: C_27  and  C_28
REMARK                            x       y       z     vdW  Elec       q    Type
REMARK                         _______ _______ _______ _____ _____    ______ ____
ROOT
ATOM      1  C   UNL     1      -1.583  -1.560  -0.839  0.00  0.00    +0.213 C 
ATOM      2  O   UNL     1      -0.743  -1.611  -1.712  0.00  0.00    -0.276 OA
ATOM      3  N   UNL     1      -1.351  -0.845   0.279  0.00  0.00    -0.225 N 
ATOM      4  H   UNL     1      -2.113  -0.798   1.071  0.00  0.00    +0.173 HD
ENDROOT
BRANCH   3   5
ATOM      5  N   UNL     1      -0.138  -0.159   0.433  0.00  0.00    -0.137 N 
ATOM      6  C   UNL     1      -0.002   1.175   0.308  0.00  0.00    +0.263 C 
ATOM      7  O   UNL     1      -0.871   1.979   0.046  0.00  0.00    -0.271 OA
ATOM      8  C   UNL     1       1.466   1.463   0.556  0.00  0.00    +0.112 C 
ATOM      9  N   UNL     1       2.039   0.131   0.817  0.00  0.00    -0.284 N 
ATOM     10  C   UNL     1       1.027  -0.750   0.723  0.00  0.00    +0.326 C 
ATOM     11  O   UNL     1       1.156  -1.947   0.883  0.00  0.00    -0.251 OA
ATOM     12  C   UNL     1       2.108   2.093  -0.681  0.00  0.00    +0.041 C 
ATOM     13  H   UNL     1       3.113   0.028   1.035  0.00  0.00    +0.151 HD
BRANCH   8  14
ATOM     14  C   UNL     1       1.637   2.371   1.776  0.00  0.00    +0.040 C 
BRANCH  14  15
ATOM     15  C   UNL     1       3.126   2.644   2.003  0.00  0.00    +0.038 C 
BRANCH  15  16
ATOM     16  C   UNL     1       3.295   3.538   3.204  0.00  0.00    -0.047 A 
ATOM     17  C   UNL     1       3.310   4.912   3.046  0.00  0.00    +0.003 A 
ATOM     18  C   UNL     1       3.459   5.732   4.148  0.00  0.00    +0.000 A 
ATOM     19  C   UNL     1       3.606   5.180   5.407  0.00  0.00    +0.000 A 
ATOM     20  C   UNL     1       3.596   3.806   5.564  0.00  0.00    +0.000 A 
ATOM     21  C   UNL     1       3.441   2.986   4.462  0.00  0.00    +0.003 A 
ENDBRANCH  15  16
ENDBRANCH  14  15
ENDBRANCH   8  14
ENDBRANCH   3   5
BRANCH   1  22
ATOM     22  C   UNL     1      -2.887  -2.297  -1.005  0.00  0.00    +0.017 C 
BRANCH  22  23
ATOM     23  N   UNL     1      -2.895  -2.994  -2.298  0.00  0.00    +0.389 N 
ATOM     24  H   UNL     1      -2.009  -3.645  -2.353  0.00  0.00    -0.084 HD
ATOM     25  H   UNL     1      -2.851  -2.246  -3.103  0.00  0.00    -0.084 HD
BRANCH  23  26
ATOM     26  C   UNL     1      -4.109  -3.807  -2.450  0.00  0.00    -0.038 C 
BRANCH  26  27
ATOM     27  C   UNL     1      -5.254  -2.924  -2.877  0.00  0.00    -0.061 A 
ATOM     28  C   UNL     1      -5.042  -1.915  -3.797  0.00  0.00    +0.005 A 
ATOM     29  C   UNL     1      -6.092  -1.108  -4.192  0.00  0.00    +0.038 A 
ATOM     30  C   UNL     1      -7.354  -1.304  -3.659  0.00  0.00    +0.123 A 
ATOM     31  C   UNL     1      -7.564  -2.313  -2.733  0.00  0.00    +0.038 A 
ATOM     32  C   UNL     1      -6.514  -3.122  -2.343  0.00  0.00    +0.005 A 
ATOM     33  F   UNL     1      -8.380  -0.513  -4.040  0.00  0.00    -0.205 F 
ENDBRANCH  26  27
BRANCH  26  35
ATOM     34  C   UNL     1      -2.648  -5.718  -3.128  0.00  0.00    +0.006 C 
ATOM     35  C   UNL     1      -3.872  -4.883  -3.512  0.00  0.00    -0.027 C 
ATOM     36  C   UNL     1      -5.101  -5.791  -3.601  0.00  0.00    +0.006 C 
ENDBRANCH  26  35
ENDBRANCH  23  26
ENDBRANCH  22  23
ENDBRANCH   1  22
TORSDOF 9
