REMARK  Name = ZINC62592031
REMARK  5 active torsions:
REMARK  status: ('A' for Active; 'I' for Inactive)
REMARK    1  A    between atoms: C_6  and  C_7
REMARK    2  A    between atoms: C_9  and  S_12
REMARK    3  A    between atoms: S_12  and  N_15
REMARK    4  A    between atoms: N_15  and  C_16
REMARK    5  A    between atoms: C_19  and  N_23
REMARK                            x       y       z     vdW  Elec       q    Type
REMARK                         _______ _______ _______ _____ _____    ______ ____
ROOT
ATOM      1  N   UNL     1      -1.605  -4.989  -0.782  0.00  0.00    -0.096 NA
ENDROOT
BRANCH   1   2
ATOM      2  C   UNL     1      -1.513  -6.377  -0.940  0.00  0.00    +0.076 A 
ATOM      3  C   UNL     1      -2.507  -7.201  -0.428  0.00  0.00    +0.028 A 
ATOM      4  C   UNL     1      -2.417  -8.570  -0.584  0.00  0.00    +0.026 A 
ATOM      5  C   UNL     1      -1.332  -9.123  -1.251  0.00  0.00    +0.049 A 
ATOM      6  C   UNL     1      -0.337  -8.299  -1.762  0.00  0.00    +0.064 A 
ATOM      7  C   UNL     1      -0.431  -6.929  -1.611  0.00  0.00    +0.048 A 
ATOM      8 CL   UNL     1       1.019  -8.990  -2.596  0.00  0.00    -0.082 Cl
BRANCH   5   9
ATOM      9  N   UNL     1      -1.240 -10.512  -1.407  0.00  0.00    -0.318 N 
ATOM     10  C   UNL     1      -0.568 -11.354  -0.403  0.00  0.00    +0.124 C 
ATOM     11  C   UNL     1      -1.597 -12.334   0.164  0.00  0.00    +0.123 C 
ATOM     12  N   UNL     1      -2.364 -12.955  -0.907  0.00  0.00    -0.313 N 
ATOM     13  C   UNL     1      -2.510 -12.442  -2.130  0.00  0.00    +0.230 C 
ATOM     14  O   UNL     1      -3.239 -13.012  -2.913  0.00  0.00    -0.274 OA
ATOM     15  C   UNL     1      -1.816 -11.190  -2.579  0.00  0.00    +0.200 C 
ATOM     16  H   UNL     1      -2.800 -13.800  -0.718  0.00  0.00    +0.149 HD
ENDBRANCH   5   9
ENDBRANCH   1   2
BRANCH   1  17
ATOM     17  S   UNL     1      -2.896  -4.330   0.019  0.00  0.00    +0.109 S 
ATOM     18  O   UNL     1      -2.793  -4.753   1.372  0.00  0.00    -0.147 OA
ATOM     19  O   UNL     1      -4.045  -4.593  -0.775  0.00  0.00    -0.147 OA
BRANCH  17  22
ATOM     20  C   UNL     1      -1.267  -0.763   0.011  0.00  0.00    +0.110 A 
ATOM     21  N   UNL     1      -1.462  -2.074   0.011  0.00  0.00    -0.219 NA
ATOM     22  C   UNL     1      -2.673  -2.582   0.020  0.00  0.00    +0.206 A 
ATOM     23  C   UNL     1      -3.753  -1.758   0.029  0.00  0.00    +0.096 A 
ATOM     24  S   UNL     1      -2.950  -0.160   0.031  0.00  0.00    -0.074 S 
BRANCH  20  30
ATOM     25  C   UNL     1      -0.017   1.391   0.010  0.00  0.00    +0.013 A 
ATOM     26  C   UNL     1       1.169   2.095   0.002  0.00  0.00    +0.039 A 
ATOM     27  C   UNL     1       2.379   1.418  -0.013  0.00  0.00    +0.123 A 
ATOM     28  C   UNL     1       2.403   0.033  -0.021  0.00  0.00    +0.039 A 
ATOM     29  C   UNL     1       1.223  -0.680  -0.014  0.00  0.00    +0.013 A 
ATOM     30  C   UNL     1       0.002  -0.004   0.002  0.00  0.00    +0.007 A 
ATOM     31  F   UNL     1       3.538   2.112  -0.022  0.00  0.00    -0.205 F 
ENDBRANCH  20  30
ENDBRANCH  17  22
ENDBRANCH   1  17
TORSDOF 5
