REMARK  Name = ZINC41004699
REMARK  4 active torsions:
REMARK  status: ('A' for Active; 'I' for Inactive)
REMARK    1  A    between atoms: C_6  and  C_7
REMARK    2  A    between atoms: C_7  and  C_8
REMARK    3  A    between atoms: N_10  and  C_11
REMARK    4  A    between atoms: C_12  and  C_20
REMARK                            x       y       z     vdW  Elec       q    Type
REMARK                         _______ _______ _______ _____ _____    ______ ____
ROOT
ATOM      1  C   UNL     1      -1.740  -1.021  -1.408  0.00  0.00    +0.222 C 
ATOM      2  O   UNL     1      -1.071  -0.614  -2.334  0.00  0.00    -0.275 OA
ATOM      3  N   UNL     1      -2.882  -1.696  -1.647  0.00  0.00    -0.279 N 
ATOM      4  H   UNL     1      -3.417  -2.022  -0.906  0.00  0.00    +0.155 HD
ENDROOT
BRANCH   3   5
ATOM      5  C   UNL     1      -3.292  -1.925  -2.952  0.00  0.00    +0.084 A 
ATOM      6  C   UNL     1      -4.429  -2.588  -3.383  0.00  0.00    +0.068 A 
ATOM      7  C   UNL     1      -4.632  -2.694  -4.818  0.00  0.00    -0.023 A 
ATOM      8  C   UNL     1      -3.660  -2.118  -5.557  0.00  0.00    -0.004 A 
ATOM      9  S   UNL     1      -2.527  -1.455  -4.371  0.00  0.00    -0.077 S 
ATOM     10  C   UNL     1      -3.581  -2.061  -7.051  0.00  0.00    +0.043 C 
ATOM     11  C   UNL     1      -4.575  -3.081  -7.626  0.00  0.00    +0.005 C 
ATOM     12  C   UNL     1      -5.924  -2.909  -6.923  0.00  0.00    +0.005 C 
ATOM     13  C   UNL     1      -5.820  -3.384  -5.472  0.00  0.00    +0.037 C 
BRANCH   6  14
ATOM     14  C   UNL     1      -5.388  -3.159  -2.432  0.00  0.00    +0.244 C 
ATOM     15  O   UNL     1      -6.319  -2.487  -2.029  0.00  0.00    -0.270 OA
ATOM     16  N   UNL     1      -5.238  -4.428  -2.004  0.00  0.00    -0.325 N 
ATOM     17  H   UNL     1      -4.495  -4.964  -2.325  0.00  0.00    +0.145 HD
ATOM     18  H   UNL     1      -5.872  -4.806  -1.374  0.00  0.00    +0.145 HD
ENDBRANCH   6  14
ENDBRANCH   3   5
BRANCH   1  19
ATOM     19  C   UNL     1      -1.294  -0.773   0.010  0.00  0.00    +0.131 C 
BRANCH  19  25
ATOM     20  C   UNL     1      -0.017   1.378   0.010  0.00  0.00    +0.008 A 
ATOM     21  C   UNL     1       1.170   2.091   0.002  0.00  0.00    +0.050 A 
ATOM     22  C   UNL     1       2.377   1.413  -0.013  0.00  0.00    +0.162 A 
ATOM     23  C   UNL     1       2.396   0.025  -0.020  0.00  0.00    +0.162 A 
ATOM     24  C   UNL     1       1.207  -0.684  -0.013  0.00  0.00    +0.053 A 
ATOM     25  C   UNL     1       0.002  -0.004   0.002  0.00  0.00    -0.035 A 
ATOM     26  O   UNL     1       3.591  -0.632  -0.034  0.00  0.00    -0.488 OA
ATOM     27  C   UNL     1       4.358  -0.510  -1.234  0.00  0.00    +0.232 C 
ATOM     28  C   UNL     1       5.186   0.764  -1.217  0.00  0.00    +0.082 C 
ATOM     29  C   UNL     1       4.323   2.016  -1.220  0.00  0.00    +0.232 C 
ATOM     30  O   UNL     1       3.554   2.104  -0.019  0.00  0.00    -0.488 OA
ENDBRANCH  19  25
ENDBRANCH   1  19
TORSDOF 4
