REMARK  Name = ZINC36531195
REMARK  12 active torsions:
REMARK  status: ('A' for Active; 'I' for Inactive)
REMARK    1  A    between atoms: C_1  and  C_2
REMARK    2  A    between atoms: C_5  and  C_8
REMARK    3  A    between atoms: C_8  and  C_10
REMARK    4  A    between atoms: C_8  and  N_24
REMARK    5  A    between atoms: N_12  and  C_13
REMARK    6  A    between atoms: C_13  and  S_14
REMARK    7  A    between atoms: S_14  and  C_17
REMARK    8  A    between atoms: C_20  and  C_23
REMARK    9  A    between atoms: N_24  and  C_25
REMARK   10  A    between atoms: C_26  and  C_28
REMARK   11  A    between atoms: C_29  and  O_35
REMARK   12  A    between atoms: C_33  and  O_34
REMARK                            x       y       z     vdW  Elec       q    Type
REMARK                         _______ _______ _______ _____ _____    ______ ____
ROOT
ATOM      1  C   UNL     1       0.066  -4.265  -0.022  0.00  0.00    +0.192 C 
ENDROOT
BRANCH   1   6
ATOM      2  C   UNL     1       0.089   1.514  -0.033  0.00  0.00    +0.044 C 
ATOM      3  C   UNL     1       0.083   0.007  -0.030  0.00  0.00    -0.050 A 
ATOM      4  C   UNL     1       0.619  -0.689  -1.098  0.00  0.00    +0.004 A 
ATOM      5  C   UNL     1       0.613  -2.071  -1.095  0.00  0.00    +0.006 A 
ATOM      6  C   UNL     1       0.072  -2.758  -0.025  0.00  0.00    -0.018 A 
ATOM      7  C   UNL     1      -0.463  -2.063   1.043  0.00  0.00    +0.006 A 
ATOM      8  C   UNL     1      -0.453  -0.680   1.043  0.00  0.00    +0.004 A 
ENDBRANCH   1   6
BRANCH   1   9
ATOM      9  C   UNL     1      -1.306  -4.760   0.357  0.00  0.00    +0.239 C 
ATOM     10  O   UNL     1      -1.449  -5.455   1.341  0.00  0.00    -0.273 OA
ATOM     11  N   UNL     1      -2.374  -4.431  -0.397  0.00  0.00    -0.294 N 
ATOM     12  H   UNL     1      -2.260  -3.875  -1.183  0.00  0.00    +0.150 HD
BRANCH  11  13
ATOM     13  C   UNL     1      -3.707  -4.913  -0.028  0.00  0.00    +0.278 C 
BRANCH  13  14
ATOM     14  S   UNL     1      -4.556  -3.648   0.957  0.00  0.00    +0.013 S 
ATOM     15  O   UNL     1      -5.875  -4.074   1.269  0.00  0.00    -0.168 OA
ATOM     16  O   UNL     1      -3.693  -3.158   1.974  0.00  0.00    -0.168 OA
BRANCH  14  17
ATOM     17  C   UNL     1      -4.772  -2.288  -0.143  0.00  0.00    +0.090 A 
ATOM     18  C   UNL     1      -3.796  -1.313  -0.237  0.00  0.00    +0.027 A 
ATOM     19  C   UNL     1      -3.966  -0.246  -1.099  0.00  0.00    +0.005 A 
ATOM     20  C   UNL     1      -5.111  -0.154  -1.869  0.00  0.00    -0.050 A 
ATOM     21  C   UNL     1      -6.086  -1.129  -1.775  0.00  0.00    +0.005 A 
ATOM     22  C   UNL     1      -5.915  -2.199  -0.916  0.00  0.00    +0.027 A 
ATOM     23  C   UNL     1      -5.296   1.009  -2.808  0.00  0.00    +0.044 C 
ENDBRANCH  14  17
ENDBRANCH  13  14
ENDBRANCH  11  13
ENDBRANCH   1   9
BRANCH   1  24
ATOM     24  N   UNL     1       1.048  -4.756   0.947  0.00  0.00    -0.285 N 
ATOM     25  C   UNL     1       0.854  -4.505   2.377  0.00  0.00    +0.133 C 
ATOM     26  C   UNL     1       2.130  -5.439   0.523  0.00  0.00    +0.254 C 
ATOM     27  O   UNL     1       2.291  -5.648  -0.664  0.00  0.00    -0.270 OA
BRANCH  26  28
ATOM     28  C   UNL     1       3.117  -5.933   1.498  0.00  0.00    +0.119 A 
ATOM     29  C   UNL     1       2.977  -7.210   2.059  0.00  0.00    +0.133 A 
ATOM     30  C   UNL     1       3.912  -7.665   2.975  0.00  0.00    +0.046 A 
ATOM     31  C   UNL     1       4.980  -6.865   3.336  0.00  0.00    +0.007 A 
ATOM     32  C   UNL     1       5.127  -5.604   2.788  0.00  0.00    +0.046 A 
ATOM     33  C   UNL     1       4.207  -5.131   1.867  0.00  0.00    +0.133 A 
BRANCH  33  34
ATOM     34  O   UNL     1       4.357  -3.896   1.326  0.00  0.00    -0.506 OA
ATOM     35  H   UNL     1       3.924  -3.192   1.828  0.00  0.00    +0.292 HD
ENDBRANCH  33  34
BRANCH  29  36
ATOM     36  O   UNL     1       1.929  -7.998   1.708  0.00  0.00    -0.506 OA
ATOM     37  H   UNL     1       2.104  -8.568   0.947  0.00  0.00    +0.292 HD
ENDBRANCH  29  36
ENDBRANCH  26  28
ENDBRANCH   1  24
TORSDOF 9
