REMARK  Name = ZINC06049226
REMARK  6 active torsions:
REMARK  status: ('A' for Active; 'I' for Inactive)
REMARK    1  A    between atoms: C_1  and  C_2
REMARK    2  A    between atoms: C_5  and  C_32
REMARK    3  A    between atoms: C_10  and  C_12
REMARK    4  A    between atoms: C_12  and  N_13
REMARK    5  A    between atoms: C_16  and  C_21
REMARK    6  A    between atoms: C_21  and  C_22
REMARK                            x       y       z     vdW  Elec       q    Type
REMARK                         _______ _______ _______ _____ _____    ______ ____
ROOT
ATOM      1  N   UNL     1      -5.269   1.644  -1.941  0.00  0.00    -0.216 N 
ATOM      2  C   UNL     1      -4.460   0.681  -1.456  0.00  0.00    +0.244 C 
ATOM      3  O   UNL     1      -4.775  -0.440  -1.122  0.00  0.00    -0.273 OA
ATOM      4  C   UNL     1      -3.073   1.293  -1.416  0.00  0.00    +0.165 C 
ATOM      5  N   UNL     1      -3.281   2.657  -1.931  0.00  0.00    -0.287 N 
ATOM      6  C   UNL     1      -4.593   2.767  -2.210  0.00  0.00    +0.310 C 
ATOM      7  O   UNL     1      -5.106   3.774  -2.656  0.00  0.00    -0.252 OA
ATOM      8  H   UNL     1      -2.605   3.342  -2.047  0.00  0.00    +0.151 HD
ENDROOT
BRANCH   1   9
ATOM      9  C   UNL     1      -6.710   1.482  -2.147  0.00  0.00    +0.213 C 
BRANCH   9  17
ATOM     10  C   UNL     1     -11.377  -0.196  -2.747  0.00  0.00    +0.009 C 
ATOM     11  C   UNL     1     -10.477   0.214  -1.579  0.00  0.00    +0.004 C 
ATOM     12  C   UNL     1     -11.343   0.687  -0.409  0.00  0.00    +0.009 C 
ATOM     13  C   UNL     1     -10.446   1.065   0.771  0.00  0.00    +0.004 C 
ATOM     14  C   UNL     1      -9.522   2.215   0.358  0.00  0.00    +0.111 C 
ATOM     15  N   UNL     1      -8.791   1.822  -0.854  0.00  0.00    -0.300 N 
ATOM     16  C   UNL     1      -9.555   1.360  -2.022  0.00  0.00    +0.111 C 
ATOM     17  C   UNL     1      -7.446   1.889  -0.897  0.00  0.00    +0.234 C 
ATOM     18  O   UNL     1      -6.827   2.276   0.072  0.00  0.00    -0.274 OA
ATOM     19  C   UNL     1      -9.603  -0.145   1.181  0.00  0.00    +0.009 C 
ENDBRANCH   9  17
ENDBRANCH   1   9
BRANCH   4  20
ATOM     20  C   UNL     1      -2.545   1.335   0.020  0.00  0.00    +0.069 C 
BRANCH  20  21
ATOM     21  C   UNL     1      -1.122   1.831   0.017  0.00  0.00    -0.020 A 
ATOM     22  C   UNL     1      -0.013   1.076   0.008  0.00  0.00    +0.087 A 
ATOM     23  N   UNL     1       1.097   1.876   0.002  0.00  0.00    -0.360 N 
ATOM     24  H   UNL     1       2.014   1.559  -0.008  0.00  0.00    +0.165 HD
ATOM     25  C   UNL     1       0.719   3.200   0.012  0.00  0.00    +0.047 A 
ATOM     26  C   UNL     1      -0.688   3.230   0.026  0.00  0.00    +0.003 A 
ATOM     27  C   UNL     1      -1.358   4.455   0.039  0.00  0.00    +0.010 A 
ATOM     28  C   UNL     1      -0.643   5.620   0.039  0.00  0.00    +0.001 A 
ATOM     29  C   UNL     1       0.744   5.595   0.026  0.00  0.00    +0.002 A 
ATOM     30  C   UNL     1       1.426   4.398   0.013  0.00  0.00    +0.026 A 
ENDBRANCH  20  21
ENDBRANCH   4  20
TORSDOF 4
