REMARK  Name = ZINC67293671
REMARK  6 active torsions:
REMARK  status: ('A' for Active; 'I' for Inactive)
REMARK    1  A    between atoms: C_1  and  O_2
REMARK    2  A    between atoms: O_2  and  C_3
REMARK    3  A    between atoms: N_11  and  C_12
REMARK    4  A    between atoms: C_18  and  C_20
REMARK    5  A    between atoms: N_22  and  C_23
REMARK    6  A    between atoms: C_23  and  C_24
REMARK                            x       y       z     vdW  Elec       q    Type
REMARK                         _______ _______ _______ _____ _____    ______ ____
ROOT
ATOM      1  C   UNL     1       0.535  -0.652  -1.121  0.00  0.00    +0.163 A 
ATOM      2  C   UNL     1       1.088   0.116  -2.132  0.00  0.00    +0.049 A 
ATOM      3  C   UNL     1       1.728  -0.484  -3.205  0.00  0.00    +0.004 A 
ATOM      4  C   UNL     1       1.823  -1.856  -3.284  0.00  0.00    +0.012 A 
ATOM      5  C   UNL     1       1.267  -2.648  -2.272  0.00  0.00    +0.022 A 
ATOM      6  C   UNL     1       0.626  -2.039  -1.178  0.00  0.00    +0.179 A 
ATOM      7  O   UNL     1       0.100  -2.807  -0.191  0.00  0.00    -0.435 OA
ATOM      8  C   UNL     1      -0.295  -4.060  -0.529  0.00  0.00    +0.212 A 
ATOM      9  N   UNL     1      -1.409  -4.572  -0.051  0.00  0.00    -0.325 N 
ATOM     10  C   UNL     1       0.564  -4.832  -1.449  0.00  0.00    +0.097 A 
ATOM     11  C   UNL     1       1.347  -4.110  -2.336  0.00  0.00    +0.030 A 
ATOM     12  H   UNL     1      -1.723  -5.433  -0.369  0.00  0.00    +0.169 HD
ENDROOT
BRANCH   9  13
ATOM     13  C   UNL     1      -2.125  -3.890   0.894  0.00  0.00    +0.042 A 
ATOM     14  C   UNL     1      -1.470  -3.295   1.976  0.00  0.00    +0.026 A 
ATOM     15  C   UNL     1      -2.199  -2.609   2.925  0.00  0.00    +0.002 A 
ATOM     16  C   UNL     1      -3.574  -2.509   2.808  0.00  0.00    +0.000 A 
ATOM     17  C   UNL     1      -4.228  -3.096   1.739  0.00  0.00    +0.002 A 
ATOM     18  C   UNL     1      -3.513  -3.780   0.779  0.00  0.00    +0.026 A 
ENDBRANCH   9  13
BRANCH  10  19
ATOM     19  C   UNL     1       0.578  -6.305  -1.433  0.00  0.00    +0.249 C 
ATOM     20  O   UNL     1      -0.184  -6.913  -0.705  0.00  0.00    -0.270 OA
ATOM     21  N   UNL     1       1.435  -6.979  -2.225  0.00  0.00    -0.309 N 
ATOM     22  H   UNL     1       2.092  -6.496  -2.750  0.00  0.00    +0.149 HD
BRANCH  21  23
ATOM     23  C   UNL     1       1.373  -8.441  -2.293  0.00  0.00    +0.136 C 
BRANCH  23  24
ATOM     24  C   UNL     1       2.446  -8.952  -3.257  0.00  0.00    +0.135 C 
ATOM     25  C   UNL     1       2.311 -10.481  -3.429  0.00  0.00    +0.035 C 
ATOM     26  C   UNL     1       3.794 -10.940  -3.470  0.00  0.00    +0.031 C 
ATOM     27  C   UNL     1       4.443  -9.927  -2.494  0.00  0.00    +0.160 C 
ATOM     28  O   UNL     1       3.748  -8.689  -2.720  0.00  0.00    -0.375 OA
ENDBRANCH  23  24
ENDBRANCH  21  23
ENDBRANCH  10  19
BRANCH   1  30
ATOM     29  C   UNL     1      -0.144   1.376  -0.081  0.00  0.00    +0.277 C 
ATOM     30  O   UNL     1      -0.089  -0.052  -0.073  0.00  0.00    -0.491 OA
ENDBRANCH   1  30
TORSDOF 5
