REMARK  Name = ZINC66057867
REMARK  5 active torsions:
REMARK  status: ('A' for Active; 'I' for Inactive)
REMARK    1  A    between atoms: C_1  and  C_2
REMARK    2  A    between atoms: C_7  and  N_12
REMARK    3  A    between atoms: C_9  and  C_11
REMARK    4  A    between atoms: C_13  and  C_15
REMARK    5  A    between atoms: C_15  and  N_16
REMARK                            x       y       z     vdW  Elec       q    Type
REMARK                         _______ _______ _______ _____ _____    ______ ____
ROOT
ATOM      1  N   UNL     1       1.473  -5.605   4.455  0.00  0.00    -0.215 N 
ATOM      2  C   UNL     1       0.433  -5.874   5.271  0.00  0.00    +0.247 C 
ATOM      3  O   UNL     1      -0.270  -5.075   5.853  0.00  0.00    -0.273 OA
ATOM      4  C   UNL     1       0.330  -7.380   5.308  0.00  0.00    +0.117 C 
ATOM      5  C   UNL     1      -1.022  -7.837   4.766  0.00  0.00    +0.040 C 
ATOM      6  C   UNL     1      -0.977  -9.351   4.562  0.00  0.00    +0.038 C 
ATOM      7  C   UNL     1      -0.468 -10.040   5.801  0.00  0.00    -0.044 A 
ATOM      8  C   UNL     1      -0.719 -11.400   5.932  0.00  0.00    +0.004 A 
ATOM      9  C   UNL     1      -0.275 -12.092   7.039  0.00  0.00    +0.000 A 
ATOM     10  C   UNL     1       0.427 -11.429   8.028  0.00  0.00    +0.000 A 
ATOM     11  C   UNL     1       0.676 -10.078   7.902  0.00  0.00    +0.004 A 
ATOM     12  C   UNL     1       0.227  -9.379   6.789  0.00  0.00    -0.042 A 
ATOM     13  C   UNL     1       0.519  -7.901   6.724  0.00  0.00    +0.070 C 
ATOM     14  N   UNL     1       1.416  -7.836   4.433  0.00  0.00    -0.285 N 
ATOM     15  C   UNL     1       2.026  -6.726   3.975  0.00  0.00    +0.310 C 
ATOM     16  O   UNL     1       2.975  -6.740   3.215  0.00  0.00    -0.252 OA
ATOM     17  H   UNL     1       1.647  -8.755   4.223  0.00  0.00    +0.151 HD
ENDROOT
BRANCH   1  18
ATOM     18  C   UNL     1       1.936  -4.254   4.128  0.00  0.00    +0.213 C 
BRANCH  18  20
ATOM     19  N   UNL     1       1.471  -2.526   2.420  0.00  0.00    -0.311 N 
ATOM     20  C   UNL     1       1.207  -3.754   2.907  0.00  0.00    +0.231 C 
ATOM     21  O   UNL     1       0.382  -4.458   2.364  0.00  0.00    -0.274 OA
ATOM     22  H   UNL     1       2.131  -1.963   2.855  0.00  0.00    +0.149 HD
BRANCH  19  28
ATOM     23  C   UNL     1      -0.019   1.526   0.010  0.00  0.00    +0.008 C 
ATOM     24  C   UNL     1       0.002  -0.004   0.002  0.00  0.00    -0.009 C 
ATOM     25  C   UNL     1       0.718  -0.497  -1.257  0.00  0.00    +0.003 C 
ATOM     26  C   UNL     1       0.739  -2.027  -1.265  0.00  0.00    +0.002 C 
ATOM     27  C   UNL     1       1.479  -2.534  -0.026  0.00  0.00    +0.022 C 
ATOM     28  C   UNL     1       0.763  -2.041   1.233  0.00  0.00    +0.076 C 
ATOM     29  C   UNL     1       0.742  -0.511   1.242  0.00  0.00    +0.009 C 
ATOM     30  C   UNL     1       0.026  -0.018   2.500  0.00  0.00    +0.009 C 
ENDBRANCH  19  28
ENDBRANCH  18  20
ENDBRANCH   1  18
TORSDOF 3
