REMARK  Name = ZINC20918437
REMARK  13 active torsions:
REMARK  status: ('A' for Active; 'I' for Inactive)
REMARK    1  A    between atoms: C_1  and  C_2
REMARK    2  A    between atoms: C_5  and  C_8
REMARK    3  A    between atoms: C_8  and  N_9
REMARK    4  A    between atoms: C_17  and  O_40
REMARK    5  A    between atoms: C_22  and  C_23
REMARK    6  A    between atoms: C_22  and  C_24
REMARK    7  A    between atoms: N_26  and  C_27
REMARK    8  A    between atoms: C_27  and  C_28
REMARK    9  A    between atoms: C_28  and  C_29
REMARK   10  A    between atoms: C_29  and  N_30
REMARK   11  A    between atoms: C_32  and  C_39
REMARK   12  A    between atoms: C_35  and  C_38
REMARK   13  A    between atoms: O_40  and  C_41
REMARK                            x       y       z     vdW  Elec       q    Type
REMARK                         _______ _______ _______ _____ _____    ______ ____
ROOT
ATOM      1  N   UNL     1       1.570  -4.800   0.002  0.00  0.00    -0.276 N 
ATOM      2  C   UNL     1       2.332  -5.253  -1.021  0.00  0.00    +0.264 C 
ATOM      3  O   UNL     1       2.094  -4.956  -2.177  0.00  0.00    -0.268 OA
ATOM      4  C   UNL     1       3.464  -6.124  -0.662  0.00  0.00    +0.106 A 
ATOM      5  C   UNL     1       4.485  -6.572  -1.423  0.00  0.00    +0.041 A 
ATOM      6  C   UNL     1       5.309  -7.360  -0.599  0.00  0.00    +0.001 A 
ATOM      7  C   UNL     1       6.497  -8.058  -0.866  0.00  0.00    +0.013 A 
ATOM      8  C   UNL     1       7.066  -8.740   0.176  0.00  0.00    +0.046 A 
ATOM      9  C   UNL     1       6.503  -8.749   1.449  0.00  0.00    +0.122 A 
ATOM     10  C   UNL     1       5.329  -8.068   1.742  0.00  0.00    +0.072 A 
ATOM     11  C   UNL     1       4.726  -7.366   0.699  0.00  0.00    +0.053 A 
ATOM     12  N   UNL     1       3.599  -6.617   0.640  0.00  0.00    -0.334 N 
ATOM     13  C   UNL     1       2.607  -6.314   1.677  0.00  0.00    +0.157 C 
ATOM     14  C   UNL     1       1.984  -4.944   1.393  0.00  0.00    +0.129 C 
ATOM     15  C   UNL     1       0.761  -4.760   2.294  0.00  0.00    +0.043 C 
ENDROOT
BRANCH  14  16
ATOM     16  C   UNL     1       2.990  -3.870   1.715  0.00  0.00    +0.238 C 
ATOM     17  O   UNL     1       3.914  -4.109   2.464  0.00  0.00    -0.273 OA
ATOM     18  N   UNL     1       2.863  -2.643   1.172  0.00  0.00    -0.314 N 
ATOM     19  H   UNL     1       2.087  -2.430   0.631  0.00  0.00    +0.149 HD
BRANCH  18  20
ATOM     20  C   UNL     1       3.898  -1.631   1.398  0.00  0.00    +0.102 C 
BRANCH  20  21
ATOM     21  C   UNL     1       3.456  -0.302   0.781  0.00  0.00    +0.000 C 
BRANCH  21  22
ATOM     22  C   UNL     1       4.587   0.721   0.909  0.00  0.00    -0.077 C 
BRANCH  22  23
ATOM     23  N   UNL     1       4.162   1.996   0.317  0.00  0.00    +0.380 N 
ATOM     24  C   UNL     1       3.950   1.818  -1.125  0.00  0.00    -0.076 C 
ATOM     25  C   UNL     1       3.430   3.122  -1.733  0.00  0.00    -0.031 C 
ATOM     26  C   UNL     1       4.458   4.233  -1.500  0.00  0.00    +0.003 C 
ATOM     27  C   UNL     1       4.727   4.359   0.002  0.00  0.00    -0.031 C 
ATOM     28  C   UNL     1       5.199   3.009   0.546  0.00  0.00    -0.076 C 
ATOM     29  C   UNL     1       5.810   5.414   0.240  0.00  0.00    +0.005 C 
ATOM     30  C   UNL     1       3.211   2.934  -3.235  0.00  0.00    +0.005 C 
ATOM     31  H   UNL     1       3.300   2.295   0.747  0.00  0.00    -0.082 HD
ENDBRANCH  22  23
ENDBRANCH  21  22
ENDBRANCH  20  21
ENDBRANCH  18  20
ENDBRANCH  14  16
BRANCH   9  32
ATOM     32  O   UNL     1       7.122  -9.446   2.437  0.00  0.00    -0.495 OA
ATOM     33  C   UNL     1       8.327 -10.131   2.090  0.00  0.00    +0.277 C 
ENDBRANCH   9  32
BRANCH   1  34
ATOM     34  C   UNL     1       0.296  -4.141  -0.297  0.00  0.00    +0.144 C 
BRANCH  34  39
ATOM     35  C   UNL     1      -3.825  -8.131  -0.992  0.00  0.00    +0.044 C 
ATOM     36  C   UNL     1      -2.750  -7.091  -0.811  0.00  0.00    -0.050 A 
ATOM     37  C   UNL     1      -2.606  -6.451   0.406  0.00  0.00    +0.003 A 
ATOM     38  C   UNL     1      -1.620  -5.496   0.572  0.00  0.00    +0.005 A 
ATOM     39  C   UNL     1      -0.778  -5.182  -0.478  0.00  0.00    -0.030 A 
ATOM     40  C   UNL     1      -0.922  -5.823  -1.694  0.00  0.00    +0.005 A 
ATOM     41  C   UNL     1      -1.905  -6.781  -1.859  0.00  0.00    +0.003 A 
ENDBRANCH  34  39
ENDBRANCH   1  34
TORSDOF 8
