REMARK  Name = ZINC59152815
REMARK  6 active torsions:
REMARK  status: ('A' for Active; 'I' for Inactive)
REMARK    1  A    between atoms: C_4  and  O_7
REMARK    2  A    between atoms: O_7  and  C_8
REMARK    3  A    between atoms: C_8  and  C_9
REMARK    4  A    between atoms: C_9  and  N_10
REMARK    5  A    between atoms: N_18  and  N_19
REMARK    6  A    between atoms: C_20  and  C_22
REMARK                            x       y       z     vdW  Elec       q    Type
REMARK                         _______ _______ _______ _____ _____    ______ ____
ROOT
ATOM      1  N   UNL     1       5.546  -2.202   1.224  0.00  0.00    -0.262 N 
ATOM      2  C   UNL     1       6.510  -1.203   1.312  0.00  0.00    +0.046 A 
ATOM      3  C   UNL     1       6.944  -0.254   0.392  0.00  0.00    +0.024 A 
ATOM      4  C   UNL     1       7.936   0.641   0.736  0.00  0.00    +0.002 A 
ATOM      5  C   UNL     1       8.511   0.608   1.996  0.00  0.00    +0.001 A 
ATOM      6  C   UNL     1       8.092  -0.327   2.922  0.00  0.00    +0.012 A 
ATOM      7  C   UNL     1       7.093  -1.233   2.585  0.00  0.00    +0.028 A 
ATOM      8  C   UNL     1       6.432  -2.334   3.322  0.00  0.00    +0.153 C 
ATOM      9  N   UNL     1       6.663  -2.723   4.553  0.00  0.00    -0.175 NA
ATOM     10  C   UNL     1       5.450  -2.894   2.371  0.00  0.00    +0.271 C 
ATOM     11  O   UNL     1       4.691  -3.821   2.587  0.00  0.00    -0.268 OA
ENDROOT
BRANCH   9  12
ATOM     12  N   UNL     1       7.528  -1.984   5.370  0.00  0.00    -0.206 N 
ATOM     13  C   UNL     1       7.855  -2.444   6.594  0.00  0.00    +0.244 C 
ATOM     14  O   UNL     1       7.401  -3.497   6.988  0.00  0.00    -0.273 OA
ATOM     15  H   UNL     1       7.891  -1.142   5.055  0.00  0.00    +0.177 HD
BRANCH  13  16
ATOM     16  C   UNL     1       8.786  -1.649   7.473  0.00  0.00    +0.162 C 
ATOM     17  C   UNL     1       8.993  -2.391   8.796  0.00  0.00    +0.024 C 
ATOM     18  C   UNL     1       9.709  -1.450   9.772  0.00  0.00    +0.020 C 
ATOM     19  C   UNL     1       8.761  -0.306  10.134  0.00  0.00    +0.104 C 
ATOM     20  N   UNL     1       8.208   0.298   8.929  0.00  0.00    -0.315 N 
ATOM     21  C   UNL     1       8.190  -0.296   7.736  0.00  0.00    +0.225 C 
ATOM     22  O   UNL     1       7.664   0.289   6.813  0.00  0.00    -0.275 OA
ATOM     23  H   UNL     1       7.828   1.188   8.999  0.00  0.00    +0.149 HD
ENDBRANCH  13  16
ENDBRANCH   9  12
BRANCH   1  24
ATOM     24  C   UNL     1       4.734  -2.462   0.032  0.00  0.00    +0.155 C 
BRANCH  24  25
ATOM     25  C   UNL     1       3.455  -1.625   0.094  0.00  0.00    +0.248 C 
BRANCH  25  26
ATOM     26  O   UNL     1       3.790  -0.237   0.028  0.00  0.00    -0.490 OA
BRANCH  26  30
ATOM     27  C   UNL     1       0.664   2.452   0.158  0.00  0.00    +0.000 A 
ATOM     28  C   UNL     1       1.964   2.910   0.055  0.00  0.00    +0.004 A 
ATOM     29  C   UNL     1       3.013   2.011   0.011  0.00  0.00    +0.045 A 
ATOM     30  C   UNL     1       2.760   0.648   0.071  0.00  0.00    +0.121 A 
ATOM     31  C   UNL     1       1.454   0.192   0.175  0.00  0.00    +0.045 A 
ATOM     32  C   UNL     1       0.409   1.094   0.218  0.00  0.00    +0.004 A 
ENDBRANCH  26  30
ENDBRANCH  25  26
ENDBRANCH  24  25
ENDBRANCH   1  24
TORSDOF 6
