REMARK  Name = ZINC35480544
REMARK  4 active torsions:
REMARK  status: ('A' for Active; 'I' for Inactive)
REMARK    1  A    between atoms: N_16  and  C_17
REMARK    2  A    between atoms: C_17  and  C_18
REMARK    3  A    between atoms: N_20  and  C_21
REMARK    4  A    between atoms: C_21  and  C_22
REMARK                            x       y       z     vdW  Elec       q    Type
REMARK                         _______ _______ _______ _____ _____    ______ ____
ROOT
ATOM      1  C   UNL     1      -0.013   1.376   0.166  0.00  0.00    +0.002 A 
ATOM      2  C   UNL     1       1.170   2.089   0.147  0.00  0.00    +0.002 A 
ATOM      3  C   UNL     1       2.383   1.424   0.079  0.00  0.00    +0.025 A 
ATOM      4  C   UNL     1       2.407   0.042   0.030  0.00  0.00    +0.058 A 
ATOM      5  C   UNL     1       1.214  -0.679   0.048  0.00  0.00    +0.053 A 
ATOM      6  C   UNL     1       0.005  -0.007   0.117  0.00  0.00    +0.025 A 
ATOM      7  N   UNL     1       1.040  -2.069   0.004  0.00  0.00    -0.316 N 
ATOM      8  C   UNL     1       1.989  -3.059  -0.073  0.00  0.00    +0.016 C 
ATOM      9  C   UNL     1       1.597  -4.521  -0.119  0.00  0.00    +0.051 C 
ATOM     10  C   UNL     1       2.852  -5.256  -0.637  0.00  0.00    +0.011 C 
ATOM     11  C   UNL     1       3.982  -4.299  -0.200  0.00  0.00    +0.042 C 
ATOM     12  C   UNL     1       3.331  -2.933  -0.119  0.00  0.00    +0.032 C 
ATOM     13  H   UNL     1       0.119  -2.375   0.032  0.00  0.00    +0.152 HD
ATOM     14  C   UNL     1       4.110  -1.747  -0.099  0.00  0.00    +0.249 C 
ATOM     15  O   UNL     1       5.315  -1.919  -0.148  0.00  0.00    -0.270 OA
ATOM     16  N   UNL     1       3.717  -0.462  -0.036  0.00  0.00    -0.257 N 
ENDROOT
BRANCH  16  17
ATOM     17  C   UNL     1       4.789   0.536  -0.035  0.00  0.00    +0.209 C 
BRANCH  17  18
ATOM     18  C   UNL     1       5.083   0.956   1.382  0.00  0.00    +0.231 C 
ATOM     19  O   UNL     1       4.459   0.469   2.301  0.00  0.00    -0.274 OA
ATOM     20  N   UNL     1       6.040   1.873   1.629  0.00  0.00    -0.310 N 
ATOM     21  H   UNL     1       6.539   2.263   0.894  0.00  0.00    +0.149 HD
BRANCH  20  22
ATOM     22  C   UNL     1       6.326   2.280   3.006  0.00  0.00    +0.139 C 
BRANCH  22  23
ATOM     23  C   UNL     1       7.428   3.308   3.008  0.00  0.00    -0.030 A 
ATOM     24  C   UNL     1       8.748   2.905   3.092  0.00  0.00    +0.006 A 
ATOM     25  C   UNL     1       9.760   3.847   3.093  0.00  0.00    +0.020 A 
ATOM     26  C   UNL     1       9.451   5.193   3.010  0.00  0.00    +0.041 A 
ATOM     27  C   UNL     1       8.130   5.595   2.925  0.00  0.00    +0.020 A 
ATOM     28  C   UNL     1       7.120   4.652   2.919  0.00  0.00    +0.006 A 
ATOM     29 CL   UNL     1      10.721   6.376   3.011  0.00  0.00    -0.084 Cl
ENDBRANCH  22  23
ENDBRANCH  20  22
ENDBRANCH  17  18
ENDBRANCH  16  17
TORSDOF 4
