REMARK  Name = ZINC41065352
REMARK  7 active torsions:
REMARK  status: ('A' for Active; 'I' for Inactive)
REMARK    1  A    between atoms: C_1  and  C_2
REMARK    2  A    between atoms: C_2  and  N_3
REMARK    3  A    between atoms: C_7  and  C_9
REMARK    4  A    between atoms: C_9  and  C_11
REMARK    5  A    between atoms: C_9  and  N_12
REMARK    6  A    between atoms: N_12  and  C_13
REMARK    7  A    between atoms: C_13  and  C_14
REMARK                            x       y       z     vdW  Elec       q    Type
REMARK                         _______ _______ _______ _____ _____    ______ ____
ROOT
ATOM      1  C   UNL     1       2.302  -4.041  -3.995  0.00  0.00    +0.014 C 
ATOM      2  C   UNL     1       3.737  -3.512  -4.006  0.00  0.00    -0.004 C 
ENDROOT
BRANCH   1   7
ATOM      3  N   UNL     1       0.688  -0.476  -1.203  0.00  0.00    -0.299 N 
ATOM      4  C   UNL     1       0.827  -1.799  -1.425  0.00  0.00    +0.306 C 
ATOM      5  O   UNL     1       0.383  -2.599  -0.625  0.00  0.00    -0.252 OA
ATOM      6  N   UNL     1       1.458  -2.233  -2.534  0.00  0.00    -0.242 N 
ATOM      7  C   UNL     1       1.597  -3.555  -2.756  0.00  0.00    +0.206 C 
ATOM      8  O   UNL     1       1.154  -4.354  -1.958  0.00  0.00    -0.277 OA
ATOM      9  H   UNL     1       1.042   0.162  -1.842  0.00  0.00    +0.150 HD
ATOM     10  H   UNL     1       1.812  -1.595  -3.172  0.00  0.00    +0.159 HD
BRANCH   3  12
ATOM     11  C   UNL     1      -0.019   1.526   0.010  0.00  0.00    +0.024 C 
ATOM     12  C   UNL     1       0.002  -0.004   0.002  0.00  0.00    +0.102 C 
ENDBRANCH   3  12
ENDBRANCH   1   7
BRANCH   1  13
ATOM     13  N   UNL     1       2.322  -5.510  -4.004  0.00  0.00    +0.389 N 
ATOM     14  H   UNL     1       2.880  -5.843  -3.231  0.00  0.00    -0.084 HD
ATOM     15  H   UNL     1       1.380  -5.860  -3.913  0.00  0.00    -0.084 HD
BRANCH  13  16
ATOM     16  C   UNL     1       2.902  -5.985  -5.267  0.00  0.00    -0.043 C 
BRANCH  16  17
ATOM     17  C   UNL     1       2.922  -7.492  -5.275  0.00  0.00    -0.028 A 
ATOM     18  C   UNL     1       4.089  -8.169  -4.975  0.00  0.00    +0.019 A 
ATOM     19  C   UNL     1       4.108  -9.552  -4.982  0.00  0.00    +0.018 A 
ATOM     20  C   UNL     1       2.959 -10.258  -5.291  0.00  0.00    +0.018 A 
ATOM     21  C   UNL     1       1.792  -9.583  -5.591  0.00  0.00    +0.039 A 
ATOM     22  C   UNL     1       1.771  -8.198  -5.578  0.00  0.00    +0.125 A 
ATOM     23  F   UNL     1       0.629  -7.537  -5.867  0.00  0.00    -0.205 F 
ATOM     24 BR   UNL     1       5.705 -10.477  -4.571  0.00  0.00    -0.050 Br
ENDBRANCH  16  17
ENDBRANCH  13  16
ENDBRANCH   1  13
TORSDOF 5
