REMARK  Name = ZINC38994772
REMARK  7 active torsions:
REMARK  status: ('A' for Active; 'I' for Inactive)
REMARK    1  A    between atoms: C_4  and  O_37
REMARK    2  A    between atoms: C_5  and  C_7
REMARK    3  A    between atoms: C_10  and  C_12
REMARK    4  A    between atoms: N_14  and  C_15
REMARK    5  A    between atoms: C_17  and  C_28
REMARK    6  A    between atoms: N_30  and  C_31
REMARK    7  A    between atoms: C_31  and  C_32
REMARK                            x       y       z     vdW  Elec       q    Type
REMARK                         _______ _______ _______ _____ _____    ______ ____
ROOT
ATOM      1  C   UNL     1       0.464  -8.450   0.335  0.00  0.00    +0.144 C 
ATOM      2  C   UNL     1       0.938  -9.199  -0.926  0.00  0.00    +0.109 C 
ATOM      3  C   UNL     1       0.001  -9.062  -2.101  0.00  0.00    +0.016 C 
ATOM      4  C   UNL     1       0.667  -8.904  -3.429  0.00  0.00    +0.005 C 
ATOM      5  C   UNL     1       0.633  -7.500  -4.002  0.00  0.00    +0.000 C 
ATOM      6  C   UNL     1      -0.766  -6.899  -3.884  0.00  0.00    +0.001 C 
ATOM      7  C   UNL     1      -1.157  -6.845  -2.407  0.00  0.00    +0.014 C 
ATOM      8  C   UNL     1      -1.260  -8.250  -1.863  0.00  0.00    +0.052 C 
ATOM      9  S   UNL     1      -1.317  -8.148  -0.012  0.00  0.00    -0.134 S 
ENDROOT
BRANCH   1  12
ATOM     10  C   UNL     1       0.602  -6.150   1.127  0.00  0.00    +0.261 C 
ATOM     11  O   UNL     1      -0.553  -6.239   1.501  0.00  0.00    -0.269 OA
ATOM     12  N   UNL     1       1.185  -7.185   0.489  0.00  0.00    -0.298 N 
ATOM     13  H   UNL     1       2.082  -7.091   0.133  0.00  0.00    +0.150 HD
BRANCH  10  17
ATOM     14  C   UNL     1       2.112  -2.777   1.997  0.00  0.00    +0.080 C 
ATOM     15  N   UNL     1       3.010  -3.508   1.373  0.00  0.00    -0.153 NA
ATOM     16  N   UNL     1       2.598  -4.667   1.036  0.00  0.00    -0.148 NA
ATOM     17  C   UNL     1       1.359  -4.919   1.371  0.00  0.00    +0.131 C 
ATOM     18  C   UNL     1       0.878  -3.661   2.075  0.00  0.00    +0.120 C 
BRANCH  14  23
ATOM     19  C   UNL     1       1.359   0.503   3.639  0.00  0.00    +0.001 A 
ATOM     20  C   UNL     1       2.565   1.168   3.480  0.00  0.00    +0.004 A 
ATOM     21  C   UNL     1       3.625   0.555   2.841  0.00  0.00    +0.046 A 
ATOM     22  C   UNL     1       3.490  -0.734   2.351  0.00  0.00    +0.126 A 
ATOM     23  C   UNL     1       2.269  -1.415   2.509  0.00  0.00    +0.040 A 
ATOM     24  C   UNL     1       1.203  -0.778   3.161  0.00  0.00    +0.013 A 
BRANCH  22  25
ATOM     25  O   UNL     1       4.530  -1.337   1.722  0.00  0.00    -0.506 OA
ATOM     26  H   UNL     1       5.112  -1.835   2.313  0.00  0.00    +0.292 HD
ENDBRANCH  22  25
ENDBRANCH  14  23
ENDBRANCH  10  17
ENDBRANCH   1  12
BRANCH   2  27
ATOM     27  C   UNL     1       2.288  -8.662  -1.327  0.00  0.00    +0.219 C 
ATOM     28  O   UNL     1       2.382  -7.547  -1.796  0.00  0.00    -0.275 OA
ATOM     29  N   UNL     1       3.390  -9.420  -1.163  0.00  0.00    -0.308 N 
ATOM     30  H   UNL     1       3.315 -10.311  -0.788  0.00  0.00    +0.149 HD
BRANCH  29  31
ATOM     31  C   UNL     1       4.702  -8.898  -1.552  0.00  0.00    +0.178 C 
BRANCH  31  32
ATOM     32  C   UNL     1       5.759  -9.934  -1.269  0.00  0.00    +0.122 A 
ATOM     33  C   UNL     1       6.181 -10.882  -2.126  0.00  0.00    +0.046 A 
ATOM     34  C   UNL     1       7.174 -11.630  -1.452  0.00  0.00    +0.041 A 
ATOM     35  C   UNL     1       7.299 -11.095  -0.224  0.00  0.00    +0.195 A 
ATOM     36  O   UNL     1       6.444 -10.064  -0.121  0.00  0.00    -0.466 OA
ENDBRANCH  31  32
ENDBRANCH  29  31
ENDBRANCH   2  27
TORSDOF 7
