REMARK  Name = ZINC36829710
REMARK  4 active torsions:
REMARK  status: ('A' for Active; 'I' for Inactive)
REMARK    1  A    between atoms: C_1  and  C_2
REMARK    2  A    between atoms: C_7  and  C_8
REMARK    3  A    between atoms: C_8  and  C_10
REMARK    4  A    between atoms: C_8  and  N_21
REMARK                            x       y       z     vdW  Elec       q    Type
REMARK                         _______ _______ _______ _____ _____    ______ ____
ROOT
ATOM      1  C   UNL     1       0.034   0.231   2.389  0.00  0.00    -0.012 C 
ENDROOT
BRANCH   1   2
ATOM      2  C   UNL     1       1.388   0.852   2.617  0.00  0.00    -0.040 A 
ATOM      3  C   UNL     1       2.345   0.173   3.348  0.00  0.00    +0.052 A 
ATOM      4  C   UNL     1       3.592   0.742   3.559  0.00  0.00    +0.162 A 
ATOM      5  C   UNL     1       3.878   1.996   3.031  0.00  0.00    +0.163 A 
ATOM      6  C   UNL     1       2.913   2.673   2.301  0.00  0.00    +0.065 A 
ATOM      7  C   UNL     1       1.673   2.099   2.090  0.00  0.00    +0.023 A 
ATOM      8 BR   UNL     1       0.363   3.021   1.086  0.00  0.00    -0.050 Br
ATOM      9  O   UNL     1       5.098   2.569   3.220  0.00  0.00    -0.485 OA
ATOM     10  C   UNL     1       5.908   2.027   4.268  0.00  0.00    +0.270 C 
ATOM     11  C   UNL     1       5.880   0.497   4.155  0.00  0.00    +0.270 C 
ATOM     12  O   UNL     1       4.522   0.063   4.284  0.00  0.00    -0.485 OA
ENDBRANCH   1   2
BRANCH   1  19
ATOM     13  C   UNL     1      -2.472  -0.440   1.118  0.00  0.00    +0.044 C 
ATOM     14  C   UNL     1      -1.169  -0.814   0.459  0.00  0.00    -0.048 A 
ATOM     15  C   UNL     1      -1.173  -1.472  -0.757  0.00  0.00    +0.018 A 
ATOM     16  C   UNL     1       0.022  -1.815  -1.362  0.00  0.00    +0.018 A 
ATOM     17  C   UNL     1       1.222  -1.498  -0.750  0.00  0.00    +0.015 A 
ATOM     18  C   UNL     1       1.225  -0.839   0.465  0.00  0.00    +0.003 A 
ATOM     19  C   UNL     1       0.030  -0.493   1.067  0.00  0.00    -0.055 A 
ATOM     20 BR   UNL     1       0.017  -2.716  -3.024  0.00  0.00    -0.050 Br
ENDBRANCH   1  19
BRANCH   1  21
ATOM     21  N   UNL     1      -0.255  -0.722   3.469  0.00  0.00    +0.385 N 
ATOM     22  H   UNL     1      -1.196  -1.071   3.366  0.00  0.00    -0.089 HD
ATOM     23  H   UNL     1       0.396  -1.492   3.422  0.00  0.00    -0.089 HD
ATOM     24  H   UNL     1      -0.164  -0.258   4.360  0.00  0.00    -0.089 HD
ENDBRANCH   1  21
TORSDOF 3
