REMARK  Name = ZINC36592863
REMARK  13 active torsions:
REMARK  status: ('A' for Active; 'I' for Inactive)
REMARK    1  A    between atoms: C_1  and  C_2
REMARK    2  A    between atoms: C_5  and  S_8
REMARK    3  A    between atoms: S_8  and  C_11
REMARK    4  A    between atoms: C_11  and  N_12
REMARK    5  A    between atoms: C_13  and  C_15
REMARK    6  A    between atoms: C_15  and  C_17
REMARK    7  A    between atoms: C_15  and  N_24
REMARK    8  A    between atoms: C_22  and  O_23
REMARK    9  A    between atoms: N_24  and  C_34
REMARK   10  A    between atoms: C_25  and  C_27
REMARK   11  A    between atoms: C_34  and  C_35
REMARK   12  A    between atoms: C_34  and  C_36
REMARK   13  A    between atoms: C_34  and  C_37
REMARK                            x       y       z     vdW  Elec       q    Type
REMARK                         _______ _______ _______ _____ _____    ______ ____
ROOT
ATOM      1  C   UNL     1       2.423  -5.156   2.934  0.00  0.00    +0.196 C 
ENDROOT
BRANCH   1   2
ATOM      2  C   UNL     1       3.717  -4.384   2.949  0.00  0.00    +0.023 A 
ATOM      3  C   UNL     1       4.872  -4.979   3.418  0.00  0.00    +0.009 A 
ATOM      4  C   UNL     1       6.059  -4.271   3.432  0.00  0.00    +0.001 A 
ATOM      5  C   UNL     1       6.094  -2.966   2.977  0.00  0.00    +0.004 A 
ATOM      6  C   UNL     1       4.942  -2.367   2.506  0.00  0.00    +0.046 A 
ATOM      7  C   UNL     1       3.751  -3.077   2.486  0.00  0.00    +0.122 A 
BRANCH   7   8
ATOM      8  O   UNL     1       2.617  -2.491   2.018  0.00  0.00    -0.506 OA
ATOM      9  H   UNL     1       2.105  -2.029   2.696  0.00  0.00    +0.292 HD
ENDBRANCH   7   8
ENDBRANCH   1   2
BRANCH   1  11
ATOM     10  N   UNL     1       2.848  -5.611   0.540  0.00  0.00    -0.294 N 
ATOM     11  C   UNL     1       2.389  -6.057   1.727  0.00  0.00    +0.239 C 
ATOM     12  O   UNL     1       1.949  -7.183   1.822  0.00  0.00    -0.273 OA
ATOM     13  H   UNL     1       3.199  -4.710   0.464  0.00  0.00    +0.150 HD
BRANCH  10  14
ATOM     14  C   UNL     1       2.815  -6.487  -0.634  0.00  0.00    +0.278 C 
BRANCH  14  15
ATOM     15  S   UNL     1       1.305  -6.165  -1.586  0.00  0.00    +0.013 S 
ATOM     16  O   UNL     1       0.179  -6.128  -0.721  0.00  0.00    -0.168 OA
ATOM     17  O   UNL     1       1.289  -6.962  -2.762  0.00  0.00    -0.168 OA
BRANCH  15  22
ATOM     18  C   UNL     1       1.902  -0.500  -3.576  0.00  0.00    +0.044 C 
ATOM     19  C   UNL     1       1.753  -1.915  -3.079  0.00  0.00    -0.050 A 
ATOM     20  C   UNL     1       2.224  -2.968  -3.841  0.00  0.00    +0.005 A 
ATOM     21  C   UNL     1       2.087  -4.266  -3.385  0.00  0.00    +0.027 A 
ATOM     22  C   UNL     1       1.480  -4.510  -2.167  0.00  0.00    +0.090 A 
ATOM     23  C   UNL     1       1.010  -3.457  -1.405  0.00  0.00    +0.027 A 
ATOM     24  C   UNL     1       1.151  -2.159  -1.859  0.00  0.00    +0.005 A 
ENDBRANCH  15  22
ENDBRANCH  14  15
ENDBRANCH  10  14
ENDBRANCH   1  11
BRANCH   1  25
ATOM     25  N   UNL     1       2.324  -5.966   4.151  0.00  0.00    -0.277 N 
ATOM     26  C   UNL     1       3.360  -6.739   4.532  0.00  0.00    +0.249 C 
ATOM     27  O   UNL     1       3.645  -6.837   5.710  0.00  0.00    -0.270 OA
BRANCH  26  28
ATOM     28  C   UNL     1       4.150  -7.468   3.518  0.00  0.00    +0.055 A 
ATOM     29  C   UNL     1       4.463  -6.859   2.301  0.00  0.00    +0.014 A 
ATOM     30  C   UNL     1       5.201  -7.544   1.359  0.00  0.00    +0.001 A 
ATOM     31  C   UNL     1       5.632  -8.834   1.617  0.00  0.00    +0.001 A 
ATOM     32  C   UNL     1       5.326  -9.445   2.819  0.00  0.00    +0.021 A 
ATOM     33  C   UNL     1       4.593  -8.768   3.774  0.00  0.00    +0.053 A 
ATOM     34 CL   UNL     1       4.216  -9.533   5.287  0.00  0.00    -0.083 Cl
ENDBRANCH  26  28
BRANCH  25  35
ATOM     35  C   UNL     1       1.099  -5.936   4.953  0.00  0.00    +0.030 C 
ATOM     36  C   UNL     1       0.052  -5.066   4.254  0.00  0.00    +0.031 C 
ATOM     37  C   UNL     1       0.557  -7.358   5.110  0.00  0.00    +0.031 C 
ATOM     38  C   UNL     1       1.407  -5.353   6.333  0.00  0.00    +0.031 C 
ENDBRANCH  25  35
ENDBRANCH   1  25
TORSDOF 9
