REMARK  Name = ZINC66755974
REMARK  7 active torsions:
REMARK  status: ('A' for Active; 'I' for Inactive)
REMARK    1  A    between atoms: C_3  and  N_21
REMARK    2  A    between atoms: C_6  and  C_7
REMARK    3  A    between atoms: N_9  and  C_10
REMARK    4  A    between atoms: C_10  and  C_11
REMARK    5  A    between atoms: C_11  and  C_14
REMARK    6  A    between atoms: C_22  and  N_28
REMARK    7  A    between atoms: C_23  and  C_26
REMARK                            x       y       z     vdW  Elec       q    Type
REMARK                         _______ _______ _______ _____ _____    ______ ____
ROOT
ATOM      1  C   UNL     1       0.071   1.359   0.000  0.00  0.00    +0.015 A 
ATOM      2  C   UNL     1       1.266   2.044  -0.010  0.00  0.00    +0.028 A 
ATOM      3  C   UNL     1       2.469   1.346  -0.026  0.00  0.00    +0.067 A 
ATOM      4  C   UNL     1       2.470  -0.045  -0.033  0.00  0.00    +0.028 A 
ATOM      5  C   UNL     1       1.279  -0.736  -0.023  0.00  0.00    +0.015 A 
ATOM      6  C   UNL     1       0.069  -0.038  -0.006  0.00  0.00    +0.037 A 
ENDROOT
BRANCH   3   7
ATOM      7  N   UNL     1       3.680   2.044  -0.037  0.00  0.00    -0.218 N 
ATOM      8  C   UNL     1       4.828   1.655   0.576  0.00  0.00    +0.137 A 
ATOM      9  C   UNL     1       5.781   2.634   0.314  0.00  0.00    +0.111 A 
ATOM     10  C   UNL     1       5.154   3.622  -0.480  0.00  0.00    +0.155 A 
ATOM     11  N   UNL     1       3.918   3.261  -0.685  0.00  0.00    -0.172 NA
BRANCH   8  12
ATOM     12  N   UNL     1       5.013   0.505   1.319  0.00  0.00    -0.342 N 
ATOM     13  H   UNL     1       4.279  -0.116   1.443  0.00  0.00    +0.144 HD
ATOM     14  H   UNL     1       5.878   0.320   1.717  0.00  0.00    +0.144 HD
ENDBRANCH   8  12
BRANCH   9  15
ATOM     15  C   UNL     1       7.141   2.641   0.763  0.00  0.00    +0.104 C 
ATOM     16  N   UNL     1       8.220   2.646   1.120  0.00  0.00    -0.191 NA
ENDBRANCH   9  15
ENDBRANCH   3   7
BRANCH   6  17
ATOM     17  C   UNL     1      -1.210  -0.776   0.005  0.00  0.00    +0.244 C 
ATOM     18  O   UNL     1      -2.263  -0.168   0.020  0.00  0.00    -0.270 OA
ATOM     19  N   UNL     1      -1.211  -2.124  -0.000  0.00  0.00    -0.310 N 
ATOM     20  H   UNL     1      -0.371  -2.609  -0.012  0.00  0.00    +0.149 HD
BRANCH  19  21
ATOM     21  C   UNL     1      -2.480  -2.856   0.011  0.00  0.00    +0.116 C 
BRANCH  21  22
ATOM     22  C   UNL     1      -2.205  -4.355  -0.125  0.00  0.00    +0.011 C 
ATOM     23  C   UNL     1      -2.886  -5.096  -1.277  0.00  0.00    +0.014 C 
ATOM     24  C   UNL     1      -1.383  -4.816  -1.330  0.00  0.00    +0.014 C 
BRANCH  22  25
ATOM     25  C   UNL     1      -2.020  -5.102   1.171  0.00  0.00    -0.040 A 
ATOM     26  C   UNL     1      -0.790  -5.653   1.481  0.00  0.00    +0.005 A 
ATOM     27  C   UNL     1      -0.620  -6.338   2.669  0.00  0.00    +0.020 A 
ATOM     28  C   UNL     1      -1.680  -6.472   3.548  0.00  0.00    +0.041 A 
ATOM     29  C   UNL     1      -2.910  -5.921   3.237  0.00  0.00    +0.020 A 
ATOM     30  C   UNL     1      -3.078  -5.231   2.051  0.00  0.00    +0.005 A 
ATOM     31 CL   UNL     1      -1.467  -7.333   5.040  0.00  0.00    -0.084 Cl
ENDBRANCH  22  25
ENDBRANCH  21  22
ENDBRANCH  19  21
ENDBRANCH   6  17
TORSDOF 7
