REMARK  Name = ZINC29049531
REMARK  8 active torsions:
REMARK  status: ('A' for Active; 'I' for Inactive)
REMARK    1  A    between atoms: C_1  and  N_2
REMARK    2  A    between atoms: N_2  and  C_3
REMARK    3  A    between atoms: N_2  and  C_4
REMARK    4  A    between atoms: C_4  and  C_6
REMARK    5  A    between atoms: C_4  and  C_23
REMARK    6  A    between atoms: C_6  and  N_7
REMARK    7  A    between atoms: C_8  and  C_10
REMARK    8  A    between atoms: C_10  and  N_11
REMARK                            x       y       z     vdW  Elec       q    Type
REMARK                         _______ _______ _______ _____ _____    ______ ____
ROOT
ATOM      1  N   UNL     1       1.604   0.188  -1.418  0.00  0.00    -0.315 N 
ATOM      2  C   UNL     1       2.867   0.310  -1.872  0.00  0.00    +0.230 C 
ATOM      3  O   UNL     1       3.638   1.069  -1.324  0.00  0.00    -0.274 OA
ATOM      4  H   UNL     1       0.904  -0.500  -1.915  0.00  0.00    +0.149 HD
ENDROOT
BRANCH   1   5
ATOM      5  C   UNL     1       1.162   0.973  -0.262  0.00  0.00    +0.093 C 
BRANCH   5   6
ATOM      6  C   UNL     1      -0.345   0.794  -0.070  0.00  0.00    -0.020 C 
BRANCH   6   7
ATOM      7  C   UNL     1      -0.769   1.454   1.217  0.00  0.00    -0.041 A 
ATOM      8  C   UNL     1      -1.345   2.711   1.192  0.00  0.00    +0.003 A 
ATOM      9  C   UNL     1      -1.738   3.315   2.371  0.00  0.00    +0.000 A 
ATOM     10  C   UNL     1      -1.547   2.667   3.578  0.00  0.00    +0.001 A 
ATOM     11  C   UNL     1      -0.966   1.413   3.604  0.00  0.00    +0.020 A 
ATOM     12  C   UNL     1      -0.577   0.806   2.424  0.00  0.00    +0.043 A 
ATOM     13 CL   UNL     1       0.153  -0.769   2.457  0.00  0.00    -0.083 Cl
ENDBRANCH   6   7
BRANCH   6  15
ATOM     14  C   UNL     1      -0.415   2.666  -1.603  0.00  0.00    -0.096 C 
ATOM     15  N   UNL     1      -1.059   1.410  -1.195  0.00  0.00    +0.382 N 
ATOM     16  C   UNL     1      -1.162   0.479  -2.327  0.00  0.00    -0.096 C 
ATOM     17  H   UNL     1      -2.079   1.647  -0.859  0.00  0.00    -0.082 HD
ENDBRANCH   6  15
ENDBRANCH   5   6
ENDBRANCH   1   5
BRANCH   2  18
ATOM     18  C   UNL     1       3.321  -0.498  -3.060  0.00  0.00    +0.198 C 
BRANCH  18  19
ATOM     19  N   UNL     1       4.723  -0.189  -3.354  0.00  0.00    -0.319 N 
ATOM     20  C   UNL     1       5.360  -0.810  -4.406  0.00  0.00    +0.150 C 
ATOM     21  N   UNL     1       4.726  -1.669  -5.140  0.00  0.00    -0.113 NA
ATOM     22  S   UNL     1       5.827  -2.188  -6.289  0.00  0.00    +0.101 S 
ATOM     23  O   UNL     1       6.117  -3.554  -6.024  0.00  0.00    -0.146 OA
ATOM     24  O   UNL     1       5.390  -1.711  -7.554  0.00  0.00    -0.146 OA
ATOM     25  C   UNL     1       7.240  -1.234  -5.809  0.00  0.00    +0.123 A 
ATOM     26  C   UNL     1       6.765  -0.502  -4.711  0.00  0.00    +0.043 A 
ATOM     27  C   UNL     1       7.665   0.369  -4.079  0.00  0.00    +0.013 A 
ATOM     28  C   UNL     1       8.955   0.493  -4.542  0.00  0.00    +0.001 A 
ATOM     29  C   UNL     1       9.394  -0.238  -5.631  0.00  0.00    +0.002 A 
ATOM     30  C   UNL     1       8.519  -1.110  -6.266  0.00  0.00    +0.030 A 
ATOM     31  H   UNL     1       5.266   0.540  -2.735  0.00  0.00    +0.148 HD
ENDBRANCH  18  19
ENDBRANCH   2  18
TORSDOF 6
