REMARK  Name = ZINC36597548
REMARK  10 active torsions:
REMARK  status: ('A' for Active; 'I' for Inactive)
REMARK    1  A    between atoms: C_1  and  C_2
REMARK    2  A    between atoms: C_5  and  C_7
REMARK    3  A    between atoms: C_7  and  N_8
REMARK    4  A    between atoms: N_8  and  C_9
REMARK    5  A    between atoms: C_9  and  C_11
REMARK    6  A    between atoms: C_9  and  C_16
REMARK    7  A    between atoms: N_18  and  C_19
REMARK    8  A    between atoms: C_25  and  C_27
REMARK    9  A    between atoms: C_28  and  O_34
REMARK   10  A    between atoms: C_32  and  O_33
REMARK                            x       y       z     vdW  Elec       q    Type
REMARK                         _______ _______ _______ _____ _____    ______ ____
ROOT
ATOM      1  N   UNL     1       1.983  -3.620  -1.407  0.00  0.00    -0.272 N 
ATOM      2  C   UNL     1       1.209  -4.521  -2.043  0.00  0.00    +0.255 C 
ATOM      3  O   UNL     1       1.457  -4.832  -3.192  0.00  0.00    -0.270 OA
ENDROOT
BRANCH   2   4
ATOM      4  C   UNL     1       0.063  -5.130  -1.347  0.00  0.00    +0.119 A 
ATOM      5  C   UNL     1      -1.203  -4.531  -1.414  0.00  0.00    +0.133 A 
ATOM      6  C   UNL     1      -2.274  -5.113  -0.755  0.00  0.00    +0.046 A 
ATOM      7  C   UNL     1      -2.098  -6.279  -0.034  0.00  0.00    +0.007 A 
ATOM      8  C   UNL     1      -0.854  -6.877   0.039  0.00  0.00    +0.046 A 
ATOM      9  C   UNL     1       0.230  -6.316  -0.616  0.00  0.00    +0.133 A 
BRANCH   9  10
ATOM     10  O   UNL     1       1.448  -6.908  -0.548  0.00  0.00    -0.506 OA
ATOM     11  H   UNL     1       1.990  -6.608   0.194  0.00  0.00    +0.292 HD
ENDBRANCH   9  10
BRANCH   5  12
ATOM     12  O   UNL     1      -1.379  -3.387  -2.121  0.00  0.00    -0.506 OA
ATOM     13  H   UNL     1      -1.615  -3.529  -3.047  0.00  0.00    +0.292 HD
ENDBRANCH   5  12
ENDBRANCH   2   4
BRANCH   1  14
ATOM     14  C   UNL     1       1.684  -3.245  -0.023  0.00  0.00    +0.183 C 
BRANCH  14  19
ATOM     15  C   UNL     1      -0.018   1.503   0.010  0.00  0.00    +0.086 C 
ATOM     16  C   UNL     1       0.002  -0.004   0.002  0.00  0.00    +0.102 A 
ATOM     17  C   UNL     1      -1.078  -0.805   0.003  0.00  0.00    +0.045 A 
ATOM     18  C   UNL     1      -0.601  -2.136  -0.007  0.00  0.00    +0.046 A 
ATOM     19  C   UNL     1       0.742  -2.069  -0.013  0.00  0.00    +0.122 A 
ATOM     20  O   UNL     1       1.102  -0.775  -0.013  0.00  0.00    -0.463 OA
ENDBRANCH  14  19
ENDBRANCH   1  14
BRANCH   1  21
ATOM     21  C   UNL     1       3.123  -3.014  -2.100  0.00  0.00    +0.229 C 
BRANCH  21  22
ATOM     22  C   UNL     1       4.089  -4.093  -2.516  0.00  0.00    +0.134 A 
ATOM     23  C   UNL     1       5.430  -4.015  -2.455  0.00  0.00    +0.047 A 
ATOM     24  C   UNL     1       5.935  -5.243  -2.942  0.00  0.00    +0.041 A 
ATOM     25  C   UNL     1       4.872  -5.998  -3.272  0.00  0.00    +0.195 A 
ATOM     26  O   UNL     1       3.756  -5.299  -3.006  0.00  0.00    -0.465 OA
ENDBRANCH  21  22
BRANCH  21  27
ATOM     27  C   UNL     1       2.635  -2.278  -3.321  0.00  0.00    +0.241 C 
ATOM     28  O   UNL     1       1.452  -2.261  -3.587  0.00  0.00    -0.273 OA
ATOM     29  N   UNL     1       3.514  -1.639  -4.118  0.00  0.00    -0.311 N 
ATOM     30  H   UNL     1       4.460  -1.652  -3.906  0.00  0.00    +0.149 HD
BRANCH  29  31
ATOM     31  C   UNL     1       3.040  -0.923  -5.306  0.00  0.00    +0.073 C 
ATOM     32  C   UNL     1       2.915  -1.902  -6.475  0.00  0.00    +0.022 C 
ATOM     33  C   UNL     1       2.420  -1.155  -7.715  0.00  0.00    +0.002 C 
ATOM     34  C   UNL     1       3.416  -0.051  -8.077  0.00  0.00    +0.000 C 
ATOM     35  C   UNL     1       3.541   0.927  -6.908  0.00  0.00    +0.002 C 
ATOM     36  C   UNL     1       4.036   0.180  -5.668  0.00  0.00    +0.022 C 
ENDBRANCH  29  31
ENDBRANCH  21  27
ENDBRANCH   1  21
TORSDOF 9
