REMARK  Name = ZINC12150854
REMARK  12 active torsions:
REMARK  status: ('A' for Active; 'I' for Inactive)
REMARK    1  A    between atoms: C_1  and  C_2
REMARK    2  A    between atoms: C_9  and  C_11
REMARK    3  A    between atoms: C_11  and  N_12
REMARK    4  A    between atoms: C_13  and  C_15
REMARK    5  A    between atoms: N_17  and  C_29
REMARK    6  A    between atoms: C_19  and  C_22
REMARK    7  A    between atoms: N_24  and  C_25
REMARK    8  A    between atoms: C_25  and  C_26
REMARK    9  A    between atoms: C_26  and  C_27
REMARK   10  A    between atoms: C_26  and  C_28
REMARK   11  A    between atoms: C_29  and  C_30
REMARK   12  A    between atoms: C_29  and  C_31
REMARK                            x       y       z     vdW  Elec       q    Type
REMARK                         _______ _______ _______ _____ _____    ______ ____
ROOT
ATOM      1  C   UNL     1      -1.223   1.733   0.017  0.00  0.00    +0.100 A 
ATOM      2  C   UNL     1      -0.013   1.076   0.008  0.00  0.00    +0.102 A 
ATOM      3  N   UNL     1       1.150   1.749   0.001  0.00  0.00    -0.349 N 
ATOM      4  C   UNL     1       1.227   3.090   0.007  0.00  0.00    +0.102 A 
ATOM      5  C   UNL     1       0.094   3.874   0.022  0.00  0.00    +0.100 A 
ATOM      6  C   UNL     1      -1.218   3.206   0.031  0.00  0.00    +0.206 A 
ATOM      7  O   UNL     1      -2.257   3.845   0.044  0.00  0.00    -0.286 OA
ENDROOT
BRANCH   1   9
ATOM      8  N   UNL     1      -2.475  -0.365   0.011  0.00  0.00    -0.306 N 
ATOM      9  C   UNL     1      -2.490   0.983   0.019  0.00  0.00    +0.250 C 
ATOM     10  O   UNL     1      -3.550   1.579   0.027  0.00  0.00    -0.270 OA
ATOM     11  H   UNL     1      -1.630  -0.841   0.004  0.00  0.00    +0.149 HD
BRANCH   8  12
ATOM     12  C   UNL     1      -3.736  -1.112   0.013  0.00  0.00    +0.161 C 
BRANCH  12  21
ATOM     13  C   UNL     1      -2.578  -5.697  -2.951  0.00  0.00    +0.047 C 
ATOM     14  C   UNL     1      -2.696  -5.752  -1.450  0.00  0.00    -0.008 A 
ATOM     15  C   UNL     1      -2.521  -6.928  -0.790  0.00  0.00    +0.008 A 
ATOM     16  C   UNL     1      -2.635  -6.964   0.610  0.00  0.00    +0.018 A 
ATOM     17  C   UNL     1      -2.915  -5.838   1.300  0.00  0.00    +0.093 A 
ATOM     18  N   UNL     1      -3.093  -4.651   0.650  0.00  0.00    -0.306 N 
ATOM     19  C   UNL     1      -2.989  -4.585  -0.716  0.00  0.00    +0.141 A 
ATOM     20  N   UNL     1      -3.211  -3.331  -1.083  0.00  0.00    -0.231 NA
ATOM     21  C   UNL     1      -3.443  -2.590   0.003  0.00  0.00    +0.077 A 
ATOM     22  C   UNL     1      -3.380  -3.388   1.091  0.00  0.00    +0.117 A 
ENDBRANCH  12  21
ENDBRANCH   8  12
ENDBRANCH   1   9
BRANCH   5  23
ATOM     23  C   UNL     1       0.193   5.344   0.029  0.00  0.00    +0.249 C 
ATOM     24  O   UNL     1      -0.817   6.021   0.043  0.00  0.00    -0.270 OA
ATOM     25  N   UNL     1       1.403   5.937   0.021  0.00  0.00    -0.311 N 
ATOM     26  H   UNL     1       2.208   5.397   0.011  0.00  0.00    +0.149 HD
BRANCH  25  27
ATOM     27  C   UNL     1       1.502   7.399   0.029  0.00  0.00    +0.107 C 
BRANCH  27  28
ATOM     28  C   UNL     1       2.975   7.811   0.018  0.00  0.00    -0.000 C 
ATOM     29  C   UNL     1       3.618   7.368  -1.298  0.00  0.00    +0.009 C 
ATOM     30  C   UNL     1       3.081   9.331   0.151  0.00  0.00    +0.009 C 
ENDBRANCH  27  28
ENDBRANCH  25  27
ENDBRANCH   5  23
BRANCH   3  31
ATOM     31  C   UNL     1       2.397   0.981  -0.016  0.00  0.00    +0.081 C 
ATOM     32  C   UNL     1       2.466   0.092   1.228  0.00  0.00    +0.030 C 
ATOM     33  C   UNL     1       2.442   0.107  -1.271  0.00  0.00    +0.030 C 
ENDBRANCH   3  31
TORSDOF 7
