REMARK  Name = ZINC05887612
REMARK  5 active torsions:
REMARK  status: ('A' for Active; 'I' for Inactive)
REMARK    1  A    between atoms: C_4  and  C_7
REMARK    2  A    between atoms: C_7  and  O_26
REMARK    3  A    between atoms: C_9  and  C_19
REMARK    4  A    between atoms: N_11  and  C_16
REMARK    5  A    between atoms: C_16  and  C_17
REMARK                            x       y       z     vdW  Elec       q    Type
REMARK                         _______ _______ _______ _____ _____    ______ ____
ROOT
ATOM      1  C   UNL     1      -0.108   5.707   0.257  0.00  0.00    +0.133 C 
ATOM      2  C   UNL     1      -1.381   6.193   0.042  0.00  0.00    +0.071 C 
ATOM      3  C   UNL     1      -2.654   5.386  -0.070  0.00  0.00    +0.145 C 
ATOM      4  N   UNL     1      -3.741   6.344  -0.293  0.00  0.00    -0.273 N 
ATOM      5  C   UNL     1      -3.228   7.585  -0.329  0.00  0.00    +0.288 C 
ATOM      6  O   UNL     1      -3.873   8.599  -0.505  0.00  0.00    -0.266 OA
ATOM      7  C   UNL     1      -1.755   7.536  -0.124  0.00  0.00    +0.249 C 
ATOM      8  O   UNL     1      -1.004   8.495  -0.104  0.00  0.00    -0.282 OA
ENDROOT
BRANCH   3   9
ATOM      9  C   UNL     1      -2.896   4.625   1.209  0.00  0.00    -0.022 A 
ATOM     10  C   UNL     1      -3.315   5.295   2.343  0.00  0.00    +0.007 A 
ATOM     11  C   UNL     1      -3.543   4.597   3.514  0.00  0.00    +0.020 A 
ATOM     12  C   UNL     1      -3.340   3.229   3.554  0.00  0.00    +0.041 A 
ATOM     13  C   UNL     1      -2.914   2.560   2.421  0.00  0.00    +0.020 A 
ATOM     14  C   UNL     1      -2.693   3.258   1.248  0.00  0.00    +0.007 A 
ATOM     15 CL   UNL     1      -3.619   2.353   5.027  0.00  0.00    -0.084 Cl
ENDBRANCH   3   9
BRANCH   1  19
ATOM     16  C   UNL     1       0.572   1.520   0.385  0.00  0.00    +0.000 A 
ATOM     17  C   UNL     1      -0.188   2.064  -0.637  0.00  0.00    +0.001 A 
ATOM     18  C   UNL     1      -0.417   3.422  -0.683  0.00  0.00    +0.011 A 
ATOM     19  C   UNL     1       0.128   4.253   0.301  0.00  0.00    +0.017 A 
ATOM     20  C   UNL     1       0.899   3.698   1.327  0.00  0.00    +0.011 A 
ATOM     21  C   UNL     1       1.116   2.336   1.361  0.00  0.00    +0.001 A 
ENDBRANCH   1  19
BRANCH   1  22
ATOM     22  O   UNL     1       0.921   6.564   0.426  0.00  0.00    -0.506 OA
ATOM     23  H   UNL     1       0.586   7.504   0.367  0.00  0.00    +0.292 HD
ENDBRANCH   1  22
BRANCH   4  24
ATOM     24  C   UNL     1      -5.156   6.002  -0.457  0.00  0.00    +0.234 C 
BRANCH  24  25
ATOM     25  C   UNL     1      -5.449   5.765  -1.916  0.00  0.00    +0.373 C 
ATOM     26  O   UNL     1      -4.567   5.871  -2.735  0.00  0.00    -0.245 OA
ATOM     27  O   UNL     1      -6.691   5.437  -2.306  0.00  0.00    -0.245 OA
ENDBRANCH  24  25
ENDBRANCH   4  24
TORSDOF 5
