REMARK  Name = ZINC65002883
REMARK  6 active torsions:
REMARK  status: ('A' for Active; 'I' for Inactive)
REMARK    1  A    between atoms: C_1  and  C_2
REMARK    2  A    between atoms: C_2  and  C_3
REMARK    3  A    between atoms: C_3  and  N_4
REMARK    4  A    between atoms: N_17  and  N_18
REMARK    5  A    between atoms: C_19  and  C_20
REMARK    6  A    between atoms: C_25  and  O_26
REMARK                            x       y       z     vdW  Elec       q    Type
REMARK                         _______ _______ _______ _____ _____    ______ ____
ROOT
ATOM      1  N   UNL     1       0.762  -1.976   1.234  0.00  0.00    -0.323 N 
ATOM      2  C   UNL     1      -0.210  -2.783   1.803  0.00  0.00    +0.053 A 
ATOM      3  C   UNL     1      -1.385  -2.492   2.487  0.00  0.00    +0.026 A 
ATOM      4  C   UNL     1      -2.183  -3.514   2.955  0.00  0.00    +0.002 A 
ATOM      5  C   UNL     1      -1.826  -4.838   2.750  0.00  0.00    +0.001 A 
ATOM      6  C   UNL     1      -0.665  -5.146   2.075  0.00  0.00    +0.012 A 
ATOM      7  C   UNL     1       0.150  -4.123   1.596  0.00  0.00    +0.029 A 
ATOM      8  C   UNL     1       1.422  -4.102   0.853  0.00  0.00    +0.138 A 
ATOM      9  C   UNL     1       1.743  -2.743   0.656  0.00  0.00    +0.166 A 
ATOM     10  N   UNL     1       2.859  -2.448  -0.004  0.00  0.00    -0.192 NA
ATOM     11  C   UNL     1       3.626  -3.432  -0.454  0.00  0.00    +0.256 A 
ATOM     12  N   UNL     1       3.300  -4.705  -0.259  0.00  0.00    -0.111 NA
ATOM     13  N   UNL     1       2.233  -5.038   0.382  0.00  0.00    -0.142 NA
ATOM     14  N   UNL     1       4.788  -3.126  -1.142  0.00  0.00    -0.204 N 
ATOM     15  H   UNL     1       5.034  -2.200  -1.290  0.00  0.00    +0.177 HD
ENDROOT
BRANCH  14  16
ATOM     16  N   UNL     1       5.608  -4.155  -1.624  0.00  0.00    -0.187 NA
ATOM     17  C   UNL     1       6.698  -3.868  -2.268  0.00  0.00    +0.142 C 
BRANCH  17  18
ATOM     18  C   UNL     1       7.561  -4.950  -2.775  0.00  0.00    +0.037 A 
ATOM     19  C   UNL     1       8.737  -4.646  -3.465  0.00  0.00    +0.028 A 
ATOM     20  C   UNL     1       9.540  -5.664  -3.936  0.00  0.00    +0.019 A 
ATOM     21  C   UNL     1       9.185  -6.987  -3.728  0.00  0.00    +0.019 A 
ATOM     22  C   UNL     1       8.023  -7.300  -3.048  0.00  0.00    +0.047 A 
ATOM     23  C   UNL     1       7.208  -6.290  -2.563  0.00  0.00    +0.126 A 
ATOM     24 BR   UNL     1      11.132  -5.252  -4.870  0.00  0.00    -0.050 Br
BRANCH  23  25
ATOM     25  O   UNL     1       6.069  -6.597  -1.890  0.00  0.00    -0.506 OA
ATOM     26  H   UNL     1       5.290  -6.688  -2.456  0.00  0.00    +0.292 HD
ENDBRANCH  23  25
ENDBRANCH  17  18
ENDBRANCH  14  16
BRANCH   1  27
ATOM     27  C   UNL     1       0.742  -0.511   1.242  0.00  0.00    +0.123 C 
BRANCH  27  29
ATOM     28  C   UNL     1      -0.019   1.526   0.010  0.00  0.00    +0.005 C 
ATOM     29  C   UNL     1       0.002  -0.004   0.002  0.00  0.00    +0.018 C 
ENDBRANCH  27  29
ENDBRANCH   1  27
TORSDOF 5
