REMARK  Name = ZINC06721757
REMARK  6 active torsions:
REMARK  status: ('A' for Active; 'I' for Inactive)
REMARK    1  A    between atoms: C_1  and  C_2
REMARK    2  A    between atoms: C_5  and  O_31
REMARK    3  A    between atoms: C_6  and  C_8
REMARK    4  A    between atoms: C_18  and  O_29
REMARK    5  A    between atoms: C_21  and  C_23
REMARK    6  A    between atoms: O_29  and  C_30
REMARK                            x       y       z     vdW  Elec       q    Type
REMARK                         _______ _______ _______ _____ _____    ______ ____
ROOT
ATOM      1  C   UNL     1      -0.859   3.537   0.283  0.00  0.00    +0.072 C 
ATOM      2  N   UNL     1      -1.171   2.301   0.062  0.00  0.00    -0.184 NA
ATOM      3  N   UNL     1      -0.075   1.462  -0.018  0.00  0.00    -0.205 N 
ATOM      4  C   UNL     1       1.156   2.284  -0.061  0.00  0.00    +0.136 C 
ATOM      5  C   UNL     1       0.649   3.674   0.346  0.00  0.00    +0.086 C 
ATOM      6  C   UNL     1       2.091   1.702   0.967  0.00  0.00    +0.020 A 
ATOM      7  C   UNL     1       3.182   2.445   1.384  0.00  0.00    +0.009 A 
ATOM      8  C   UNL     1       4.080   1.919   2.293  0.00  0.00    +0.004 A 
ATOM      9  C   UNL     1       3.886   0.643   2.789  0.00  0.00    +0.049 A 
ATOM     10  C   UNL     1       2.793  -0.099   2.384  0.00  0.00    +0.162 A 
ATOM     11  C   UNL     1       1.875   0.430   1.469  0.00  0.00    +0.170 A 
ATOM     12  O   UNL     1       0.813  -0.347   1.132  0.00  0.00    -0.461 OA
ATOM     13  C   UNL     1       0.002  -0.004   0.002  0.00  0.00    +0.311 C 
ENDROOT
BRANCH   1  19
ATOM     14  C   UNL     1      -1.781   8.370   1.092  0.00  0.00    +0.044 C 
ATOM     15  C   UNL     1      -2.273   6.969   0.838  0.00  0.00    -0.050 A 
ATOM     16  C   UNL     1      -3.632   6.719   0.759  0.00  0.00    +0.007 A 
ATOM     17  C   UNL     1      -4.095   5.437   0.526  0.00  0.00    +0.046 A 
ATOM     18  C   UNL     1      -3.199   4.393   0.370  0.00  0.00    +0.126 A 
ATOM     19  C   UNL     1      -1.822   4.641   0.448  0.00  0.00    +0.039 A 
ATOM     20  C   UNL     1      -1.367   5.939   0.690  0.00  0.00    +0.016 A 
BRANCH  18  21
ATOM     21  O   UNL     1      -3.653   3.133   0.141  0.00  0.00    -0.506 OA
ATOM     22  H   UNL     1      -3.807   2.619   0.945  0.00  0.00    +0.292 HD
ENDBRANCH  18  21
ENDBRANCH   1  19
BRANCH  13  23
ATOM     23  C   UNL     1       0.643  -0.506  -1.266  0.00  0.00    +0.015 A 
ATOM     24  C   UNL     1       0.384   0.106  -2.483  0.00  0.00    +0.028 A 
ATOM     25  C   UNL     1       0.993  -0.379  -3.624  0.00  0.00    +0.111 A 
ATOM     26  N   UNL     1       1.804  -1.417  -3.567  0.00  0.00    -0.263 NA
ATOM     27  C   UNL     1       2.068  -2.028  -2.428  0.00  0.00    +0.111 A 
ATOM     28  C   UNL     1       1.500  -1.596  -1.245  0.00  0.00    +0.028 A 
ENDBRANCH  13  23
BRANCH  10  29
ATOM     29  O   UNL     1       2.608  -1.353   2.877  0.00  0.00    -0.491 OA
ATOM     30  C   UNL     1       3.581  -1.834   3.807  0.00  0.00    +0.277 C 
ENDBRANCH  10  29
TORSDOF 4
