REMARK  Name = ZINC63367310
REMARK  7 active torsions:
REMARK  status: ('A' for Active; 'I' for Inactive)
REMARK    1  A    between atoms: C_1  and  C_2
REMARK    2  A    between atoms: C_3  and  S_10
REMARK    3  A    between atoms: S_10  and  N_13
REMARK    4  A    between atoms: C_17  and  C_20
REMARK    5  A    between atoms: N_22  and  C_23
REMARK    6  A    between atoms: C_23  and  C_24
REMARK    7  A    between atoms: C_24  and  C_25
REMARK                            x       y       z     vdW  Elec       q    Type
REMARK                         _______ _______ _______ _____ _____    ______ ____
ROOT
ATOM      1  N   UNL     1      -3.637   2.635   0.863  0.00  0.00    -0.176 NA
ATOM      2  C   UNL     1      -2.880   3.551   1.728  0.00  0.00    +0.109 C 
ATOM      3  C   UNL     1      -2.944   4.960   1.130  0.00  0.00    +0.018 C 
ATOM      4  C   UNL     1      -4.408   5.356   0.924  0.00  0.00    +0.015 C 
ATOM      5  C   UNL     1      -5.068   4.385  -0.057  0.00  0.00    +0.091 C 
ATOM      6  C   UNL     1      -5.026   2.972   0.522  0.00  0.00    +0.122 C 
ENDROOT
BRANCH   5   7
ATOM      7  C   UNL     1      -6.500   4.795  -0.284  0.00  0.00    +0.217 C 
ATOM      8  O   UNL     1      -7.401   4.031  -0.009  0.00  0.00    -0.275 OA
ATOM      9  N   UNL     1      -6.780   6.011  -0.793  0.00  0.00    -0.315 N 
ATOM     10  H   UNL     1      -6.059   6.622  -1.014  0.00  0.00    +0.149 HD
BRANCH   9  11
ATOM     11  C   UNL     1      -8.172   6.410  -1.015  0.00  0.00    +0.108 C 
BRANCH  11  12
ATOM     12  C   UNL     1      -8.211   7.826  -1.595  0.00  0.00    +0.052 C 
BRANCH  12  13
ATOM     13  C   UNL     1      -9.643   8.236  -1.822  0.00  0.00    -0.040 C 
ATOM     14  C   UNL     1     -10.426   8.953  -0.985  0.00  0.00    -0.001 A 
ATOM     15  C   UNL     1     -10.188   9.541   0.339  0.00  0.00    +0.010 A 
ATOM     16  C   UNL     1     -11.190  10.219   0.945  0.00  0.00    +0.001 A 
ATOM     17  C   UNL     1     -12.446  10.373   0.342  0.00  0.00    +0.002 A 
ATOM     18  C   UNL     1     -12.740   9.861  -0.872  0.00  0.00    +0.026 A 
ATOM     19  C   UNL     1     -11.761   9.130  -1.600  0.00  0.00    +0.043 A 
ATOM     20  N   UNL     1     -11.801   8.546  -2.773  0.00  0.00    -0.380 N 
ATOM     21  C   UNL     1     -10.493   7.936  -3.037  0.00  0.00    +0.144 C 
ATOM     22  H   UNL     1     -12.566   8.523  -3.368  0.00  0.00    +0.160 HD
ENDBRANCH  12  13
ENDBRANCH  11  12
ENDBRANCH   9  11
ENDBRANCH   5   7
BRANCH   1  23
ATOM     23  S   UNL     1      -2.937   1.253   0.279  0.00  0.00    +0.068 S 
ATOM     24  O   UNL     1      -3.998   0.399  -0.124  0.00  0.00    -0.153 OA
ATOM     25  O   UNL     1      -1.960   0.858   1.232  0.00  0.00    -0.153 OA
BRANCH  23  28
ATOM     26  C   UNL     1      -0.006   1.925   0.178  0.00  0.00    +0.065 C 
ATOM     27  C   UNL     1      -0.743   1.978  -1.135  0.00  0.00    +0.049 A 
ATOM     28  C   UNL     1      -2.061   1.693  -1.186  0.00  0.00    +0.188 A 
ATOM     29  C   UNL     1      -2.731   1.750  -2.432  0.00  0.00    +0.281 A 
ATOM     30  N   UNL     1      -2.040   2.088  -3.540  0.00  0.00    -0.273 N 
ATOM     31  C   UNL     1      -0.726   2.368  -3.461  0.00  0.00    +0.327 A 
ATOM     32  N   UNL     1      -0.079   2.322  -2.282  0.00  0.00    -0.310 N 
ATOM     33  O   UNL     1      -0.116   2.671  -4.468  0.00  0.00    -0.247 OA
ATOM     34  O   UNL     1      -3.920   1.496  -2.503  0.00  0.00    -0.266 OA
ATOM     35  H   UNL     1      -2.492   2.130  -4.397  0.00  0.00    +0.173 HD
ATOM     36  H   UNL     1       0.867   2.531  -2.245  0.00  0.00    +0.170 HD
ENDBRANCH  23  28
ENDBRANCH   1  23
TORSDOF 6
