REMARK  Name = ZINC63985476
REMARK  14 active torsions:
REMARK  status: ('A' for Active; 'I' for Inactive)
REMARK    1  A    between atoms: C_1  and  C_2
REMARK    2  A    between atoms: C_2  and  C_3
REMARK    3  A    between atoms: C_3  and  C_4
REMARK    4  A    between atoms: C_3  and  N_6
REMARK    5  A    between atoms: C_4  and  C_5
REMARK    6  A    between atoms: N_6  and  C_7
REMARK    7  A    between atoms: N_13  and  C_26
REMARK    8  A    between atoms: C_14  and  C_22
REMARK    9  A    between atoms: C_16  and  N_18
REMARK   10  A    between atoms: C_19  and  C_21
REMARK   11  A    between atoms: C_22  and  O_24
REMARK   12  A    between atoms: O_24  and  C_25
REMARK   13  A    between atoms: C_26  and  C_27
REMARK   14  A    between atoms: C_27  and  C_28
REMARK                            x       y       z     vdW  Elec       q    Type
REMARK                         _______ _______ _______ _____ _____    ______ ____
ROOT
ATOM      1  C   UNL     1       0.113   1.157  -3.005  0.00  0.00    +0.044 A 
ATOM      2  C   UNL     1      -0.620   1.537  -4.128  0.00  0.00    +0.033 A 
ATOM      3  C   UNL     1      -0.418   2.801  -4.649  0.00  0.00    +0.015 A 
ATOM      4  C   UNL     1       0.496   3.660  -4.056  0.00  0.00    +0.105 A 
ATOM      5  N   UNL     1       1.177   3.256  -2.983  0.00  0.00    -0.348 N 
ATOM      6  C   UNL     1       1.008   2.061  -2.455  0.00  0.00    +0.107 A 
ATOM      7  N   UNL     1       0.557   4.882  -4.722  0.00  0.00    -0.301 N 
ATOM      8  C   UNL     1      -0.372   4.886  -5.856  0.00  0.00    +0.208 C 
ATOM      9  C   UNL     1      -1.042   3.502  -5.833  0.00  0.00    +0.138 C 
ATOM     10  H   UNL     1       1.814   3.863  -2.575  0.00  0.00    +0.167 HD
ENDROOT
BRANCH   9  11
ATOM     11  N   UNL     1      -2.489   3.638  -5.644  0.00  0.00    -0.306 N 
ATOM     12  C   UNL     1      -3.313   2.638  -6.015  0.00  0.00    +0.210 C 
ATOM     13  O   UNL     1      -2.857   1.627  -6.506  0.00  0.00    -0.276 OA
ATOM     14  C   UNL     1      -4.801   2.777  -5.821  0.00  0.00    +0.109 C 
ATOM     15  H   UNL     1      -2.853   4.446  -5.251  0.00  0.00    +0.149 HD
ENDBRANCH   9  11
BRANCH   1  16
ATOM     16  N   UNL     1      -0.055  -0.114  -2.441  0.00  0.00    -0.340 N 
ATOM     17  H   UNL     1      -0.683  -0.740  -2.833  0.00  0.00    +0.146 HD
BRANCH  16  18
ATOM     18  C   UNL     1       0.718  -0.497  -1.257  0.00  0.00    +0.070 C 
BRANCH  18  20
ATOM     19  C   UNL     1      -0.019   1.526   0.010  0.00  0.00    +0.006 C 
ATOM     20  C   UNL     1       0.002  -0.004   0.002  0.00  0.00    +0.019 C 
ENDBRANCH  18  20
BRANCH  18  21
ATOM     21  C   UNL     1       0.849  -2.021  -1.205  0.00  0.00    +0.019 C 
ATOM     22  C   UNL     1       1.673  -2.503  -2.400  0.00  0.00    +0.006 C 
ENDBRANCH  18  21
ENDBRANCH  16  18
ENDBRANCH   1  16
BRANCH   8  23
ATOM     23  C   UNL     1      -1.403   5.972  -5.682  0.00  0.00    +0.330 C 
ATOM     24  O   UNL     1      -1.594   6.454  -4.591  0.00  0.00    -0.249 OA
BRANCH  23  25
ATOM     25  O   UNL     1      -2.108   6.403  -6.740  0.00  0.00    -0.467 OA
ATOM     26  C   UNL     1      -3.068   7.434  -6.502  0.00  0.00    +0.280 C 
ENDBRANCH  23  25
ENDBRANCH   8  23
BRANCH   7  27
ATOM     27  C   UNL     1       1.423   6.001  -4.344  0.00  0.00    +0.112 C 
BRANCH  27  28
ATOM     28  C   UNL     1       2.766   5.873  -5.067  0.00  0.00    +0.052 C 
BRANCH  28  29
ATOM     29  C   UNL     1       3.657   7.024  -4.678  0.00  0.00    -0.040 C 
ATOM     30  C   UNL     1       4.598   7.032  -3.706  0.00  0.00    -0.001 A 
ATOM     31  C   UNL     1       5.054   6.011  -2.756  0.00  0.00    +0.010 A 
ATOM     32  C   UNL     1       6.037   6.322  -1.880  0.00  0.00    +0.001 A 
ATOM     33  C   UNL     1       6.628   7.592  -1.858  0.00  0.00    +0.002 A 
ATOM     34  C   UNL     1       6.263   8.582  -2.699  0.00  0.00    +0.026 A 
ATOM     35  C   UNL     1       5.239   8.366  -3.662  0.00  0.00    +0.043 A 
ATOM     36  N   UNL     1       4.716   9.151  -4.572  0.00  0.00    -0.380 N 
ATOM     37  C   UNL     1       3.686   8.402  -5.301  0.00  0.00    +0.144 C 
ATOM     38  H   UNL     1       4.970  10.073  -4.738  0.00  0.00    +0.160 HD
ENDBRANCH  28  29
ENDBRANCH  27  28
ENDBRANCH   7  27
TORSDOF 10
