REMARK  Name = ZINC39691298
REMARK  7 active torsions:
REMARK  status: ('A' for Active; 'I' for Inactive)
REMARK    1  A    between atoms: C_10  and  C_11
REMARK    2  A    between atoms: C_11  and  C_12
REMARK    3  A    between atoms: N_14  and  C_15
REMARK    4  A    between atoms: C_15  and  C_16
REMARK    5  A    between atoms: C_16  and  N_17
REMARK    6  A    between atoms: C_18  and  C_20
REMARK    7  A    between atoms: C_31  and  C_33
REMARK                            x       y       z     vdW  Elec       q    Type
REMARK                         _______ _______ _______ _____ _____    ______ ____
ROOT
ATOM      1  N   UNL     1      10.093   2.253   4.031  0.00  0.00    -0.314 N 
ATOM      2  C   UNL     1       9.646   3.400   4.581  0.00  0.00    +0.218 C 
ATOM      3  O   UNL     1       8.941   4.147   3.936  0.00  0.00    -0.275 OA
ATOM      4  H   UNL     1      10.657   1.656   4.547  0.00  0.00    +0.149 HD
ENDROOT
BRANCH   2   5
ATOM      5  C   UNL     1      10.024   3.755   5.996  0.00  0.00    +0.100 C 
ATOM      6  C   UNL     1       9.030   4.786   6.575  0.00  0.00    +0.121 C 
ATOM      7  N   UNL     1       9.866   5.688   7.402  0.00  0.00    -0.296 N 
ATOM      8  C   UNL     1      11.112   5.858   6.617  0.00  0.00    +0.115 C 
ATOM      9  C   UNL     1      11.389   4.463   6.024  0.00  0.00    -0.004 C 
ATOM     10  C   UNL     1      11.947   4.592   4.610  0.00  0.00    -0.010 C 
ATOM     11  C   UNL     1      13.330   5.246   4.670  0.00  0.00    -0.082 C 
ATOM     12  N   UNL     1      14.225   4.428   5.497  0.00  0.00    +0.379 N 
ATOM     13  C   UNL     1      13.730   4.386   6.878  0.00  0.00    -0.082 C 
ATOM     14  C   UNL     1      12.364   3.695   6.912  0.00  0.00    -0.010 C 
ATOM     15  C   UNL     1       9.562   6.230   8.598  0.00  0.00    +0.248 C 
ATOM     16  O   UNL     1       8.534   5.916   9.164  0.00  0.00    -0.270 OA
ATOM     17  H   UNL     1      14.261   3.491   5.125  0.00  0.00    -0.086 HD
ATOM     18  H   UNL     1      15.151   4.828   5.485  0.00  0.00    -0.086 HD
BRANCH  15  19
ATOM     19  C   UNL     1      10.480   7.207   9.221  0.00  0.00    +0.055 A 
ATOM     20  C   UNL     1      11.193   8.106   8.425  0.00  0.00    +0.014 A 
ATOM     21  C   UNL     1      12.047   9.015   9.013  0.00  0.00    +0.001 A 
ATOM     22  C   UNL     1      12.200   9.038  10.389  0.00  0.00    +0.001 A 
ATOM     23  C   UNL     1      11.499   8.150  11.184  0.00  0.00    +0.021 A 
ATOM     24  C   UNL     1      10.634   7.238  10.609  0.00  0.00    +0.053 A 
ATOM     25 CL   UNL     1       9.748   6.129  11.609  0.00  0.00    -0.083 Cl
ENDBRANCH  15  19
ENDBRANCH   2   5
BRANCH   1  26
ATOM     26  C   UNL     1       9.725   1.908   2.656  0.00  0.00    +0.123 C 
BRANCH  26  27
ATOM     27  C   UNL     1      10.358   0.566   2.280  0.00  0.00    +0.123 C 
BRANCH  27  30
ATOM     28  C   UNL     1      10.437  -0.926   0.355  0.00  0.00    +0.217 C 
ATOM     29  O   UNL     1      11.142  -1.672   1.000  0.00  0.00    -0.275 OA
ATOM     30  N   UNL     1       9.991   0.221   0.905  0.00  0.00    -0.314 N 
ATOM     31  H   UNL     1       9.426   0.819   0.389  0.00  0.00    +0.149 HD
BRANCH  28  32
ATOM     32  C   UNL     1      10.059  -1.280  -1.060  0.00  0.00    +0.131 C 
BRANCH  32  42
ATOM     33  C   UNL     1       8.797  -6.206  -0.470  0.00  0.00    +0.001 A 
ATOM     34  C   UNL     1       8.206  -4.993  -0.119  0.00  0.00    +0.001 A 
ATOM     35  C   UNL     1       8.803  -3.809  -0.422  0.00  0.00    +0.009 A 
ATOM     36  C   UNL     1      10.035  -3.805  -1.100  0.00  0.00    -0.014 A 
ATOM     37  C   UNL     1      10.636  -5.038  -1.456  0.00  0.00    -0.018 A 
ATOM     38  C   UNL     1       9.988  -6.241  -1.126  0.00  0.00    +0.008 A 
ATOM     39  C   UNL     1      11.867  -5.034  -2.133  0.00  0.00    +0.008 A 
ATOM     40  C   UNL     1      12.465  -3.849  -2.436  0.00  0.00    +0.001 A 
ATOM     41  C   UNL     1      11.874  -2.637  -2.085  0.00  0.00    +0.005 A 
ATOM     42  C   UNL     1      10.682  -2.602  -1.429  0.00  0.00    -0.031 A 
ENDBRANCH  32  42
ENDBRANCH  28  32
ENDBRANCH  27  30
ENDBRANCH  26  27
ENDBRANCH   1  26
TORSDOF 7
