REMARK  Name = ZINC04704514
REMARK  8 active torsions:
REMARK  status: ('A' for Active; 'I' for Inactive)
REMARK    1  A    between atoms: C_1  and  C_2
REMARK    2  A    between atoms: C_2  and  O_3
REMARK    3  A    between atoms: O_3  and  C_4
REMARK    4  A    between atoms: C_7  and  N_10
REMARK    5  A    between atoms: C_14  and  C_15
REMARK    6  A    between atoms: C_17  and  O_23
REMARK    7  A    between atoms: C_18  and  O_22
REMARK    8  A    between atoms: O_23  and  C_24
REMARK                            x       y       z     vdW  Elec       q    Type
REMARK                         _______ _______ _______ _____ _____    ______ ____
ROOT
ATOM      1  N   UNL     1       4.789   4.312   0.192  0.00  0.00    -0.190 N 
ATOM      2  C   UNL     1       3.777   3.782  -0.525  0.00  0.00    +0.263 C 
ATOM      3  O   UNL     1       3.938   2.767  -1.177  0.00  0.00    -0.269 OA
ATOM      4  C   UNL     1       2.470   4.466  -0.499  0.00  0.00    +0.100 C 
ATOM      5  C   UNL     1       1.387   3.982  -1.208  0.00  0.00    +0.026 C 
ATOM      6  C   UNL     1       2.372   5.695   0.315  0.00  0.00    +0.257 C 
ATOM      7  O   UNL     1       1.330   6.318   0.383  0.00  0.00    -0.270 OA
ATOM      8  N   UNL     1       3.469   6.103   0.985  0.00  0.00    -0.235 N 
ATOM      9  C   UNL     1       4.625   5.430   0.914  0.00  0.00    +0.320 C 
ATOM     10  O   UNL     1       5.578   5.855   1.538  0.00  0.00    -0.251 OA
ATOM     11  H   UNL     1       3.421   6.906   1.528  0.00  0.00    +0.159 HD
ENDROOT
BRANCH   5  12
ATOM     12  C   UNL     1       1.573   2.910  -2.185  0.00  0.00    -0.019 A 
ATOM     13  C   UNL     1       0.713   1.802  -2.187  0.00  0.00    +0.057 A 
ATOM     14  C   UNL     1       0.893   0.794  -3.111  0.00  0.00    +0.163 A 
ATOM     15  C   UNL     1       1.930   0.877  -4.042  0.00  0.00    +0.177 A 
ATOM     16  C   UNL     1       2.784   1.975  -4.043  0.00  0.00    +0.087 A 
ATOM     17  C   UNL     1       2.613   2.986  -3.124  0.00  0.00    +0.031 A 
ATOM     18 CL   UNL     1       4.071   2.069  -5.204  0.00  0.00    -0.080 Cl
BRANCH  15  19
ATOM     19  O   UNL     1       2.105  -0.116  -4.950  0.00  0.00    -0.502 OA
ATOM     20  H   UNL     1       1.617   0.014  -5.775  0.00  0.00    +0.292 HD
ENDBRANCH  15  19
BRANCH  14  21
ATOM     21  O   UNL     1       0.061  -0.281  -3.115  0.00  0.00    -0.491 OA
ATOM     22  C   UNL     1      -0.978  -0.302  -2.134  0.00  0.00    +0.277 C 
ENDBRANCH  14  21
ENDBRANCH   5  12
BRANCH   1  26
ATOM     23  C   UNL     1       8.512   2.432   0.163  0.00  0.00    +0.121 A 
ATOM     24  C   UNL     1       8.236   3.437  -0.752  0.00  0.00    +0.047 A 
ATOM     25  C   UNL     1       7.004   4.060  -0.743  0.00  0.00    +0.027 A 
ATOM     26  C   UNL     1       6.041   3.680   0.183  0.00  0.00    +0.046 A 
ATOM     27  C   UNL     1       6.320   2.678   1.102  0.00  0.00    +0.027 A 
ATOM     28  C   UNL     1       7.550   2.051   1.088  0.00  0.00    +0.047 A 
BRANCH  23  29
ATOM     29  O   UNL     1       9.726   1.818   0.153  0.00  0.00    -0.492 OA
BRANCH  29  31
ATOM     30  C   UNL     1      11.352   0.223   0.959  0.00  0.00    +0.048 C 
ATOM     31  C   UNL     1       9.941   0.792   1.123  0.00  0.00    +0.225 C 
ENDBRANCH  29  31
ENDBRANCH  23  29
ENDBRANCH   1  26
TORSDOF 6
