REMARK  Name = ZINC02211100
REMARK  8 active torsions:
REMARK  status: ('A' for Active; 'I' for Inactive)
REMARK    1  A    between atoms: C_3  and  C_6
REMARK    2  A    between atoms: C_6  and  N_7
REMARK    3  A    between atoms: C_11  and  N_44
REMARK    4  A    between atoms: C_15  and  C_16
REMARK    5  A    between atoms: C_15  and  N_44
REMARK    6  A    between atoms: C_16  and  C_17
REMARK    7  A    between atoms: C_20  and  S_23
REMARK    8  A    between atoms: S_23  and  N_26
REMARK                            x       y       z     vdW  Elec       q    Type
REMARK                         _______ _______ _______ _____ _____    ______ ____
ROOT
ATOM      1  N   UNL     1       0.025   2.525  -2.007  0.00  0.00    +0.387 N 
ATOM      2  H   UNL     1       0.993   2.183  -2.000  0.00  0.00    -0.085 HD
ATOM      3  H   UNL     1      -0.007   3.470  -1.607  0.00  0.00    -0.085 HD
ENDROOT
BRANCH   1   8
ATOM      4  N   UNL     1      -1.834   2.309   0.782  0.00  0.00    -0.239 N 
ATOM      5  C   UNL     1      -0.777   1.601   1.208  0.00  0.00    +0.221 C 
ATOM      6  O   UNL     1      -0.480   1.404   2.367  0.00  0.00    -0.275 OA
ATOM      7  C   UNL     1      -0.013   1.086   0.008  0.00  0.00    +0.090 C 
ATOM      8  C   UNL     1      -0.815   1.624  -1.194  0.00  0.00    +0.025 C 
ATOM      9  C   UNL     1      -1.951   2.388  -0.549  0.00  0.00    +0.209 C 
ATOM     10  O   UNL     1      -2.828   2.977  -1.144  0.00  0.00    -0.277 OA
BRANCH   4  11
ATOM     11  C   UNL     1      -2.782   2.946   1.700  0.00  0.00    +0.158 C 
BRANCH  11  14
ATOM     12  C   UNL     1      -5.119   0.289   3.110  0.00  0.00    +0.008 A 
ATOM     13  C   UNL     1      -3.983   1.069   3.010  0.00  0.00    +0.013 A 
ATOM     14  C   UNL     1      -3.900   1.985   2.014  0.00  0.00    +0.008 A 
ATOM     15  S   UNL     1      -5.454   1.752   1.167  0.00  0.00    -0.100 S 
ATOM     16  C   UNL     1      -6.112   0.455   2.202  0.00  0.00    +0.045 A 
ENDBRANCH  11  14
ENDBRANCH   4  11
ENDBRANCH   1   8
BRANCH   1  17
ATOM     17  C   UNL     1      -0.467   2.567  -3.397  0.00  0.00    -0.077 C 
BRANCH  17  18
ATOM     18  C   UNL     1       0.421   3.508  -4.214  0.00  0.00    +0.016 C 
BRANCH  18  19
ATOM     19  C   UNL     1      -0.074   3.557  -5.637  0.00  0.00    -0.049 A 
ATOM     20  C   UNL     1       0.417   2.664  -6.571  0.00  0.00    +0.005 A 
ATOM     21  C   UNL     1      -0.040   2.706  -7.875  0.00  0.00    +0.029 A 
ATOM     22  C   UNL     1      -0.983   3.647  -8.246  0.00  0.00    +0.105 A 
ATOM     23  C   UNL     1      -1.470   4.543  -7.313  0.00  0.00    +0.029 A 
ATOM     24  C   UNL     1      -1.016   4.498  -6.009  0.00  0.00    +0.005 A 
BRANCH  22  25
ATOM     25  S   UNL     1      -1.563   3.704  -9.909  0.00  0.00    +0.056 S 
ATOM     26  O   UNL     1      -1.356   2.408 -10.456  0.00  0.00    -0.153 OA
ATOM     27  O   UNL     1      -2.843   4.319  -9.872  0.00  0.00    -0.153 OA
BRANCH  25  28
ATOM     28  N   UNL     1      -0.567   4.733 -10.740  0.00  0.00    -0.204 NA
ATOM     29  H   UNL     1      -0.411   4.597 -11.688  0.00  0.00    +0.144 HD
ATOM     30  H   UNL     1      -0.140   5.472 -10.280  0.00  0.00    +0.144 HD
ENDBRANCH  25  28
ENDBRANCH  22  25
ENDBRANCH  18  19
ENDBRANCH  17  18
ENDBRANCH   1  17
TORSDOF 8
