REMARK  Name = ZINC12621983
REMARK  7 active torsions:
REMARK  status: ('A' for Active; 'I' for Inactive)
REMARK    1  A    between atoms: C_1  and  C_2
REMARK    2  A    between atoms: C_2  and  C_3
REMARK    3  A    between atoms: C_3  and  C_28
REMARK    4  A    between atoms: N_6  and  N_10
REMARK    5  A    between atoms: C_11  and  C_13
REMARK    6  A    between atoms: C_13  and  N_61
REMARK    7  A    between atoms: C_16  and  C_19
REMARK                            x       y       z     vdW  Elec       q    Type
REMARK                         _______ _______ _______ _____ _____    ______ ____
ROOT
ATOM      1  N   UNL     1      -4.006   1.567  -2.511  0.00  0.00    -0.225 N 
ATOM      2  C   UNL     1      -4.040   0.478  -3.306  0.00  0.00    +0.213 C 
ATOM      3  O   UNL     1      -3.573  -0.571  -2.916  0.00  0.00    -0.276 OA
ATOM      4  H   UNL     1      -4.379   2.406  -2.823  0.00  0.00    +0.173 HD
ENDROOT
BRANCH   1   8
ATOM      5  C   UNL     1      -2.026   1.672   0.554  0.00  0.00    +0.139 C 
ATOM      6  C   UNL     1      -2.227   1.992  -0.914  0.00  0.00    +0.268 C 
ATOM      7  O   UNL     1      -1.461   2.580  -1.646  0.00  0.00    -0.271 OA
ATOM      8  N   UNL     1      -3.433   1.485  -1.236  0.00  0.00    -0.137 N 
ATOM      9  C   UNL     1      -4.017   0.896  -0.186  0.00  0.00    +0.327 C 
ATOM     10  O   UNL     1      -5.110   0.366  -0.230  0.00  0.00    -0.251 OA
ATOM     11  N   UNL     1      -3.259   0.955   0.924  0.00  0.00    -0.280 N 
ATOM     12  H   UNL     1      -3.480   0.595   1.797  0.00  0.00    +0.152 HD
BRANCH   5  13
ATOM     13  C   UNL     1      -0.821   0.787   0.744  0.00  0.00    -0.015 A 
ATOM     14  C   UNL     1       0.423   1.351   0.957  0.00  0.00    +0.006 A 
ATOM     15  C   UNL     1       1.530   0.539   1.124  0.00  0.00    +0.000 A 
ATOM     16  C   UNL     1       1.392  -0.836   1.080  0.00  0.00    +0.000 A 
ATOM     17  C   UNL     1       0.148  -1.399   0.869  0.00  0.00    +0.000 A 
ATOM     18  C   UNL     1      -0.959  -0.588   0.700  0.00  0.00    +0.006 A 
ENDBRANCH   5  13
BRANCH   5  20
ATOM     19  C   UNL     1      -3.168   3.779   1.260  0.00  0.00    +0.007 C 
ATOM     20  C   UNL     1      -1.882   2.958   1.371  0.00  0.00    +0.037 C 
ENDBRANCH   5  20
ENDBRANCH   1   8
BRANCH   2  21
ATOM     21  C   UNL     1      -4.656   0.566  -4.678  0.00  0.00    +0.020 C 
BRANCH  21  27
ATOM     22  C   UNL     1      -5.230  -0.747  -6.630  0.00  0.00    -0.078 C 
ATOM     23  C   UNL     1      -5.089  -2.128  -7.273  0.00  0.00    -0.009 C 
ATOM     24  C   UNL     1      -3.614  -2.394  -7.582  0.00  0.00    +0.041 C 
ATOM     25  C   UNL     1      -2.802  -2.289  -6.288  0.00  0.00    -0.009 C 
ATOM     26  C   UNL     1      -3.009  -0.903  -5.673  0.00  0.00    -0.078 C 
ATOM     27  N   UNL     1      -4.445  -0.719  -5.377  0.00  0.00    +0.385 N 
ATOM     28  H   UNL     1      -4.761  -1.484  -4.769  0.00  0.00    -0.081 HD
BRANCH  24  29
ATOM     29  C   UNL     1      -3.460  -3.777  -8.162  0.00  0.00    +0.082 A 
ATOM     30  N   UNL     1      -2.981  -4.118  -9.325  0.00  0.00    -0.244 NA
ATOM     31  C   UNL     1      -2.897  -5.403  -9.726  0.00  0.00    +0.078 A 
ATOM     32  C   UNL     1      -2.406  -5.926 -10.943  0.00  0.00    +0.029 A 
ATOM     33  C   UNL     1      -2.401  -7.267 -11.171  0.00  0.00    +0.002 A 
ATOM     34  C   UNL     1      -2.873  -8.168 -10.226  0.00  0.00    +0.001 A 
ATOM     35  C   UNL     1      -3.362  -7.696  -9.023  0.00  0.00    +0.017 A 
ATOM     36  C   UNL     1      -3.371  -6.343  -8.783  0.00  0.00    +0.039 A 
ATOM     37  S   UNL     1      -3.873  -5.300  -7.438  0.00  0.00    -0.072 S 
ENDBRANCH  24  29
ENDBRANCH  21  27
ENDBRANCH   2  21
TORSDOF 6
