REMARK  Name = ZINC09058952
REMARK  5 active torsions:
REMARK  status: ('A' for Active; 'I' for Inactive)
REMARK    1  A    between atoms: C_16  and  C_18
REMARK    2  A    between atoms: C_18  and  C_19
REMARK    3  A    between atoms: C_19  and  C_20
REMARK    4  A    between atoms: N_25  and  C_28
REMARK    5  A    between atoms: C_28  and  C_29
REMARK                            x       y       z     vdW  Elec       q    Type
REMARK                         _______ _______ _______ _____ _____    ______ ____
ROOT
ATOM      1  C   UNL     1      -4.585   2.790   3.481  0.00  0.00    +0.002 A 
ATOM      2  C   UNL     1      -3.310   2.454   3.059  0.00  0.00    +0.004 A 
ATOM      3  C   UNL     1      -2.286   3.368   3.163  0.00  0.00    -0.026 A 
ATOM      4  C   UNL     1      -2.517   4.635   3.691  0.00  0.00    +0.054 A 
ATOM      5  C   UNL     1      -3.803   4.966   4.112  0.00  0.00    +0.062 A 
ATOM      6  C   UNL     1      -4.827   4.046   4.006  0.00  0.00    +0.022 A 
ATOM      7 CL   UNL     1      -4.119   6.540   4.773  0.00  0.00    -0.082 Cl
ATOM      8  N   UNL     1      -1.334   5.378   3.696  0.00  0.00    -0.285 N 
ATOM      9  C   UNL     1      -0.295   4.683   3.195  0.00  0.00    +0.211 C 
ATOM     10  O   UNL     1       0.848   5.072   3.077  0.00  0.00    -0.277 OA
ATOM     11  C   UNL     1      -0.826   3.330   2.810  0.00  0.00    +0.050 C 
ATOM     12  C   UNL     1      -0.097   2.205   3.555  0.00  0.00    +0.088 C 
ATOM     13  C   UNL     1      -0.027   1.039   2.530  0.00  0.00    +0.073 C 
ATOM     14  C   UNL     1      -0.729   1.579   1.267  0.00  0.00    -0.057 C 
ATOM     15  C   UNL     1       1.454   0.901   2.259  0.00  0.00    +0.224 C 
ATOM     16  O   UNL     1       1.955   0.100   1.500  0.00  0.00    -0.275 OA
ATOM     17  N   UNL     1       2.125   1.802   2.986  0.00  0.00    -0.239 N 
ATOM     18  C   UNL     1       1.355   2.584   3.751  0.00  0.00    +0.225 C 
ATOM     19  O   UNL     1       1.757   3.460   4.485  0.00  0.00    -0.275 OA
ATOM     20  H   UNL     1      -1.269   6.290   4.022  0.00  0.00    +0.155 HD
ATOM     21  N   UNL     1      -0.631   3.034   1.402  0.00  0.00    +0.394 N 
ATOM     22  H   UNL     1       0.294   3.358   1.095  0.00  0.00    -0.083 HD
ATOM     23  H   UNL     1      -1.358   3.492   0.839  0.00  0.00    -0.083 HD
ENDROOT
BRANCH  14  24
ATOM     24  C   UNL     1      -0.013   1.086   0.008  0.00  0.00    -0.006 C 
BRANCH  24  25
ATOM     25  C   UNL     1      -0.753   1.593  -1.232  0.00  0.00    +0.094 C 
BRANCH  25  26
ATOM     26  C   UNL     1      -0.047   1.107  -2.471  0.00  0.00    +0.210 C 
ATOM     27  O   UNL     1       0.949   0.422  -2.373  0.00  0.00    -0.276 OA
ATOM     28  N   UNL     1      -0.524   1.433  -3.689  0.00  0.00    -0.329 N 
ATOM     29  H   UNL     1      -1.321   1.980  -3.768  0.00  0.00    +0.145 HD
ATOM     30  H   UNL     1      -0.070   1.120  -4.487  0.00  0.00    +0.145 HD
ENDBRANCH  25  26
ENDBRANCH  24  25
ENDBRANCH  14  24
BRANCH  17  31
ATOM     31  C   UNL     1       3.585   1.921   2.948  0.00  0.00    +0.148 C 
BRANCH  31  32
ATOM     32  C   UNL     1       3.987   2.913   1.855  0.00  0.00    +0.136 C 
ATOM     33  C   UNL     1       5.525   2.959   1.730  0.00  0.00    +0.035 C 
ATOM     34  C   UNL     1       5.791   4.471   1.493  0.00  0.00    +0.031 C 
ATOM     35  C   UNL     1       4.670   5.106   2.353  0.00  0.00    +0.160 C 
ATOM     36  O   UNL     1       3.541   4.229   2.205  0.00  0.00    -0.375 OA
ENDBRANCH  31  32
ENDBRANCH  17  31
TORSDOF 5
