REMARK  Name = ZINC36151189
REMARK  4 active torsions:
REMARK  status: ('A' for Active; 'I' for Inactive)
REMARK    1  A    between atoms: C_1  and  C_2
REMARK    2  A    between atoms: C_2  and  C_3
REMARK    3  A    between atoms: C_2  and  C_4
REMARK    4  A    between atoms: C_11  and  C_14
REMARK                            x       y       z     vdW  Elec       q    Type
REMARK                         _______ _______ _______ _____ _____    ______ ____
ROOT
ATOM      1  C   UNL     1      -1.433  -0.534   0.013  0.00  0.00    +0.101 C 
ATOM      2  C   UNL     1      -1.405  -2.070  -0.013  0.00  0.00    +0.101 C 
ATOM      3  S   UNL     1      -3.120  -2.631  -0.300  0.00  0.00    -0.083 S 
ATOM      4  C   UNL     1      -4.008  -1.508   0.737  0.00  0.00    +0.209 A 
ATOM      5  N   UNL     1      -5.258  -1.533   1.094  0.00  0.00    -0.120 NA
ATOM      6  N   UNL     1      -5.513  -0.519   1.849  0.00  0.00    -0.123 NA
ATOM      7  C   UNL     1      -4.426   0.206   2.014  0.00  0.00    +0.217 A 
ATOM      8  N   UNL     1      -3.419  -0.411   1.311  0.00  0.00    -0.218 N 
ATOM      9  N   UNL     1      -2.117  -0.045   1.209  0.00  0.00    -0.277 N 
ATOM     10  H   UNL     1      -1.605  -0.290   2.044  0.00  0.00    +0.167 HD
ENDROOT
BRANCH   7  11
ATOM     11  C   UNL     1      -4.311   1.444   2.800  0.00  0.00    +0.173 A 
ATOM     12  C   UNL     1      -5.211   1.895   3.719  0.00  0.00    +0.053 A 
ATOM     13  C   UNL     1      -4.703   3.107   4.224  0.00  0.00    +0.042 A 
ATOM     14  C   UNL     1      -3.532   3.337   3.597  0.00  0.00    +0.196 A 
ATOM     15  O   UNL     1      -3.295   2.328   2.741  0.00  0.00    -0.460 OA
ENDBRANCH   7  11
BRANCH   1  17
ATOM     16  C   UNL     1      -0.019   1.526   0.010  0.00  0.00    +0.009 C 
ATOM     17  C   UNL     1       0.002  -0.004   0.002  0.00  0.00    +0.005 C 
ATOM     18  C   UNL     1       0.742  -0.511   1.242  0.00  0.00    +0.009 C 
ENDBRANCH   1  17
TORSDOF 2
