REMARK  Name = ZINC39225722
REMARK  11 active torsions:
REMARK  status: ('A' for Active; 'I' for Inactive)
REMARK    1  A    between atoms: C_1  and  C_2
REMARK    2  A    between atoms: C_2  and  C_3
REMARK    3  A    between atoms: C_2  and  C_4
REMARK    4  A    between atoms: C_4  and  N_5
REMARK    5  A    between atoms: N_14  and  C_23
REMARK    6  A    between atoms: C_17  and  C_19
REMARK    7  A    between atoms: C_19  and  C_20
REMARK    8  A    between atoms: C_20  and  S_21
REMARK    9  A    between atoms: S_21  and  C_22
REMARK   10  A    between atoms: C_23  and  C_24
REMARK   11  A    between atoms: N_26  and  C_27
REMARK                            x       y       z     vdW  Elec       q    Type
REMARK                         _______ _______ _______ _____ _____    ______ ____
ROOT
ATOM      1  N   UNL     1      -1.748  -2.635   0.321  0.00  0.00    +0.394 N 
ATOM      2  C   UNL     1      -1.355  -3.229   1.600  0.00  0.00    -0.067 C 
ATOM      3  C   UNL     1      -1.355  -4.756   1.440  0.00  0.00    +0.077 C 
ATOM      4  C   UNL     1      -2.740  -5.165   1.006  0.00  0.00    +0.213 C 
ATOM      5  O   UNL     1      -3.129  -6.293   1.220  0.00  0.00    -0.276 OA
ATOM      6  N   UNL     1      -3.546  -4.289   0.385  0.00  0.00    -0.302 N 
ATOM      7  C   UNL     1      -3.123  -2.958  -0.039  0.00  0.00    +0.041 C 
ATOM      8  C   UNL     1      -3.288  -2.850  -1.559  0.00  0.00    +0.111 C 
ATOM      9  N   UNL     1      -4.582  -3.366  -1.978  0.00  0.00    -0.291 N 
ATOM     10  C   UNL     1      -5.318  -4.224  -1.270  0.00  0.00    +0.236 C 
ATOM     11  O   UNL     1      -6.338  -4.657  -1.764  0.00  0.00    -0.274 OA
ATOM     12  C   UNL     1      -4.941  -4.680   0.112  0.00  0.00    +0.161 C 
ATOM     13  H   UNL     1      -1.132  -2.977  -0.401  0.00  0.00    -0.079 HD
ENDROOT
BRANCH   1  14
ATOM     14  C   UNL     1      -1.611  -1.175   0.411  0.00  0.00    -0.073 C 
BRANCH  14  16
ATOM     15  C   UNL     1       0.674  -1.220  -0.599  0.00  0.00    +0.005 C 
ATOM     16  C   UNL     1      -0.140  -0.814   0.631  0.00  0.00    -0.034 C 
ATOM     17  C   UNL     1      -0.013   0.694   0.852  0.00  0.00    +0.005 C 
ENDBRANCH  14  16
ENDBRANCH   1  14
BRANCH  12  18
ATOM     18  C   UNL     1      -5.867  -4.022   1.137  0.00  0.00    +0.042 C 
BRANCH  18  19
ATOM     19  C   UNL     1      -5.558  -4.574   2.531  0.00  0.00    +0.071 C 
BRANCH  19  20
ATOM     20  S   UNL     1      -6.655  -3.795   3.747  0.00  0.00    -0.164 S 
ATOM     21  C   UNL     1      -6.168  -4.547   5.324  0.00  0.00    +0.084 C 
ENDBRANCH  19  20
ENDBRANCH  18  19
ENDBRANCH  12  18
BRANCH   9  22
ATOM     22  C   UNL     1      -5.114  -2.912  -3.266  0.00  0.00    +0.203 C 
BRANCH  22  23
ATOM     23  C   UNL     1      -4.652  -3.844  -4.356  0.00  0.00    +0.235 C 
ATOM     24  O   UNL     1      -3.948  -4.793  -4.085  0.00  0.00    -0.274 OA
ATOM     25  N   UNL     1      -5.021  -3.621  -5.633  0.00  0.00    -0.284 N 
ATOM     26  H   UNL     1      -5.644  -2.907  -5.841  0.00  0.00    +0.155 HD
BRANCH  25  27
ATOM     27  C   UNL     1      -4.505  -4.421  -6.661  0.00  0.00    +0.035 A 
ATOM     28  C   UNL     1      -5.278  -4.708  -7.785  0.00  0.00    +0.025 A 
ATOM     29  C   UNL     1      -4.802  -5.482  -8.797  0.00  0.00    +0.031 A 
ATOM     30  C   UNL     1      -3.500  -6.022  -8.738  0.00  0.00    +0.078 A 
ATOM     31  C   UNL     1      -2.735  -5.718  -7.589  0.00  0.00    +0.041 A 
ATOM     32  C   UNL     1      -3.217  -4.931  -6.572  0.00  0.00    +0.040 A 
ATOM     33  S   UNL     1      -1.216  -6.572  -7.921  0.00  0.00    -0.075 S 
ATOM     34  C   UNL     1      -1.634  -7.223  -9.415  0.00  0.00    +0.157 A 
ATOM     35  N   UNL     1      -2.848  -6.804  -9.623  0.00  0.00    -0.247 NA
ENDBRANCH  25  27
ENDBRANCH  22  23
ENDBRANCH   9  22
TORSDOF 8
