REMARK  Name = ZINC01463340
REMARK  12 active torsions:
REMARK  status: ('A' for Active; 'I' for Inactive)
REMARK    1  A    between atoms: C_1  and  C_2
REMARK    2  A    between atoms: C_2  and  C_3
REMARK    3  A    between atoms: C_2  and  C_4
REMARK    4  A    between atoms: C_2  and  C_5
REMARK    5  A    between atoms: C_7  and  C_16
REMARK    6  A    between atoms: C_9  and  C_12
REMARK    7  A    between atoms: C_10  and  O_11
REMARK    8  A    between atoms: C_12  and  C_13
REMARK    9  A    between atoms: C_12  and  C_14
REMARK   10  A    between atoms: C_12  and  C_15
REMARK   11  A    between atoms: C_16  and  C_18
REMARK   12  A    between atoms: C_16  and  N_61
REMARK                            x       y       z     vdW  Elec       q    Type
REMARK                         _______ _______ _______ _____ _____    ______ ____
ROOT
ATOM      1  C   UNL     1      -0.155  -3.605   3.173  0.00  0.00    -0.000 A 
ATOM      2  C   UNL     1      -0.061  -3.135   1.878  0.00  0.00    +0.010 A 
ATOM      3  C   UNL     1       1.151  -2.680   1.392  0.00  0.00    -0.054 A 
ATOM      4  C   UNL     1       2.273  -2.700   2.200  0.00  0.00    +0.010 A 
ATOM      5  C   UNL     1       2.183  -3.164   3.498  0.00  0.00    -0.000 A 
ATOM      6  C   UNL     1       0.968  -3.621   3.987  0.00  0.00    +0.124 A 
ENDROOT
BRANCH   1   8
ATOM      7  C   UNL     1      -2.541  -3.977   2.610  0.00  0.00    +0.015 C 
ATOM      8  C   UNL     1      -1.476  -4.101   3.702  0.00  0.00    -0.009 C 
ATOM      9  C   UNL     1      -1.341  -5.567   4.118  0.00  0.00    +0.015 C 
ATOM     10  C   UNL     1      -1.888  -3.263   4.914  0.00  0.00    +0.015 C 
ENDBRANCH   1   8
BRANCH   5  11
ATOM     11  C   UNL     1       3.406  -3.179   4.379  0.00  0.00    -0.009 C 
ATOM     12  C   UNL     1       4.602  -2.628   3.602  0.00  0.00    +0.015 C 
ATOM     13  C   UNL     1       3.155  -2.311   5.614  0.00  0.00    +0.015 C 
ATOM     14  C   UNL     1       3.700  -4.616   4.817  0.00  0.00    +0.015 C 
ENDBRANCH   5  11
BRANCH   6  15
ATOM     15  O   UNL     1       0.879  -4.083   5.262  0.00  0.00    -0.506 OA
ATOM     16  H   UNL     1       1.046  -5.031   5.349  0.00  0.00    +0.292 HD
ENDBRANCH   6  15
BRANCH   3  17
ATOM     17  C   UNL     1       1.251  -2.168  -0.021  0.00  0.00    +0.012 C 
BRANCH  17  18
ATOM     18  C   UNL     1       1.218  -0.661  -0.013  0.00  0.00    +0.032 A 
ATOM     19  C   UNL     1       0.002  -0.004   0.002  0.00  0.00    +0.022 A 
ATOM     20  C   UNL     1      -0.017   1.382   0.010  0.00  0.00    +0.003 A 
ATOM     21  C   UNL     1       1.194   2.059   0.002  0.00  0.00    +0.020 A 
ATOM     22  C   UNL     1       2.370   1.334  -0.013  0.00  0.00    +0.111 A 
ATOM     23  N   UNL     1       2.350   0.015  -0.020  0.00  0.00    -0.261 NA
ENDBRANCH  17  18
BRANCH  17  28
ATOM     24  C   UNL     1       2.603  -4.109  -0.595  0.00  0.00    -0.078 C 
ATOM     25  C   UNL     1       3.660  -4.418  -1.685  0.00  0.00    -0.020 C 
ATOM     26  C   UNL     1       3.347  -3.369  -2.777  0.00  0.00    -0.020 C 
ATOM     27  C   UNL     1       2.589  -2.244  -2.048  0.00  0.00    -0.078 C 
ATOM     28  N   UNL     1       2.525  -2.641  -0.640  0.00  0.00    +0.388 N 
ATOM     29  H   UNL     1       3.318  -2.235  -0.130  0.00  0.00    -0.080 HD
ENDBRANCH  17  28
ENDBRANCH   3  17
TORSDOF 6
