REMARK  Name = ZINC36992327
REMARK  6 active torsions:
REMARK  status: ('A' for Active; 'I' for Inactive)
REMARK    1  A    between atoms: C_1  and  C_2
REMARK    2  A    between atoms: C_2  and  C_4
REMARK    3  A    between atoms: C_2  and  N_10
REMARK    4  A    between atoms: N_10  and  C_11
REMARK    5  A    between atoms: C_11  and  C_12
REMARK    6  A    between atoms: C_17  and  O_18
REMARK                            x       y       z     vdW  Elec       q    Type
REMARK                         _______ _______ _______ _____ _____    ______ ____
ROOT
ATOM      1  N   UNL     1       0.713  -0.491   1.192  0.00  0.00    +0.386 N 
ATOM      2  H   UNL     1       0.798  -1.495   1.145  0.00  0.00    -0.085 HD
ATOM      3  H   UNL     1       1.632  -0.076   1.228  0.00  0.00    -0.085 HD
ENDROOT
BRANCH   1   5
ATOM      4  C   UNL     1      -0.019   1.526   0.010  0.00  0.00    -0.008 C 
ATOM      5  C   UNL     1       0.002  -0.004   0.002  0.00  0.00    -0.037 C 
BRANCH   5   6
ATOM      6  C   UNL     1       0.707  -0.490  -1.238  0.00  0.00    -0.023 A 
ATOM      7  C   UNL     1       0.176  -0.943  -2.400  0.00  0.00    +0.011 A 
ATOM      8  C   UNL     1       1.026  -1.341  -3.415  0.00  0.00    +0.028 A 
ATOM      9  C   UNL     1       2.366  -1.267  -3.218  0.00  0.00    +0.078 A 
ATOM     10  S   UNL     1       2.459  -0.612  -1.560  0.00  0.00    -0.083 S 
ATOM     11 CL   UNL     1       3.656  -1.693  -4.299  0.00  0.00    -0.076 Cl
ENDBRANCH   5   6
ENDBRANCH   1   5
BRANCH   1  12
ATOM     12  C   UNL     1      -0.040  -0.119   2.398  0.00  0.00    -0.042 C 
BRANCH  12  13
ATOM     13  C   UNL     1       0.689  -0.618   3.619  0.00  0.00    -0.020 A 
ATOM     14  C   UNL     1       0.282  -1.785   4.238  0.00  0.00    +0.025 A 
ATOM     15  C   UNL     1       0.950  -2.244   5.359  0.00  0.00    +0.043 A 
ATOM     16  C   UNL     1       2.027  -1.536   5.863  0.00  0.00    +0.043 A 
ATOM     17  C   UNL     1       2.437  -0.368   5.247  0.00  0.00    +0.084 A 
ATOM     18  C   UNL     1       1.772   0.090   4.118  0.00  0.00    +0.136 A 
ATOM     19 CL   UNL     1       3.788   0.520   5.880  0.00  0.00    -0.080 Cl
ATOM     20 CL   UNL     1       0.437  -3.709   6.134  0.00  0.00    -0.083 Cl
BRANCH  18  21
ATOM     21  O   UNL     1       2.176   1.235   3.507  0.00  0.00    -0.505 OA
ATOM     22  H   UNL     1       1.750   2.034   3.846  0.00  0.00    +0.292 HD
ENDBRANCH  18  21
ENDBRANCH  12  13
ENDBRANCH   1  12
TORSDOF 5
