REMARK  Name = ZINC09313050
REMARK  13 active torsions:
REMARK  status: ('A' for Active; 'I' for Inactive)
REMARK    1  A    between atoms: C_1  and  C_2
REMARK    2  A    between atoms: C_2  and  N_66
REMARK    3  A    between atoms: C_3  and  C_4
REMARK    4  A    between atoms: C_3  and  N_66
REMARK    5  A    between atoms: C_5  and  C_6
REMARK    6  A    between atoms: C_5  and  N_66
REMARK    7  A    between atoms: C_6  and  N_7
REMARK    8  A    between atoms: C_8  and  C_28
REMARK    9  A    between atoms: C_11  and  C_12
REMARK   10  A    between atoms: C_11  and  O_23
REMARK   11  A    between atoms: C_19  and  C_22
REMARK   12  A    between atoms: C_31  and  O_34
REMARK   13  A    between atoms: O_34  and  C_35
REMARK                            x       y       z     vdW  Elec       q    Type
REMARK                         _______ _______ _______ _____ _____    ______ ____
ROOT
ATOM      1  N   UNL     1       2.343  -0.760  -5.473  0.00  0.00    -0.285 N 
ATOM      2  C   UNL     1       2.872  -1.843  -4.638  0.00  0.00    +0.144 C 
ATOM      3  C   UNL     1       4.367  -1.639  -4.562  0.00  0.00    +0.071 C 
ATOM      4  C   UNL     1       5.278  -2.424  -3.880  0.00  0.00    +0.133 C 
ATOM      5  C   UNL     1       4.645  -0.494  -5.322  0.00  0.00    +0.249 C 
ATOM      6  O   UNL     1       5.746  -0.006  -5.503  0.00  0.00    -0.282 OA
ATOM      7  C   UNL     1       3.361   0.022  -5.870  0.00  0.00    +0.288 C 
ATOM      8  O   UNL     1       3.250   1.005  -6.573  0.00  0.00    -0.266 OA
ENDROOT
BRANCH   4   9
ATOM      9  C   UNL     1       6.717  -2.138  -3.983  0.00  0.00    +0.017 A 
ATOM     10  C   UNL     1       7.319  -1.985  -5.239  0.00  0.00    +0.015 A 
ATOM     11  C   UNL     1       8.661  -1.709  -5.332  0.00  0.00    +0.046 A 
ATOM     12  C   UNL     1       9.441  -1.590  -4.179  0.00  0.00    +0.124 A 
ATOM     13  C   UNL     1       8.841  -1.756  -2.934  0.00  0.00    -0.002 A 
ATOM     14  C   UNL     1       7.499  -2.022  -2.827  0.00  0.00    +0.019 A 
ATOM     15  C   UNL     1       9.931  -1.595  -1.891  0.00  0.00    +0.083 C 
ATOM     16  C   UNL     1      11.213  -1.726  -2.747  0.00  0.00    +0.175 C 
ATOM     17  O   UNL     1      10.768  -1.319  -4.052  0.00  0.00    -0.488 OA
ATOM     18  C   UNL     1      11.704  -3.174  -2.769  0.00  0.00    +0.052 C 
ENDBRANCH   4   9
BRANCH   2  19
ATOM     19  C   UNL     1       2.270  -1.772  -3.259  0.00  0.00    -0.022 A 
ATOM     20  C   UNL     1       1.929  -2.935  -2.593  0.00  0.00    +0.009 A 
ATOM     21  C   UNL     1       1.377  -2.873  -1.329  0.00  0.00    +0.046 A 
ATOM     22  C   UNL     1       1.165  -1.642  -0.726  0.00  0.00    +0.120 A 
ATOM     23  C   UNL     1       1.502  -0.476  -1.397  0.00  0.00    +0.046 A 
ATOM     24  C   UNL     1       2.058  -0.543  -2.660  0.00  0.00    +0.009 A 
BRANCH  22  25
ATOM     25  O   UNL     1       0.622  -1.578   0.519  0.00  0.00    -0.495 OA
ATOM     26  C   UNL     1       0.432  -0.276   1.077  0.00  0.00    +0.277 C 
ENDBRANCH  22  25
ENDBRANCH   2  19
BRANCH   4  27
ATOM     27  O   UNL     1       4.846  -3.453  -3.120  0.00  0.00    -0.506 OA
ATOM     28  H   UNL     1       5.631  -3.910  -2.702  0.00  0.00    +0.292 HD
ENDBRANCH   4  27
BRANCH   1  29
ATOM     29  C   UNL     1       0.933  -0.562  -5.818  0.00  0.00    +0.090 C 
BRANCH  29  30
ATOM     30  C   UNL     1       0.270   0.328  -4.764  0.00  0.00    -0.060 C 
BRANCH  30  31
ATOM     31  N   UNL     1      -1.107   0.635  -5.202  0.00  0.00    +0.380 N 
ATOM     32  H   UNL     1      -1.099   0.840  -6.208  0.00  0.00    -0.082 HD
BRANCH  31  34
ATOM     33  C   UNL     1      -3.342  -0.269  -5.617  0.00  0.00    -0.017 C 
ATOM     34  C   UNL     1      -1.987  -0.527  -4.956  0.00  0.00    -0.082 C 
ENDBRANCH  31  34
BRANCH  31  35
ATOM     35  C   UNL     1      -1.617   1.817  -4.476  0.00  0.00    -0.082 C 
ATOM     36  C   UNL     1      -1.002   3.075  -5.093  0.00  0.00    -0.017 C 
ENDBRANCH  31  35
ENDBRANCH  30  31
ENDBRANCH  29  30
ENDBRANCH   1  29
TORSDOF 9
