REMARK  Name = ZINC09670141
REMARK  7 active torsions:
REMARK  status: ('A' for Active; 'I' for Inactive)
REMARK    1  A    between atoms: C_6  and  S_11
REMARK    2  A    between atoms: S_11  and  N_14
REMARK    3  A    between atoms: N_14  and  C_15
REMARK    4  A    between atoms: C_18  and  C_21
REMARK    5  A    between atoms: C_21  and  C_22
REMARK    6  A    between atoms: N_24  and  C_25
REMARK    7  A    between atoms: C_25  and  C_26
REMARK                            x       y       z     vdW  Elec       q    Type
REMARK                         _______ _______ _______ _____ _____    ______ ____
ROOT
ATOM      1  C   UNL     1      -1.041   3.334   2.357  0.00  0.00    +0.048 A 
ATOM      2  C   UNL     1       0.331   3.354   2.142  0.00  0.00    +0.025 A 
ATOM      3  C   UNL     1       1.129   4.226   2.857  0.00  0.00    +0.006 A 
ATOM      4  C   UNL     1       0.564   5.071   3.795  0.00  0.00    -0.039 A 
ATOM      5  C   UNL     1      -0.801   5.049   4.016  0.00  0.00    +0.006 A 
ATOM      6  C   UNL     1      -1.605   4.184   3.300  0.00  0.00    +0.025 A 
ENDROOT
BRANCH   1   7
ATOM      7  N   UNL     1      -1.850   2.457   1.632  0.00  0.00    -0.216 N 
ATOM      8  H   UNL     1      -2.202   1.658   2.056  0.00  0.00    +0.174 HD
BRANCH   7   9
ATOM      9  S   UNL     1      -2.211   2.780   0.049  0.00  0.00    +0.072 S 
ATOM     10  O   UNL     1      -3.102   1.761  -0.382  0.00  0.00    -0.150 OA
ATOM     11  O   UNL     1      -0.975   3.038  -0.605  0.00  0.00    -0.150 OA
BRANCH   9  17
ATOM     12  C   UNL     1      -4.660   9.018  -0.288  0.00  0.00    +0.001 A 
ATOM     13  C   UNL     1      -3.282   9.043  -0.491  0.00  0.00    +0.001 A 
ATOM     14  C   UNL     1      -2.549   7.896  -0.469  0.00  0.00    +0.008 A 
ATOM     15  C   UNL     1      -3.189   6.666  -0.237  0.00  0.00    -0.016 A 
ATOM     16  C   UNL     1      -2.466   5.462  -0.207  0.00  0.00    +0.037 A 
ATOM     17  C   UNL     1      -3.120   4.290   0.019  0.00  0.00    +0.109 A 
ATOM     18  C   UNL     1      -4.499   4.264   0.223  0.00  0.00    +0.029 A 
ATOM     19  C   UNL     1      -5.231   5.411   0.201  0.00  0.00    +0.010 A 
ATOM     20  C   UNL     1      -4.591   6.641  -0.030  0.00  0.00    -0.018 A 
ATOM     21  C   UNL     1      -5.314   7.846  -0.061  0.00  0.00    +0.008 A 
ENDBRANCH   9  17
ENDBRANCH   7   9
ENDBRANCH   1   7
BRANCH   4  22
ATOM     22  C   UNL     1       1.437   6.017   4.578  0.00  0.00    +0.130 C 
BRANCH  22  23
ATOM     23  C   UNL     1       1.906   5.340   5.840  0.00  0.00    +0.218 C 
ATOM     24  O   UNL     1       1.564   4.202   6.080  0.00  0.00    -0.275 OA
ATOM     25  N   UNL     1       2.705   6.000   6.702  0.00  0.00    -0.311 N 
ATOM     26  H   UNL     1       2.978   6.911   6.509  0.00  0.00    +0.149 HD
BRANCH  25  27
ATOM     27  C   UNL     1       3.161   5.342   7.928  0.00  0.00    +0.142 C 
BRANCH  27  28
ATOM     28  C   UNL     1       4.034   6.289   8.711  0.00  0.00    +0.005 A 
ATOM     29  C   UNL     1       5.410   6.169   8.651  0.00  0.00    +0.008 A 
ATOM     30  C   UNL     1       6.212   7.040   9.364  0.00  0.00    +0.000 A 
ATOM     31  C   UNL     1       5.638   8.025  10.147  0.00  0.00    +0.003 A 
ATOM     32  C   UNL     1       4.263   8.143  10.213  0.00  0.00    +0.038 A 
ATOM     33  C   UNL     1       3.459   7.274   9.495  0.00  0.00    +0.128 A 
ATOM     34  F   UNL     1       2.115   7.388   9.559  0.00  0.00    -0.205 F 
ENDBRANCH  27  28
ENDBRANCH  25  27
ENDBRANCH  22  23
ENDBRANCH   4  22
TORSDOF 7
