REMARK  Name = ZINC13113180
REMARK  8 active torsions:
REMARK  status: ('A' for Active; 'I' for Inactive)
REMARK    1  A    between atoms: C_1  and  C_2
REMARK    2  A    between atoms: C_2  and  C_4
REMARK    3  A    between atoms: C_2  and  N_14
REMARK    4  A    between atoms: C_15  and  C_17
REMARK    5  A    between atoms: C_17  and  S_18
REMARK    6  A    between atoms: S_18  and  C_19
REMARK    7  A    between atoms: C_22  and  C_27
REMARK    8  A    between atoms: N_23  and  C_24
REMARK                            x       y       z     vdW  Elec       q    Type
REMARK                         _______ _______ _______ _____ _____    ______ ____
ROOT
ATOM      1  S   UNL     1      -4.045  -1.327   3.098  0.00  0.00    -0.077 S 
ENDROOT
BRANCH   1   2
ATOM      2  C   UNL     1      -5.687  -1.903   2.823  0.00  0.00    +0.193 A 
ATOM      3  N   UNL     1      -6.216  -2.226   1.666  0.00  0.00    -0.122 NA
ATOM      4  N   UNL     1      -7.433  -2.607   1.825  0.00  0.00    -0.128 NA
ATOM      5  C   UNL     1      -7.757  -2.550   3.097  0.00  0.00    +0.167 A 
ATOM      6  N   UNL     1      -6.647  -2.103   3.777  0.00  0.00    -0.299 N 
BRANCH   5   7
ATOM      7  C   UNL     1      -9.064  -2.904   3.686  0.00  0.00    +0.044 A 
ATOM      8  C   UNL     1      -9.368  -2.965   5.008  0.00  0.00    +0.095 A 
ATOM      9  N   UNL     1     -10.675  -3.327   5.164  0.00  0.00    -0.360 N 
ATOM     10  H   UNL     1     -11.123  -3.436   6.017  0.00  0.00    +0.165 HD
ATOM     11  C   UNL     1     -11.267  -3.514   3.933  0.00  0.00    +0.047 A 
ATOM     12  C   UNL     1     -10.293  -3.254   2.954  0.00  0.00    +0.010 A 
ATOM     13  C   UNL     1     -10.617  -3.362   1.603  0.00  0.00    +0.011 A 
ATOM     14  C   UNL     1     -11.894  -3.720   1.234  0.00  0.00    +0.001 A 
ATOM     15  C   UNL     1     -12.857  -3.974   2.200  0.00  0.00    +0.002 A 
ATOM     16  C   UNL     1     -12.550  -3.879   3.539  0.00  0.00    +0.026 A 
ENDBRANCH   5   7
BRANCH   6  17
ATOM     17  C   UNL     1      -6.521  -1.885   5.220  0.00  0.00    +0.091 C 
ATOM     18  C   UNL     1      -5.337  -1.048   5.707  0.00  0.00    +0.027 C 
ATOM     19  C   UNL     1      -5.351  -2.561   5.937  0.00  0.00    +0.027 C 
ENDBRANCH   6  17
ENDBRANCH   1   2
BRANCH   1  20
ATOM     20  C   UNL     1      -3.310  -1.288   1.440  0.00  0.00    +0.173 C 
BRANCH  20  22
ATOM     21  N   UNL     1      -1.137  -0.696   0.418  0.00  0.00    -0.308 N 
ATOM     22  C   UNL     1      -1.885  -0.806   1.533  0.00  0.00    +0.224 C 
ATOM     23  O   UNL     1      -1.412  -0.517   2.612  0.00  0.00    -0.275 OA
ATOM     24  H   UNL     1      -1.515  -0.927  -0.445  0.00  0.00    +0.149 HD
BRANCH  21  26
ATOM     25  C   UNL     1       0.271   1.302   0.498  0.00  0.00    +0.033 C 
ATOM     26  C   UNL     1       0.248  -0.227   0.508  0.00  0.00    +0.100 C 
BRANCH  26  27
ATOM     27  C   UNL     1       1.033  -0.749  -0.668  0.00  0.00    -0.024 A 
ATOM     28  C   UNL     1       0.457  -0.778  -1.924  0.00  0.00    +0.009 A 
ATOM     29  C   UNL     1       1.173  -1.257  -3.005  0.00  0.00    +0.050 A 
ATOM     30  C   UNL     1       2.472  -1.710  -2.831  0.00  0.00    +0.162 A 
ATOM     31  C   UNL     1       3.052  -1.679  -1.569  0.00  0.00    +0.162 A 
ATOM     32  C   UNL     1       2.329  -1.193  -0.489  0.00  0.00    +0.055 A 
ATOM     33  O   UNL     1       4.329  -2.112  -1.378  0.00  0.00    -0.485 OA
ATOM     34  C   UNL     1       4.891  -2.930  -2.409  0.00  0.00    +0.270 C 
ATOM     35  C   UNL     1       4.585  -2.276  -3.763  0.00  0.00    +0.270 C 
ATOM     36  O   UNL     1       3.163  -2.183  -3.904  0.00  0.00    -0.485 OA
ENDBRANCH  26  27
ENDBRANCH  21  26
ENDBRANCH  20  22
ENDBRANCH   1  20
TORSDOF 7
