REMARK  Name = ZINC38767158
REMARK  5 active torsions:
REMARK  status: ('A' for Active; 'I' for Inactive)
REMARK    1  A    between atoms: C_1  and  C_2
REMARK    2  A    between atoms: C_8  and  C_16
REMARK    3  A    between atoms: C_19  and  O_22
REMARK    4  A    between atoms: O_22  and  C_23
REMARK    5  A    between atoms: C_23  and  C_24
REMARK                            x       y       z     vdW  Elec       q    Type
REMARK                         _______ _______ _______ _____ _____    ______ ____
ROOT
ATOM      1  C   UNL     1      -2.232  -3.076   0.167  0.00  0.00    -0.042 A 
ATOM      2  C   UNL     1      -2.525  -2.346   1.304  0.00  0.00    +0.007 A 
ATOM      3  C   UNL     1      -3.747  -1.712   1.424  0.00  0.00    +0.046 A 
ATOM      4  C   UNL     1      -4.679  -1.808   0.401  0.00  0.00    +0.121 A 
ATOM      5  C   UNL     1      -4.382  -2.541  -0.739  0.00  0.00    +0.046 A 
ATOM      6  C   UNL     1      -3.157  -3.168  -0.856  0.00  0.00    +0.007 A 
ENDROOT
BRANCH   1  13
ATOM      7  C   UNL     1      -4.546  -7.469   1.276  0.00  0.00    +0.085 C 
ATOM      8  C   UNL     1      -3.345  -6.632   0.921  0.00  0.00    +0.121 C 
ATOM      9  N   UNL     1      -2.604  -6.198   1.910  0.00  0.00    -0.165 NA
ATOM     10  C   UNL     1      -1.483  -5.489   1.706  0.00  0.00    +0.249 C 
ATOM     11  O   UNL     1      -0.830  -5.047   2.629  0.00  0.00    -0.273 OA
ATOM     12  C   UNL     1      -1.075  -5.270   0.263  0.00  0.00    +0.148 C 
ATOM     13  C   UNL     1      -0.898  -3.767   0.040  0.00  0.00    +0.047 C 
ATOM     14  C   UNL     1      -0.333  -3.544  -1.365  0.00  0.00    +0.105 C 
ATOM     15  C   UNL     1      -1.114  -4.316  -2.388  0.00  0.00    +0.219 C 
ATOM     16  O   UNL     1      -1.028  -3.988  -3.552  0.00  0.00    -0.275 OA
ATOM     17  N   UNL     1      -1.905  -5.355  -2.071  0.00  0.00    -0.273 N 
ATOM     18  C   UNL     1      -2.075  -5.739  -0.779  0.00  0.00    +0.116 C 
ATOM     19  N   UNL     1      -3.123  -6.402  -0.368  0.00  0.00    -0.224 NA
ATOM     20  H   UNL     1      -2.351  -5.850  -2.775  0.00  0.00    +0.156 HD
ENDBRANCH   1  13
BRANCH   4  21
ATOM     21  O   UNL     1      -5.882  -1.186   0.517  0.00  0.00    -0.487 OA
BRANCH  21  22
ATOM     22  C   UNL     1      -6.793  -1.328  -0.575  0.00  0.00    +0.264 C 
BRANCH  22  23
ATOM     23  C   UNL     1      -8.063  -0.576  -0.271  0.00  0.00    -0.009 A 
ATOM     24  C   UNL     1      -9.102  -1.210   0.385  0.00  0.00    +0.007 A 
ATOM     25  C   UNL     1     -10.267  -0.521   0.664  0.00  0.00    +0.002 A 
ATOM     26  C   UNL     1     -10.394   0.803   0.289  0.00  0.00    +0.020 A 
ATOM     27  C   UNL     1      -9.355   1.439  -0.367  0.00  0.00    +0.041 A 
ATOM     28  C   UNL     1      -8.186   0.750  -0.641  0.00  0.00    +0.027 A 
ATOM     29 CL   UNL     1      -9.514   3.102  -0.839  0.00  0.00    -0.084 Cl
ENDBRANCH  22  23
ENDBRANCH  21  22
ENDBRANCH   4  21
TORSDOF 4
