REMARK  Name = ZINC39695894
REMARK  8 active torsions:
REMARK  status: ('A' for Active; 'I' for Inactive)
REMARK    1  A    between atoms: C_1  and  C_2
REMARK    2  A    between atoms: C_2  and  C_3
REMARK    3  A    between atoms: C_6  and  C_9
REMARK    4  A    between atoms: C_9  and  C_11
REMARK    5  A    between atoms: C_9  and  N_12
REMARK    6  A    between atoms: C_13  and  C_15
REMARK    7  A    between atoms: C_26  and  C_28
REMARK    8  A    between atoms: C_33  and  C_34
REMARK                            x       y       z     vdW  Elec       q    Type
REMARK                         _______ _______ _______ _____ _____    ______ ____
ROOT
ATOM      1  C   UNL     1       5.070  -5.446  -4.519  0.00  0.00    +0.100 C 
ATOM      2  C   UNL     1       6.322  -4.548  -4.399  0.00  0.00    +0.121 C 
ATOM      3  N   UNL     1       7.397  -5.312  -5.073  0.00  0.00    -0.296 N 
ATOM      4  C   UNL     1       6.734  -5.921  -6.251  0.00  0.00    +0.115 C 
ATOM      5  C   UNL     1       5.344  -6.346  -5.736  0.00  0.00    -0.004 C 
ATOM      6  C   UNL     1       4.289  -6.113  -6.813  0.00  0.00    -0.010 C 
ATOM      7  C   UNL     1       4.549  -7.060  -7.988  0.00  0.00    -0.082 C 
ATOM      8  N   UNL     1       4.500  -8.450  -7.519  0.00  0.00    +0.379 N 
ATOM      9  C   UNL     1       5.578  -8.690  -6.551  0.00  0.00    -0.082 C 
ATOM     10  C   UNL     1       5.362  -7.812  -5.315  0.00  0.00    -0.010 C 
ATOM     11  C   UNL     1       8.687  -5.429  -4.699  0.00  0.00    +0.247 C 
ATOM     12  O   UNL     1       9.476  -6.016  -5.414  0.00  0.00    -0.270 OA
ATOM     13  H   UNL     1       3.609  -8.624  -7.078  0.00  0.00    -0.086 HD
ATOM     14  H   UNL     1       4.611  -9.073  -8.305  0.00  0.00    -0.086 HD
ENDROOT
BRANCH  11  15
ATOM     15  C   UNL     1       9.142  -4.842  -3.421  0.00  0.00    +0.040 A 
ATOM     16  C   UNL     1       8.602  -3.635  -2.972  0.00  0.00    +0.013 A 
ATOM     17  C   UNL     1       9.031  -3.093  -1.778  0.00  0.00    +0.001 A 
ATOM     18  C   UNL     1       9.994  -3.743  -1.026  0.00  0.00    +0.000 A 
ATOM     19  C   UNL     1      10.533  -4.939  -1.465  0.00  0.00    +0.004 A 
ATOM     20  C   UNL     1      10.108  -5.495  -2.655  0.00  0.00    -0.038 A 
ATOM     21  C   UNL     1      10.693  -6.801  -3.129  0.00  0.00    +0.044 C 
ENDBRANCH  11  15
BRANCH   1  23
ATOM     22  N   UNL     1       2.635  -5.045  -4.343  0.00  0.00    -0.308 N 
ATOM     23  C   UNL     1       3.841  -4.606  -4.753  0.00  0.00    +0.219 C 
ATOM     24  O   UNL     1       3.938  -3.533  -5.312  0.00  0.00    -0.275 OA
ATOM     25  H   UNL     1       2.558  -5.903  -3.896  0.00  0.00    +0.149 HD
BRANCH  22  26
ATOM     26  C   UNL     1       1.441  -4.228  -4.571  0.00  0.00    +0.100 C 
ATOM     27  C   UNL     1       1.294  -3.212  -3.437  0.00  0.00    +0.033 C 
BRANCH  26  31
ATOM     28  C   UNL     1      -2.006  -6.749  -4.685  0.00  0.00    -0.048 A 
ATOM     29  C   UNL     1      -1.893  -5.692  -5.569  0.00  0.00    +0.004 A 
ATOM     30  C   UNL     1      -0.778  -4.876  -5.532  0.00  0.00    +0.006 A 
ATOM     31  C   UNL     1       0.225  -5.117  -4.611  0.00  0.00    -0.027 A 
ATOM     32  C   UNL     1       0.111  -6.173  -3.726  0.00  0.00    +0.006 A 
ATOM     33  C   UNL     1      -1.006  -6.986  -3.760  0.00  0.00    +0.004 A 
BRANCH  28  35
ATOM     34  C   UNL     1      -4.298  -7.072  -3.796  0.00  0.00    +0.009 C 
ATOM     35  C   UNL     1      -3.222  -7.638  -4.725  0.00  0.00    +0.032 C 
ENDBRANCH  28  35
ENDBRANCH  26  31
ENDBRANCH  22  26
ENDBRANCH   1  23
TORSDOF 5
