REMARK  Name = ZINC67093849
REMARK  5 active torsions:
REMARK  status: ('A' for Active; 'I' for Inactive)
REMARK    1  A    between atoms: C_6  and  C_7
REMARK    2  A    between atoms: N_9  and  C_10
REMARK    3  A    between atoms: C_10  and  C_11
REMARK    4  A    between atoms: C_11  and  C_12
REMARK    5  A    between atoms: N_16  and  C_17
REMARK                            x       y       z     vdW  Elec       q    Type
REMARK                         _______ _______ _______ _____ _____    ______ ____
ROOT
ATOM      1  C   UNL     1      -1.275  -0.759  -0.253  0.00  0.00    +0.244 C 
ATOM      2  O   UNL     1      -1.259  -1.974  -0.249  0.00  0.00    -0.270 OA
ATOM      3  N   UNL     1      -2.450  -0.100  -0.192  0.00  0.00    -0.311 N 
ATOM      4  H   UNL     1      -2.463   0.870  -0.196  0.00  0.00    +0.149 HD
ENDROOT
BRANCH   1  10
ATOM      5  C   UNL     1      -0.028   1.398  -0.330  0.00  0.00    +0.015 A 
ATOM      6  C   UNL     1       1.134   2.109  -0.395  0.00  0.00    +0.027 A 
ATOM      7  C   UNL     1       2.359   1.448  -0.458  0.00  0.00    +0.047 A 
ATOM      8  C   UNL     1       2.393   0.038  -0.455  0.00  0.00    +0.004 A 
ATOM      9  C   UNL     1       1.204  -0.684  -0.387  0.00  0.00    +0.023 A 
ATOM     10  C   UNL     1      -0.008  -0.004  -0.325  0.00  0.00    +0.037 A 
ATOM     11  C   UNL     1       3.804  -0.327  -0.531  0.00  0.00    -0.019 A 
ATOM     12  C   UNL     1       4.512   0.818  -0.574  0.00  0.00    +0.020 A 
ATOM     13  N   UNL     1       3.660   1.886  -0.531  0.00  0.00    -0.358 N 
ATOM     14  H   UNL     1       3.934   2.816  -0.549  0.00  0.00    +0.166 HD
ATOM     15  C   UNL     1       6.021   0.867  -0.655  0.00  0.00    +0.053 C 
ATOM     16  C   UNL     1       6.575  -0.506  -0.258  0.00  0.00    +0.006 C 
ATOM     17  C   UNL     1       5.853  -1.598  -1.052  0.00  0.00    +0.005 C 
ATOM     18  C   UNL     1       4.404  -1.709  -0.561  0.00  0.00    +0.037 C 
ENDBRANCH   1  10
BRANCH   3  19
ATOM     19  C   UNL     1      -3.707  -0.849  -0.121  0.00  0.00    +0.112 C 
BRANCH  19  20
ATOM     20  C   UNL     1      -4.881   0.130  -0.061  0.00  0.00    +0.095 C 
BRANCH  20  21
ATOM     21  C   UNL     1      -6.174  -0.641   0.012  0.00  0.00    +0.134 A 
ATOM     22  N   UNL     1      -6.282  -1.931   0.029  0.00  0.00    -0.158 NA
ATOM     23  N   UNL     1      -7.644  -2.253   0.101  0.00  0.00    -0.254 N 
ATOM     24  C   UNL     1      -8.331  -1.092   0.127  0.00  0.00    +0.176 A 
ATOM     25  N   UNL     1      -7.430  -0.090   0.077  0.00  0.00    -0.304 N 
ATOM     26  S   UNL     1     -10.032  -0.922   0.213  0.00  0.00    -0.011 S 
ATOM     27  H   UNL     1      -8.023  -3.146   0.128  0.00  0.00    +0.191 HD
BRANCH  25  28
ATOM     28  C   UNL     1      -7.739   1.342   0.089  0.00  0.00    +0.091 C 
ATOM     29  C   UNL     1      -9.180   1.757  -0.214  0.00  0.00    +0.027 C 
ATOM     30  C   UNL     1      -8.637   1.862   1.213  0.00  0.00    +0.027 C 
ENDBRANCH  25  28
ENDBRANCH  20  21
ENDBRANCH  19  20
ENDBRANCH   3  19
TORSDOF 5
