REMARK  Name = ZINC22029198
REMARK  9 active torsions:
REMARK  status: ('A' for Active; 'I' for Inactive)
REMARK    1  A    between atoms: C_1  and  C_2
REMARK    2  A    between atoms: C_2  and  C_4
REMARK    3  A    between atoms: C_2  and  S_16
REMARK    4  A    between atoms: N_6  and  C_7
REMARK    5  A    between atoms: N_6  and  C_8
REMARK    6  A    between atoms: C_8  and  C_9
REMARK    7  A    between atoms: S_16  and  C_17
REMARK    8  A    between atoms: C_21  and  C_24
REMARK    9  A    between atoms: N_31  and  C_32
REMARK                            x       y       z     vdW  Elec       q    Type
REMARK                         _______ _______ _______ _____ _____    ______ ____
ROOT
ATOM      1  C   UNL     1       2.182  -2.433  -2.643  0.00  0.00    +0.173 A 
ATOM      2  N   UNL     1       1.421  -2.931  -1.689  0.00  0.00    -0.216 NA
ATOM      3  C   UNL     1       0.742  -2.133  -0.873  0.00  0.00    +0.117 A 
ATOM      4  C   UNL     1       0.807  -0.732  -0.975  0.00  0.00    +0.080 A 
ATOM      5  C   UNL     1       0.002  -0.004   0.002  0.00  0.00    +0.010 A 
ATOM      6  C   UNL     1      -0.730  -0.710   0.898  0.00  0.00    +0.057 A 
ATOM      7  S   UNL     1      -0.372  -2.405   0.481  0.00  0.00    -0.076 S 
ATOM      8  C   UNL     1       1.647  -0.222  -2.011  0.00  0.00    +0.263 A 
ATOM      9  O   UNL     1       1.768   0.981  -2.171  0.00  0.00    -0.267 OA
ATOM     10  N   UNL     1       2.305  -1.084  -2.808  0.00  0.00    -0.290 N 
ATOM     11  C   UNL     1       3.169  -0.565  -3.871  0.00  0.00    +0.154 C 
ENDROOT
BRANCH   5  12
ATOM     12  C   UNL     1      -0.018   1.474   0.010  0.00  0.00    +0.021 A 
ATOM     13  C   UNL     1      -1.093   2.322   0.019  0.00  0.00    +0.016 A 
ATOM     14  C   UNL     1      -0.863   3.682   0.029  0.00  0.00    +0.008 A 
ATOM     15  C   UNL     1       0.415   4.136   0.019  0.00  0.00    +0.046 A 
ATOM     16  S   UNL     1       1.353   2.617   0.003  0.00  0.00    -0.097 S 
ENDBRANCH   5  12
BRANCH   1  17
ATOM     17  S   UNL     1       3.063  -3.523  -3.711  0.00  0.00    -0.075 S 
BRANCH  17  19
ATOM     18  C   UNL     1       3.051  -5.270  -1.610  0.00  0.00    +0.029 C 
ATOM     19  C   UNL     1       2.530  -5.118  -3.041  0.00  0.00    +0.137 C 
BRANCH  19  20
ATOM     20  C   UNL     1       3.078  -6.231  -3.896  0.00  0.00    +0.229 C 
ATOM     21  O   UNL     1       4.082  -6.053  -4.552  0.00  0.00    -0.274 OA
ATOM     22  N   UNL     1       2.451  -7.424  -3.933  0.00  0.00    -0.299 N 
ATOM     23  C   UNL     1       1.238  -7.639  -3.140  0.00  0.00    +0.132 C 
BRANCH  22  24
ATOM     24  C   UNL     1       2.984  -8.506  -4.764  0.00  0.00    +0.142 C 
BRANCH  24  25
ATOM     25  C   UNL     1       3.959  -9.326  -3.958  0.00  0.00    -0.027 A 
ATOM     26  C   UNL     1       5.300  -8.992  -3.949  0.00  0.00    +0.005 A 
ATOM     27  C   UNL     1       6.195  -9.740  -3.206  0.00  0.00    +0.003 A 
ATOM     28  C   UNL     1       5.750 -10.829  -2.481  0.00  0.00    +0.038 A 
ATOM     29  C   UNL     1       4.408 -11.168  -2.494  0.00  0.00    +0.124 A 
ATOM     30  C   UNL     1       3.512 -10.414  -3.234  0.00  0.00    +0.043 A 
ATOM     31  F   UNL     1       3.972 -12.233  -1.786  0.00  0.00    -0.205 F 
ENDBRANCH  24  25
ENDBRANCH  22  24
ENDBRANCH  19  20
ENDBRANCH  17  19
ENDBRANCH   1  17
TORSDOF 6
