REMARK  Name = ZINC05953217
REMARK  8 active torsions:
REMARK  status: ('A' for Active; 'I' for Inactive)
REMARK    1  A    between atoms: C_1  and  C_2
REMARK    2  A    between atoms: C_2  and  O_3
REMARK    3  A    between atoms: O_3  and  C_4
REMARK    4  A    between atoms: C_4  and  C_6
REMARK    5  A    between atoms: C_8  and  C_27
REMARK    6  A    between atoms: C_10  and  N_11
REMARK    7  A    between atoms: C_12  and  C_14
REMARK    8  A    between atoms: C_23  and  C_25
REMARK                            x       y       z     vdW  Elec       q    Type
REMARK                         _______ _______ _______ _____ _____    ______ ____
ROOT
ATOM      1  N   UNL     1      -0.257   1.818  -2.581  0.00  0.00    -0.279 N 
ATOM      2  C   UNL     1      -0.724   1.860  -1.318  0.00  0.00    +0.222 C 
ATOM      3  O   UNL     1      -1.775   2.414  -1.077  0.00  0.00    -0.275 OA
ATOM      4  H   UNL     1       0.547   1.315  -2.785  0.00  0.00    +0.155 HD
ENDROOT
BRANCH   2   5
ATOM      5  C   UNL     1       0.061   1.217  -0.203  0.00  0.00    +0.092 C 
ATOM      6  C   UNL     1      -0.667  -0.061   0.312  0.00  0.00    +0.002 C 
ATOM      7  C   UNL     1      -2.143   0.392   0.532  0.00  0.00    +0.004 C 
ATOM      8  C   UNL     1      -2.084   1.329   1.760  0.00  0.00    +0.004 C 
ATOM      9  C   UNL     1      -0.579   1.354   2.166  0.00  0.00    +0.004 C 
ATOM     10  C   UNL     1      -0.155  -0.111   1.794  0.00  0.00    +0.008 C 
ATOM     11  C   UNL     1       0.120   2.155   1.025  0.00  0.00    +0.117 C 
BRANCH  11  12
ATOM     12  C   UNL     1      -0.628   3.433   0.746  0.00  0.00    +0.360 C 
ATOM     13  O   UNL     1      -1.450   3.837   1.534  0.00  0.00    -0.246 OA
ATOM     14  O   UNL     1      -0.381   4.123  -0.379  0.00  0.00    -0.246 OA
ENDBRANCH  11  12
ENDBRANCH   2   5
BRANCH   1  19
ATOM     15  C   UNL     1      -0.603   2.571  -4.940  0.00  0.00    +0.088 A 
ATOM     16  C   UNL     1      -1.484   3.354  -5.774  0.00  0.00    +0.027 A 
ATOM     17  C   UNL     1      -2.536   3.940  -5.176  0.00  0.00    -0.011 A 
ATOM     18  S   UNL     1      -2.369   3.444  -3.474  0.00  0.00    -0.078 S 
ATOM     19  C   UNL     1      -0.926   2.495  -3.590  0.00  0.00    +0.086 A 
ATOM     20  C   UNL     1      -3.604   4.803  -5.798  0.00  0.00    +0.051 C 
BRANCH  15  21
ATOM     21  C   UNL     1       0.572   1.891  -5.489  0.00  0.00    +0.342 C 
ATOM     22  O   UNL     1       1.294   1.239  -4.759  0.00  0.00    -0.245 OA
BRANCH  21  23
ATOM     23  O   UNL     1       0.853   1.987  -6.805  0.00  0.00    -0.461 OA
BRANCH  23  25
ATOM     24  C   UNL     1       2.189   1.511  -8.785  0.00  0.00    +0.048 C 
ATOM     25  C   UNL     1       2.034   1.287  -7.279  0.00  0.00    +0.229 C 
ENDBRANCH  23  25
ENDBRANCH  21  23
ENDBRANCH  15  21
ENDBRANCH   1  19
TORSDOF 6
