REMARK  Name = ZINC62898139
REMARK  3 active torsions:
REMARK  status: ('A' for Active; 'I' for Inactive)
REMARK    1  A    between atoms: C_1  and  C_2
REMARK    2  A    between atoms: C_2  and  C_7
REMARK    3  A    between atoms: C_17  and  C_19
REMARK                            x       y       z     vdW  Elec       q    Type
REMARK                         _______ _______ _______ _____ _____    ______ ____
ROOT
ATOM      1  C   UNL     1       0.704  -0.467  -1.362  0.00  0.00    +0.224 C 
ATOM      2  O   UNL     1       0.187   0.068  -0.404  0.00  0.00    -0.275 OA
ATOM      3  N   UNL     1       0.238  -0.222  -2.603  0.00  0.00    -0.271 N 
ATOM      4  C   UNL     1       0.798  -0.929  -3.763  0.00  0.00    +0.114 C 
ATOM      5  C   UNL     1       1.028   0.104  -4.874  0.00  0.00    +0.024 C 
ATOM      6  C   UNL     1      -0.321   0.689  -5.290  0.00  0.00    +0.038 C 
ATOM      7  C   UNL     1      -1.082   1.170  -4.082  0.00  0.00    -0.025 A 
ATOM      8  C   UNL     1      -0.789   0.702  -2.806  0.00  0.00    +0.039 A 
ATOM      9  C   UNL     1      -1.515   1.155  -1.705  0.00  0.00    +0.024 A 
ATOM     10  C   UNL     1      -2.529   2.068  -1.875  0.00  0.00    +0.017 A 
ATOM     11  C   UNL     1      -2.828   2.539  -3.159  0.00  0.00    +0.064 A 
ATOM     12  C   UNL     1      -2.086   2.085  -4.258  0.00  0.00    +0.020 A 
ENDROOT
BRANCH   1  14
ATOM     13  C   UNL     1       1.497  -2.813  -1.635  0.00  0.00    +0.019 C 
ATOM     14  C   UNL     1       1.867  -1.405  -1.165  0.00  0.00    +0.028 C 
ATOM     15  C   UNL     1       3.108  -0.892  -1.931  0.00  0.00    -0.005 C 
ATOM     16  C   UNL     1       3.906  -0.143  -0.835  0.00  0.00    -0.082 C 
ATOM     17  N   UNL     1       3.699  -0.984   0.372  0.00  0.00    +0.380 N 
ATOM     18  C   UNL     1       2.289  -1.429   0.315  0.00  0.00    -0.067 C 
ATOM     19  H   UNL     1       4.316  -1.782   0.350  0.00  0.00    -0.086 HD
ATOM     20  H   UNL     1       3.859  -0.441   1.207  0.00  0.00    -0.086 HD
ENDBRANCH   1  14
BRANCH  11  21
ATOM     21  C   UNL     1      -3.911   3.517  -3.353  0.00  0.00    +0.387 C 
ATOM     22  O   UNL     1      -4.551   3.920  -2.392  0.00  0.00    -0.241 OA
ATOM     23  O   UNL     1      -4.170   3.928  -4.476  0.00  0.00    -0.241 OA
ENDBRANCH  11  21
TORSDOF 2
