REMARK  Name = ZINC55372070
REMARK  3 active torsions:
REMARK  status: ('A' for Active; 'I' for Inactive)
REMARK    1  A    between atoms: C_1  and  C_2
REMARK    2  A    between atoms: C_4  and  C_20
REMARK    3  A    between atoms: N_8  and  C_9
REMARK                            x       y       z     vdW  Elec       q    Type
REMARK                         _______ _______ _______ _____ _____    ______ ____
ROOT
ATOM      1  C   UNL     1      -0.018   1.503   0.010  0.00  0.00    +0.066 C 
ATOM      2  C   UNL     1       0.002  -0.004   0.002  0.00  0.00    +0.044 A 
ATOM      3  C   UNL     1       0.006  -0.699  -1.197  0.00  0.00    +0.046 A 
ATOM      4  C   UNL     1       0.025  -2.084  -1.160  0.00  0.00    +0.044 A 
ATOM      5  N   UNL     1       0.040  -2.698   0.011  0.00  0.00    -0.220 NA
ATOM      6  C   UNL     1       0.035  -2.004   1.140  0.00  0.00    +0.216 A 
ATOM      7  N   UNL     1       0.022  -0.679   1.139  0.00  0.00    -0.220 NA
ATOM      8  N   UNL     1       0.050  -2.679   2.348  0.00  0.00    -0.310 N 
ATOM      9  C   UNL     1       0.030  -2.881  -2.439  0.00  0.00    +0.066 C 
ATOM     10  H   UNL     1       0.063  -3.649   2.362  0.00  0.00    +0.149 HD
ENDROOT
BRANCH   8  11
ATOM     11  C   UNL     1       0.046  -1.929   3.606  0.00  0.00    +0.078 C 
ATOM     12  C   UNL     1       0.661  -2.785   4.720  0.00  0.00    +0.027 C 
ATOM     13  C   UNL     1       0.863  -1.902   5.950  0.00  0.00    +0.037 C 
ATOM     14  C   UNL     1      -0.409  -1.169   6.290  0.00  0.00    -0.044 A 
ATOM     15  C   UNL     1      -0.524  -0.633   7.566  0.00  0.00    +0.004 A 
ATOM     16  C   UNL     1      -1.661   0.055   7.936  0.00  0.00    +0.000 A 
ATOM     17  C   UNL     1      -2.695   0.212   7.031  0.00  0.00    +0.000 A 
ATOM     18  C   UNL     1      -2.583  -0.323   5.765  0.00  0.00    +0.004 A 
ATOM     19  C   UNL     1      -1.440  -1.018   5.391  0.00  0.00    -0.042 A 
ATOM     20  C   UNL     1      -1.391  -1.588   3.997  0.00  0.00    +0.057 C 
ENDBRANCH   8  11
TORSDOF 1
