REMARK  Name = ZINC03934228
REMARK  5 active torsions:
REMARK  status: ('A' for Active; 'I' for Inactive)
REMARK    1  A    between atoms: C_1  and  C_2
REMARK    2  A    between atoms: C_2  and  C_4
REMARK    3  A    between atoms: C_4  and  N_5
REMARK    4  A    between atoms: C_13  and  O_34
REMARK    5  A    between atoms: C_29  and  O_33
REMARK                            x       y       z     vdW  Elec       q    Type
REMARK                         _______ _______ _______ _____ _____    ______ ____
ROOT
ATOM      1  N   UNL     1      -1.484  -1.059  -1.742  0.00  0.00    +0.386 N 
ATOM      2  C   UNL     1      -2.103   0.201  -2.168  0.00  0.00    -0.077 C 
ATOM      3  C   UNL     1      -3.570  -0.046  -2.538  0.00  0.00    -0.000 C 
ATOM      4  C   UNL     1      -3.625  -1.093  -3.647  0.00  0.00    +0.068 C 
ATOM      5  C   UNL     1      -2.823  -0.628  -4.836  0.00  0.00    +0.014 A 
ATOM      6  C   UNL     1      -1.470  -0.798  -5.026  0.00  0.00    -0.041 A 
ATOM      7  C   UNL     1      -0.955  -0.272  -6.197  0.00  0.00    +0.007 A 
ATOM      8  C   UNL     1      -1.795   0.323  -7.124  0.00  0.00    +0.049 A 
ATOM      9  C   UNL     1      -3.175   0.413  -6.956  0.00  0.00    +0.159 A 
ATOM     10  C   UNL     1      -3.706  -0.105  -5.768  0.00  0.00    +0.167 A 
ATOM     11  O   UNL     1      -4.978  -0.233  -5.335  0.00  0.00    -0.478 OA
ATOM     12  C   UNL     1      -5.023  -1.196  -4.246  0.00  0.00    +0.233 C 
ATOM     13  C   UNL     1      -5.257  -2.560  -4.843  0.00  0.00    +0.062 A 
ATOM     14  C   UNL     1      -4.330  -3.540  -4.886  0.00  0.00    -0.013 A 
ATOM     15  C   UNL     1      -4.939  -4.681  -5.536  0.00  0.00    +0.003 A 
ATOM     16  C   UNL     1      -4.464  -5.957  -5.855  0.00  0.00    +0.010 A 
ATOM     17  C   UNL     1      -5.339  -6.804  -6.489  0.00  0.00    +0.001 A 
ATOM     18  C   UNL     1      -6.633  -6.424  -6.803  0.00  0.00    +0.002 A 
ATOM     19  C   UNL     1      -7.129  -5.169  -6.499  0.00  0.00    +0.026 A 
ATOM     20  C   UNL     1      -6.264  -4.287  -5.854  0.00  0.00    +0.047 A 
ATOM     21  N   UNL     1      -6.421  -3.003  -5.420  0.00  0.00    -0.355 N 
ATOM     22  H   UNL     1      -7.234  -2.481  -5.506  0.00  0.00    +0.166 HD
ATOM     23  C   UNL     1      -2.933  -3.402  -4.340  0.00  0.00    +0.071 C 
ATOM     24  C   UNL     1      -2.956  -2.384  -3.193  0.00  0.00    +0.072 C 
ATOM     25  C   UNL     1      -1.504  -2.038  -2.830  0.00  0.00    -0.030 C 
ATOM     26  C   UNL     1      -0.676  -1.552  -4.008  0.00  0.00    +0.023 C 
ATOM     27  H   UNL     1      -1.993  -1.428  -0.953  0.00  0.00    -0.081 HD
ENDROOT
BRANCH  24  28
ATOM     28  O   UNL     1      -3.647  -2.927  -2.066  0.00  0.00    -0.389 OA
ATOM     29  H   UNL     1      -3.266  -3.751  -1.731  0.00  0.00    +0.210 HD
ENDBRANCH  24  28
BRANCH   9  30
ATOM     30  O   UNL     1      -3.971   0.979  -7.903  0.00  0.00    -0.503 OA
ATOM     31  H   UNL     1      -4.300   0.354  -8.564  0.00  0.00    +0.292 HD
ENDBRANCH   9  30
BRANCH   1  32
ATOM     32  C   UNL     1      -0.093  -0.805  -1.345  0.00  0.00    -0.048 C 
BRANCH  32  34
ATOM     33  C   UNL     1       0.285  -2.441   0.653  0.00  0.00    +0.036 C 
ATOM     34  C   UNL     1       0.510  -2.070  -0.790  0.00  0.00    -0.096 C 
ATOM     35  C   UNL     1       1.229  -2.846  -1.562  0.00  0.00    +0.005 C 
ENDBRANCH  32  34
ENDBRANCH   1  32
TORSDOF 4
