REMARK  Name = ZINC39631895
REMARK  11 active torsions:
REMARK  status: ('A' for Active; 'I' for Inactive)
REMARK    1  A    between atoms: C_1  and  C_2
REMARK    2  A    between atoms: C_2  and  C_4
REMARK    3  A    between atoms: C_2  and  N_11
REMARK    4  A    between atoms: C_4  and  C_5
REMARK    5  A    between atoms: C_5  and  C_6
REMARK    6  A    between atoms: C_6  and  C_7
REMARK    7  A    between atoms: C_7  and  C_8
REMARK    8  A    between atoms: C_7  and  C_9
REMARK    9  A    between atoms: C_7  and  O_10
REMARK   10  A    between atoms: C_12  and  C_14
REMARK   11  A    between atoms: C_25  and  C_27
REMARK                            x       y       z     vdW  Elec       q    Type
REMARK                         _______ _______ _______ _____ _____    ______ ____
ROOT
ATOM      1  C   UNL     1       0.780  -1.133   3.576  0.00  0.00    +0.100 C 
ATOM      2  C   UNL     1       1.973  -0.207   3.907  0.00  0.00    +0.121 C 
ATOM      3  N   UNL     1       1.444   0.739   4.917  0.00  0.00    -0.297 N 
ATOM      4  C   UNL     1       0.577  -0.094   5.784  0.00  0.00    +0.115 C 
ATOM      5  C   UNL     1      -0.132  -1.058   4.812  0.00  0.00    -0.004 C 
ATOM      6  C   UNL     1      -1.500  -0.505   4.426  0.00  0.00    -0.010 C 
ATOM      7  C   UNL     1      -2.407  -0.493   5.660  0.00  0.00    -0.082 C 
ATOM      8  N   UNL     1      -2.539  -1.858   6.186  0.00  0.00    +0.379 N 
ATOM      9  C   UNL     1      -1.232  -2.348   6.640  0.00  0.00    -0.082 C 
ATOM     10  C   UNL     1      -0.276  -2.437   5.448  0.00  0.00    -0.010 C 
ATOM     11  C   UNL     1       1.694   2.059   5.023  0.00  0.00    +0.260 C 
ATOM     12  O   UNL     1       1.181   2.704   5.912  0.00  0.00    -0.271 OA
ATOM     13  H   UNL     1      -3.185  -1.857   6.961  0.00  0.00    -0.086 HD
ATOM     14  H   UNL     1      -2.890  -2.464   5.460  0.00  0.00    -0.086 HD
ENDROOT
BRANCH  11  15
ATOM     15  C   UNL     1       2.611   2.734   4.035  0.00  0.00    +0.296 C 
ATOM     16  C   UNL     1       4.036   2.187   4.195  0.00  0.00    +0.283 C 
ATOM     17  O   UNL     1       4.882   2.857   3.255  0.00  0.00    -0.484 OA
ATOM     18  C   UNL     1       4.756   4.210   3.175  0.00  0.00    +0.162 A 
ATOM     19  C   UNL     1       5.763   4.953   2.576  0.00  0.00    +0.049 A 
ATOM     20  C   UNL     1       5.648   6.327   2.485  0.00  0.00    +0.004 A 
ATOM     21  C   UNL     1       4.531   6.965   2.992  0.00  0.00    +0.004 A 
ATOM     22  C   UNL     1       3.526   6.231   3.592  0.00  0.00    +0.049 A 
ATOM     23  C   UNL     1       3.635   4.852   3.687  0.00  0.00    +0.163 A 
ATOM     24  O   UNL     1       2.640   4.143   4.288  0.00  0.00    -0.473 OA
ENDBRANCH  11  15
BRANCH   1  26
ATOM     25  N   UNL     1      -0.597  -1.503   1.555  0.00  0.00    -0.312 N 
ATOM     26  C   UNL     1       0.051  -0.633   2.355  0.00  0.00    +0.218 C 
ATOM     27  O   UNL     1       0.048   0.551   2.093  0.00  0.00    -0.275 OA
ATOM     28  H   UNL     1      -0.594  -2.450   1.765  0.00  0.00    +0.149 HD
BRANCH  25  30
ATOM     29  C   UNL     1      -0.324  -0.900  -0.800  0.00  0.00    +0.028 C 
ATOM     30  C   UNL     1      -1.305  -1.018   0.368  0.00  0.00    +0.070 C 
BRANCH  30  31
ATOM     31  C   UNL     1      -2.419  -2.001   0.002  0.00  0.00    +0.022 C 
BRANCH  31  32
ATOM     32  C   UNL     1      -3.466  -2.024   1.117  0.00  0.00    +0.005 C 
BRANCH  32  33
ATOM     33  C   UNL     1      -4.580  -3.007   0.750  0.00  0.00    +0.034 C 
BRANCH  33  34
ATOM     34  C   UNL     1      -5.627  -3.030   1.865  0.00  0.00    +0.061 C 
ATOM     35  C   UNL     1      -6.219  -1.630   2.038  0.00  0.00    +0.041 C 
ATOM     36  C   UNL     1      -6.741  -4.013   1.499  0.00  0.00    +0.041 C 
BRANCH  34  37
ATOM     37  O   UNL     1      -5.012  -3.441   3.088  0.00  0.00    -0.389 OA
ATOM     38  H   UNL     1      -4.614  -4.322   3.051  0.00  0.00    +0.210 HD
ENDBRANCH  34  37
ENDBRANCH  33  34
ENDBRANCH  32  33
ENDBRANCH  31  32
ENDBRANCH  30  31
ENDBRANCH  25  30
ENDBRANCH   1  26
TORSDOF 8
