REMARK  Name = ZINC39654409
REMARK  8 active torsions:
REMARK  status: ('A' for Active; 'I' for Inactive)
REMARK    1  A    between atoms: C_1  and  C_2
REMARK    2  A    between atoms: C_2  and  C_3
REMARK    3  A    between atoms: C_6  and  C_9
REMARK    4  A    between atoms: C_9  and  C_10
REMARK    5  A    between atoms: C_10  and  N_11
REMARK    6  A    between atoms: C_12  and  C_14
REMARK    7  A    between atoms: C_25  and  C_27
REMARK    8  A    between atoms: C_30  and  C_35
REMARK                            x       y       z     vdW  Elec       q    Type
REMARK                         _______ _______ _______ _____ _____    ______ ____
ROOT
ATOM      1  C   UNL     1       5.058  -0.744  -8.903  0.00  0.00    +0.100 C 
ATOM      2  C   UNL     1       6.397  -1.420  -8.532  0.00  0.00    +0.121 C 
ATOM      3  N   UNL     1       7.328  -1.028  -9.616  0.00  0.00    -0.296 N 
ATOM      4  C   UNL     1       6.987   0.387  -9.901  0.00  0.00    +0.115 C 
ATOM      5  C   UNL     1       5.449   0.441  -9.801  0.00  0.00    -0.004 C 
ATOM      6  C   UNL     1       4.825   0.285 -11.184  0.00  0.00    -0.010 C 
ATOM      7  C   UNL     1       5.181   1.503 -12.041  0.00  0.00    -0.082 C 
ATOM      8  N   UNL     1       4.684   2.722 -11.392  0.00  0.00    +0.379 N 
ATOM      9  C   UNL     1       5.358   2.914 -10.102  0.00  0.00    -0.082 C 
ATOM     10  C   UNL     1       5.009   1.755  -9.164  0.00  0.00    -0.010 C 
ATOM     11  C   UNL     1       8.271  -1.786 -10.210  0.00  0.00    +0.250 C 
ATOM     12  O   UNL     1       8.366  -2.966  -9.932  0.00  0.00    -0.270 OA
ATOM     13  H   UNL     1       4.866   3.516 -11.987  0.00  0.00    -0.086 HD
ATOM     14  H   UNL     1       3.690   2.639 -11.241  0.00  0.00    -0.086 HD
ENDROOT
BRANCH  11  15
ATOM     15  C   UNL     1       9.189  -1.183 -11.198  0.00  0.00    +0.075 A 
ATOM     16  C   UNL     1       9.625   0.134 -11.038  0.00  0.00    +0.016 A 
ATOM     17  C   UNL     1      10.481   0.692 -11.963  0.00  0.00    +0.007 A 
ATOM     18  C   UNL     1      10.912  -0.049 -13.050  0.00  0.00    -0.012 A 
ATOM     19  C   UNL     1      10.486  -1.355 -13.218  0.00  0.00    +0.162 A 
ATOM     20  C   UNL     1       9.630  -1.931 -12.293  0.00  0.00    +0.171 A 
ATOM     21  F   UNL     1       9.218  -3.208 -12.453  0.00  0.00    -0.202 F 
ATOM     22  F   UNL     1      10.911  -2.072 -14.282  0.00  0.00    -0.202 F 
ATOM     23  C   UNL     1      11.848   0.569 -14.056  0.00  0.00    +0.047 C 
ENDBRANCH  11  15
BRANCH   1  25
ATOM     24  N   UNL     1       3.030  -0.019  -7.687  0.00  0.00    -0.315 N 
ATOM     25  C   UNL     1       4.356  -0.254  -7.663  0.00  0.00    +0.218 C 
ATOM     26  O   UNL     1       4.986  -0.070  -6.642  0.00  0.00    -0.275 OA
ATOM     27  H   UNL     1       2.526  -0.165  -8.504  0.00  0.00    +0.149 HD
BRANCH  24  28
ATOM     28  C   UNL     1       2.348   0.458  -6.482  0.00  0.00    +0.109 C 
BRANCH  28  29
ATOM     29  C   UNL     1       0.858   0.644  -6.778  0.00  0.00    +0.054 C 
BRANCH  29  33
ATOM     30  C   UNL     1      -1.133   2.035  -3.264  0.00  0.00    -0.048 A 
ATOM     31  C   UNL     1      -0.603   2.941  -4.163  0.00  0.00    +0.004 A 
ATOM     32  C   UNL     1       0.041   2.491  -5.300  0.00  0.00    +0.004 A 
ATOM     33  C   UNL     1       0.156   1.135  -5.538  0.00  0.00    -0.046 A 
ATOM     34  C   UNL     1      -0.372   0.228  -4.639  0.00  0.00    +0.004 A 
ATOM     35  C   UNL     1      -1.013   0.678  -3.499  0.00  0.00    +0.004 A 
BRANCH  30  37
ATOM     36  C   UNL     1      -0.820   2.678  -0.889  0.00  0.00    +0.009 C 
ATOM     37  C   UNL     1      -1.835   2.525  -2.024  0.00  0.00    +0.032 C 
ENDBRANCH  30  37
ENDBRANCH  29  33
ENDBRANCH  28  29
ENDBRANCH  24  28
ENDBRANCH   1  25
TORSDOF 6
