REMARK  Name = ZINC39693562
REMARK  15 active torsions:
REMARK  status: ('A' for Active; 'I' for Inactive)
REMARK    1  A    between atoms: C_1  and  C_2
REMARK    2  A    between atoms: C_2  and  C_3
REMARK    3  A    between atoms: C_2  and  C_4
REMARK    4  A    between atoms: C_4  and  C_6
REMARK    5  A    between atoms: C_4  and  O_32
REMARK    6  A    between atoms: C_10  and  C_19
REMARK    7  A    between atoms: N_21  and  C_22
REMARK    8  A    between atoms: C_22  and  C_23
REMARK    9  A    between atoms: C_23  and  N_24
REMARK   10  A    between atoms: C_25  and  O_27
REMARK   11  A    between atoms: O_27  and  C_28
REMARK   12  A    between atoms: C_28  and  C_29
REMARK   13  A    between atoms: C_28  and  C_30
REMARK   14  A    between atoms: C_28  and  C_31
REMARK   15  A    between atoms: O_32  and  C_33
REMARK                            x       y       z     vdW  Elec       q    Type
REMARK                         _______ _______ _______ _____ _____    ______ ____
ROOT
ATOM      1  C   UNL     1      -1.763  -1.926  -0.242  0.00  0.00    +0.257 C 
ATOM      2  O   UNL     1      -2.331  -2.570   0.614  0.00  0.00    -0.272 OA
ATOM      3  N   UNL     1      -1.164  -2.556  -1.272  0.00  0.00    -0.297 N 
ATOM      4  C   UNL     1      -0.487  -1.945  -2.441  0.00  0.00    +0.121 C 
ATOM      5  C   UNL     1       0.751  -2.837  -2.684  0.00  0.00    +0.100 C 
ATOM      6  C   UNL     1       0.386  -4.194  -2.062  0.00  0.00    -0.004 C 
ATOM      7  C   UNL     1      -1.027  -4.016  -1.489  0.00  0.00    +0.115 C 
ATOM      8  C   UNL     1       1.362  -4.542  -0.942  0.00  0.00    -0.010 C 
ATOM      9  C   UNL     1       1.013  -5.922  -0.377  0.00  0.00    -0.082 C 
ATOM     10  N   UNL     1       1.088  -6.924  -1.447  0.00  0.00    +0.379 N 
ATOM     11  C   UNL     1       0.082  -6.634  -2.476  0.00  0.00    -0.082 C 
ATOM     12  C   UNL     1       0.391  -5.284  -3.129  0.00  0.00    -0.010 C 
ATOM     13  H   UNL     1       2.007  -6.903  -1.862  0.00  0.00    -0.086 HD
ATOM     14  H   UNL     1       0.917  -7.840  -1.060  0.00  0.00    -0.086 HD
ENDROOT
BRANCH   5  15
ATOM     15  C   UNL     1       1.961  -2.252  -2.002  0.00  0.00    +0.218 C 
ATOM     16  O   UNL     1       1.848  -1.722  -0.917  0.00  0.00    -0.275 OA
ATOM     17  N   UNL     1       3.169  -2.319  -2.597  0.00  0.00    -0.314 N 
ATOM     18  H   UNL     1       3.259  -2.743  -3.464  0.00  0.00    +0.149 HD
BRANCH  17  19
ATOM     19  C   UNL     1       4.345  -1.751  -1.933  0.00  0.00    +0.123 C 
BRANCH  19  20
ATOM     20  C   UNL     1       5.578  -1.959  -2.815  0.00  0.00    +0.126 C 
BRANCH  20  21
ATOM     21  N   UNL     1       6.754  -1.391  -2.151  0.00  0.00    -0.280 N 
ATOM     22  C   UNL     1       7.962  -1.458  -2.746  0.00  0.00    +0.401 C 
ATOM     23  O   UNL     1       8.075  -1.989  -3.833  0.00  0.00    -0.226 OA
ATOM     24  H   UNL     1       6.664  -0.966  -1.284  0.00  0.00    +0.152 HD
BRANCH  22  25
ATOM     25  O   UNL     1       9.042  -0.935  -2.136  0.00  0.00    -0.445 OA
BRANCH  25  26
ATOM     26  C   UNL     1      10.290  -1.042  -2.825  0.00  0.00    +0.107 C 
ATOM     27  C   UNL     1      10.192  -0.325  -4.173  0.00  0.00    +0.055 C 
ATOM     28  C   UNL     1      11.393  -0.397  -1.983  0.00  0.00    +0.055 C 
ATOM     29  C   UNL     1      10.621  -2.518  -3.055  0.00  0.00    +0.055 C 
ENDBRANCH  25  26
ENDBRANCH  22  25
ENDBRANCH  20  21
ENDBRANCH  19  20
ENDBRANCH  17  19
ENDBRANCH   5  15
BRANCH   1  30
ATOM     30  C   UNL     1      -1.727  -0.422  -0.155  0.00  0.00    +0.261 C 
BRANCH  30  32
ATOM     31  C   UNL     1      -0.241   1.567   0.121  0.00  0.00    +0.011 C 
ATOM     32  C   UNL     1      -0.295   0.038   0.128  0.00  0.00    +0.033 C 
ATOM     33  C   UNL     1       0.147  -0.482   1.497  0.00  0.00    +0.011 C 
ENDBRANCH  30  32
BRANCH  30  34
ATOM     34  O   UNL     1      -2.585   0.014   0.901  0.00  0.00    -0.479 OA
BRANCH  34  35
ATOM     35  C   UNL     1      -3.216   1.206   0.731  0.00  0.00    +0.122 A 
ATOM     36  C   UNL     1      -3.073   1.904  -0.460  0.00  0.00    +0.045 A 
ATOM     37  C   UNL     1      -3.716   3.115  -0.630  0.00  0.00    +0.004 A 
ATOM     38  C   UNL     1      -4.500   3.632   0.384  0.00  0.00    +0.000 A 
ATOM     39  C   UNL     1      -4.643   2.938   1.572  0.00  0.00    +0.004 A 
ATOM     40  C   UNL     1      -4.007   1.724   1.745  0.00  0.00    +0.045 A 
ENDBRANCH  34  35
ENDBRANCH  30  34
ENDBRANCH   1  30
TORSDOF 10
