REMARK  Name = ZINC63600830
REMARK  7 active torsions:
REMARK  status: ('A' for Active; 'I' for Inactive)
REMARK    1  A    between atoms: C_1  and  C_2
REMARK    2  A    between atoms: C_5  and  S_8
REMARK    3  A    between atoms: S_8  and  N_11
REMARK    4  A    between atoms: N_11  and  C_12
REMARK    5  A    between atoms: C_18  and  N_22
REMARK    6  A    between atoms: C_23  and  C_25
REMARK    7  A    between atoms: C_28  and  C_31
REMARK                            x       y       z     vdW  Elec       q    Type
REMARK                         _______ _______ _______ _____ _____    ______ ____
ROOT
ATOM      1  C   UNL     1       2.554  -4.562   1.278  0.00  0.00    +0.224 C 
ATOM      2  N   UNL     1       3.918  -4.585   0.734  0.00  0.00    -0.318 N 
ATOM      3  C   UNL     1       4.814  -5.510   1.275  0.00  0.00    +0.043 A 
ATOM      4  C   UNL     1       6.154  -5.676   0.882  0.00  0.00    +0.026 A 
ATOM      5  C   UNL     1       6.960  -6.619   1.476  0.00  0.00    +0.025 A 
ATOM      6  C   UNL     1       6.476  -7.440   2.486  0.00  0.00    +0.035 A 
ATOM      7  C   UNL     1       5.154  -7.295   2.893  0.00  0.00    +0.040 A 
ATOM      8  C   UNL     1       4.354  -6.350   2.293  0.00  0.00    +0.034 A 
ATOM      9  S   UNL     1       2.653  -5.889   2.545  0.00  0.00    -0.084 S 
ATOM     10  H   UNL     1       4.188  -3.979   0.025  0.00  0.00    +0.148 HD
ENDROOT
BRANCH   6  11
ATOM     11  N   UNL     1       7.306  -8.398   3.085  0.00  0.00    -0.283 N 
ATOM     12  C   UNL     1       6.785  -9.561   3.523  0.00  0.00    +0.248 C 
ATOM     13  O   UNL     1       5.619  -9.820   3.314  0.00  0.00    -0.273 OA
ATOM     14  H   UNL     1       8.255  -8.223   3.184  0.00  0.00    +0.155 HD
BRANCH  12  15
ATOM     15  C   UNL     1       7.652 -10.539   4.273  0.00  0.00    +0.239 C 
ATOM     16  C   UNL     1       8.463 -11.386   3.308  0.00  0.00    +0.041 C 
ATOM     17  C   UNL     1       8.043 -12.645   3.552  0.00  0.00    +0.098 C 
ATOM     18  N   UNL     1       7.097 -12.648   4.529  0.00  0.00    -0.153 NA
ATOM     19  N   UNL     1       6.825 -11.530   4.981  0.00  0.00    -0.170 NA
BRANCH  17  20
ATOM     20  C   UNL     1       8.541 -13.851   2.856  0.00  0.00    +0.039 A 
ATOM     21  C   UNL     1       8.176 -15.159   3.028  0.00  0.00    +0.018 A 
ATOM     22  C   UNL     1       8.784 -16.124   2.255  0.00  0.00    +0.008 A 
ATOM     23  C   UNL     1       9.724 -15.750   1.349  0.00  0.00    +0.046 A 
ATOM     24  S   UNL     1       9.769 -13.978   1.565  0.00  0.00    -0.095 S 
ENDBRANCH  17  20
ENDBRANCH  12  15
ENDBRANCH   6  11
BRANCH   1  25
ATOM     25  N   UNL     1       1.569  -4.893   0.244  0.00  0.00    -0.160 NA
ATOM     26  H   UNL     1       1.826  -5.445  -0.511  0.00  0.00    +0.151 HD
BRANCH  25  27
ATOM     27  S   UNL     1       0.019  -4.325   0.366  0.00  0.00    +0.061 S 
ATOM     28  O   UNL     1      -0.417  -4.616   1.687  0.00  0.00    -0.153 OA
ATOM     29  O   UNL     1      -0.675  -4.788  -0.784  0.00  0.00    -0.153 OA
BRANCH  27  34
ATOM     30  C   UNL     1       0.277   1.686  -0.080  0.00  0.00    +0.044 C 
ATOM     31  C   UNL     1       0.212   0.185   0.031  0.00  0.00    -0.050 A 
ATOM     32  C   UNL     1       0.060  -0.587  -1.106  0.00  0.00    +0.005 A 
ATOM     33  C   UNL     1       0.001  -1.964  -1.003  0.00  0.00    +0.029 A 
ATOM     34  C   UNL     1       0.095  -2.570   0.236  0.00  0.00    +0.105 A 
ATOM     35  C   UNL     1       0.248  -1.798   1.372  0.00  0.00    +0.029 A 
ATOM     36  C   UNL     1       0.311  -0.421   1.270  0.00  0.00    +0.005 A 
ENDBRANCH  27  34
ENDBRANCH  25  27
ENDBRANCH   1  25
TORSDOF 6
