REMARK  Name = ZINC17524291
REMARK  11 active torsions:
REMARK  status: ('A' for Active; 'I' for Inactive)
REMARK    1  A    between atoms: C_1  and  C_2
REMARK    2  A    between atoms: C_4  and  C_33
REMARK    3  A    between atoms: C_5  and  C_32
REMARK    4  A    between atoms: C_6  and  S_9
REMARK    5  A    between atoms: C_7  and  C_8
REMARK    6  A    between atoms: S_9  and  N_12
REMARK    7  A    between atoms: N_12  and  C_13
REMARK    8  A    between atoms: C_13  and  C_15
REMARK    9  A    between atoms: C_13  and  C_16
REMARK   10  A    between atoms: N_18  and  N_19
REMARK   11  A    between atoms: C_20  and  C_22
REMARK                            x       y       z     vdW  Elec       q    Type
REMARK                         _______ _______ _______ _____ _____    ______ ____
ROOT
ATOM      1  C   UNL     1      -1.103  -5.914   0.186  0.00  0.00    +0.247 C 
ATOM      2  O   UNL     1      -0.219  -6.729   0.027  0.00  0.00    -0.273 OA
ATOM      3  N   UNL     1      -0.799  -4.611   0.344  0.00  0.00    -0.233 N 
ATOM      4  H   UNL     1      -1.506  -3.960   0.472  0.00  0.00    +0.173 HD
ENDROOT
BRANCH   3   5
ATOM      5  N   UNL     1       0.540  -4.197   0.324  0.00  0.00    -0.230 N 
ATOM      6  C   UNL     1       0.845  -2.894   0.482  0.00  0.00    +0.262 C 
ATOM      7  O   UNL     1      -0.043  -2.077   0.642  0.00  0.00    -0.269 OA
ATOM      8  H   UNL     1       1.247  -4.849   0.196  0.00  0.00    +0.173 HD
BRANCH   6   9
ATOM      9  C   UNL     1       2.248  -2.460   0.461  0.00  0.00    +0.063 A 
ATOM     10  C   UNL     1       3.345  -3.253   0.293  0.00  0.00    +0.096 A 
ATOM     11  N   UNL     1       4.468  -2.495   0.331  0.00  0.00    -0.360 N 
ATOM     12  H   UNL     1       5.370  -2.838   0.235  0.00  0.00    +0.165 HD
ATOM     13  C   UNL     1       4.147  -1.168   0.527  0.00  0.00    +0.047 A 
ATOM     14  C   UNL     1       2.748  -1.082   0.617  0.00  0.00    +0.012 A 
ATOM     15  C   UNL     1       2.136   0.152   0.822  0.00  0.00    +0.011 A 
ATOM     16  C   UNL     1       2.909   1.288   0.926  0.00  0.00    +0.001 A 
ATOM     17  C   UNL     1       4.291   1.204   0.838  0.00  0.00    +0.002 A 
ATOM     18  C   UNL     1       4.910  -0.011   0.640  0.00  0.00    +0.026 A 
ENDBRANCH   6   9
ENDBRANCH   3   5
BRANCH   1  19
ATOM     19  C   UNL     1      -2.543  -6.359   0.208  0.00  0.00    +0.160 C 
ATOM     20  C   UNL     1      -3.170  -5.994   1.556  0.00  0.00    +0.035 C 
BRANCH  19  21
ATOM     21  N   UNL     1      -2.608  -7.811   0.017  0.00  0.00    -0.178 NA
ATOM     22  H   UNL     1      -1.937  -8.383   0.419  0.00  0.00    +0.149 HD
BRANCH  21  23
ATOM     23  S   UNL     1      -3.829  -8.473  -0.886  0.00  0.00    +0.060 S 
ATOM     24  O   UNL     1      -3.585  -9.872  -0.934  0.00  0.00    -0.153 OA
ATOM     25  O   UNL     1      -5.043  -7.927  -0.389  0.00  0.00    -0.153 OA
BRANCH  23  31
ATOM     26  C   UNL     1      -5.124  -5.199  -4.749  0.00  0.00    +0.044 C 
ATOM     27  C   UNL     1      -4.276  -6.348  -4.266  0.00  0.00    -0.045 A 
ATOM     28  C   UNL     1      -3.354  -6.930  -5.115  0.00  0.00    +0.007 A 
ATOM     29  C   UNL     1      -2.576  -7.984  -4.672  0.00  0.00    -0.045 A 
ATOM     30  C   UNL     1      -2.721  -8.454  -3.380  0.00  0.00    -0.021 A 
ATOM     31  C   UNL     1      -3.644  -7.872  -2.532  0.00  0.00    +0.112 A 
ATOM     32  C   UNL     1      -4.425  -6.822  -2.977  0.00  0.00    -0.021 A 
ATOM     33  C   UNL     1      -5.436  -6.191  -2.054  0.00  0.00    +0.046 C 
ATOM     34  C   UNL     1      -1.873  -9.603  -2.897  0.00  0.00    +0.046 C 
ATOM     35  C   UNL     1      -1.570  -8.619  -5.597  0.00  0.00    +0.044 C 
ENDBRANCH  23  31
ENDBRANCH  21  23
ENDBRANCH  19  21
ENDBRANCH   1  19
TORSDOF 6
