REMARK  Name = ZINC13308003
REMARK  8 active torsions:
REMARK  status: ('A' for Active; 'I' for Inactive)
REMARK    1  A    between atoms: C_1  and  C_2
REMARK    2  A    between atoms: C_2  and  C_3
REMARK    3  A    between atoms: C_3  and  N_4
REMARK    4  A    between atoms: C_5  and  C_7
REMARK    5  A    between atoms: N_10  and  S_18
REMARK    6  A    between atoms: S_18  and  C_21
REMARK    7  A    between atoms: C_23  and  C_28
REMARK    8  A    between atoms: C_26  and  C_27
REMARK                            x       y       z     vdW  Elec       q    Type
REMARK                         _______ _______ _______ _____ _____    ______ ____
ROOT
ATOM      1  C   UNL     1      -1.226   5.873   0.471  0.00  0.00    +0.277 C 
ATOM      2  C   UNL     1      -2.438   5.267  -0.251  0.00  0.00    +0.186 C 
ATOM      3  N   UNL     1      -2.459   3.825   0.050  0.00  0.00    -0.195 N 
ATOM      4  C   UNL     1      -1.236   3.136   0.030  0.00  0.00    +0.093 A 
ATOM      5  C   UNL     1      -1.220   1.750   0.017  0.00  0.00    +0.028 A 
ATOM      6  C   UNL     1      -0.013   1.076   0.008  0.00  0.00    +0.002 A 
ATOM      7  C   UNL     1       1.176   1.783   0.000  0.00  0.00    +0.004 A 
ATOM      8  C   UNL     1       1.165   3.165   0.006  0.00  0.00    +0.047 A 
ATOM      9  C   UNL     1      -0.041   3.850   0.021  0.00  0.00    +0.144 A 
ATOM     10  O   UNL     1      -0.042   5.209   0.023  0.00  0.00    -0.476 OA
ENDROOT
BRANCH   1  12
ATOM     11  N   UNL     1      -2.094   8.187   0.576  0.00  0.00    -0.312 N 
ATOM     12  C   UNL     1      -1.132   7.343   0.153  0.00  0.00    +0.255 C 
ATOM     13  O   UNL     1      -0.191   7.767  -0.483  0.00  0.00    -0.272 OA
ATOM     14  H   UNL     1      -2.847   7.848   1.085  0.00  0.00    +0.149 HD
BRANCH  11  15
ATOM     15  C   UNL     1      -2.003   9.616   0.267  0.00  0.00    +0.104 C 
BRANCH  15  17
ATOM     16  C   UNL     1      -3.117  11.837   0.534  0.00  0.00    +0.005 C 
ATOM     17  C   UNL     1      -3.212  10.344   0.857  0.00  0.00    +0.015 C 
ENDBRANCH  15  17
ENDBRANCH  11  15
ENDBRANCH   1  12
BRANCH   3  18
ATOM     18  S   UNL     1      -3.877   3.044   0.399  0.00  0.00    +0.075 S 
ATOM     19  O   UNL     1      -3.531   1.893   1.158  0.00  0.00    -0.150 OA
ATOM     20  O   UNL     1      -4.777   4.032   0.880  0.00  0.00    -0.150 OA
BRANCH  18  21
ATOM     21  C   UNL     1      -4.539   2.460  -1.127  0.00  0.00    +0.112 A 
ATOM     22  C   UNL     1      -4.649   1.104  -1.355  0.00  0.00    +0.044 A 
ATOM     23  C   UNL     1      -5.175   0.644  -2.564  0.00  0.00    +0.065 A 
ATOM     24  C   UNL     1      -5.585   1.560  -3.534  0.00  0.00    +0.015 A 
ATOM     25  C   UNL     1      -5.469   2.913  -3.292  0.00  0.00    +0.006 A 
ATOM     26  C   UNL     1      -4.952   3.363  -2.090  0.00  0.00    -0.024 A 
ATOM     27  C   UNL     1      -4.834   4.843  -1.831  0.00  0.00    +0.046 C 
BRANCH  23  28
ATOM     28  C   UNL     1      -5.296  -0.807  -2.815  0.00  0.00    +0.387 C 
ATOM     29  O   UNL     1      -4.939  -1.602  -1.969  0.00  0.00    -0.241 OA
ATOM     30  O   UNL     1      -5.804  -1.248  -3.982  0.00  0.00    -0.241 OA
ENDBRANCH  23  28
ENDBRANCH  18  21
ENDBRANCH   3  18
TORSDOF 6
