REMARK  Name = ZINC15548816
REMARK  6 active torsions:
REMARK  status: ('A' for Active; 'I' for Inactive)
REMARK    1  A    between atoms: C_3  and  C_6
REMARK    2  A    between atoms: C_15  and  C_16
REMARK    3  A    between atoms: C_15  and  N_50
REMARK    4  A    between atoms: N_18  and  C_19
REMARK    5  A    between atoms: C_21  and  C_28
REMARK    6  A    between atoms: C_23  and  C_25
REMARK                            x       y       z     vdW  Elec       q    Type
REMARK                         _______ _______ _______ _____ _____    ______ ____
ROOT
ATOM      1  C   UNL     1      -0.024   1.516  -0.157  0.00  0.00    +0.201 C 
ATOM      2  O   UNL     1       0.999   2.149  -0.316  0.00  0.00    -0.278 OA
ATOM      3  N   UNL     1      -1.195   2.161   0.019  0.00  0.00    -0.287 N 
ATOM      4  H   UNL     1      -2.023   1.658   0.068  0.00  0.00    +0.155 HD
ENDROOT
BRANCH   3   5
ATOM      5  C   UNL     1      -1.215   3.556   0.133  0.00  0.00    +0.035 A 
ATOM      6  C   UNL     1      -0.159   4.216   0.742  0.00  0.00    +0.036 A 
ATOM      7  C   UNL     1      -0.174   5.608   0.852  0.00  0.00    +0.039 A 
ATOM      8  C   UNL     1      -1.256   6.332   0.358  0.00  0.00    +0.026 A 
ATOM      9  C   UNL     1      -2.319   5.665  -0.249  0.00  0.00    +0.039 A 
ATOM     10  C   UNL     1      -2.295   4.274  -0.360  0.00  0.00    +0.036 A 
BRANCH   9  11
ATOM     11  C   UNL     1      -3.470   6.430  -0.774  0.00  0.00    +0.242 C 
ATOM     12  O   UNL     1      -4.397   5.848  -1.302  0.00  0.00    -0.270 OA
ATOM     13  N   UNL     1      -3.492   7.774  -0.666  0.00  0.00    -0.325 N 
ATOM     14  H   UNL     1      -2.753   8.239  -0.244  0.00  0.00    +0.145 HD
ATOM     15  H   UNL     1      -4.247   8.275  -1.011  0.00  0.00    +0.145 HD
ENDBRANCH   9  11
BRANCH   7  16
ATOM     16  C   UNL     1       0.956   6.312   1.497  0.00  0.00    +0.242 C 
ATOM     17  O   UNL     1       1.900   5.679   1.927  0.00  0.00    -0.270 OA
ATOM     18  N   UNL     1       0.938   7.655   1.607  0.00  0.00    -0.325 N 
ATOM     19  H   UNL     1       0.184   8.160   1.264  0.00  0.00    +0.145 HD
ATOM     20  H   UNL     1       1.679   8.116   2.030  0.00  0.00    +0.145 HD
ENDBRANCH   7  16
ENDBRANCH   3   5
BRANCH   1  21
ATOM     21  C   UNL     1       0.013   0.010  -0.163  0.00  0.00    +0.020 C 
BRANCH  21  30
ATOM     22  C   UNL     1       1.921   0.058  -1.652  0.00  0.00    +0.002 C 
ATOM     23  C   UNL     1       3.360  -0.425  -1.809  0.00  0.00    -0.046 A 
ATOM     24  C   UNL     1       4.039  -0.461  -3.024  0.00  0.00    +0.010 A 
ATOM     25  C   UNL     1       5.316  -0.908  -3.073  0.00  0.00    +0.045 A 
ATOM     26  S   UNL     1       5.632  -1.310  -1.361  0.00  0.00    -0.101 S 
ATOM     27  C   UNL     1       4.048  -0.854  -0.714  0.00  0.00    -0.010 A 
ATOM     28  C   UNL     1       3.544  -0.910   0.691  0.00  0.00    +0.024 C 
ATOM     29  C   UNL     1       2.251  -0.079   0.758  0.00  0.00    -0.072 C 
ATOM     30  N   UNL     1       1.388  -0.481  -0.379  0.00  0.00    +0.393 N 
ATOM     31  H   UNL     1       1.371  -1.506  -0.435  0.00  0.00    -0.080 HD
BRANCH  22  34
ATOM     32  C   UNL     1      -0.096  -0.524  -4.831  0.00  0.00    +0.008 A 
ATOM     33  C   UNL     1       0.673   0.166  -3.914  0.00  0.00    +0.010 A 
ATOM     34  C   UNL     1       1.084  -0.470  -2.789  0.00  0.00    -0.019 A 
ATOM     35  S   UNL     1       0.383  -2.097  -3.009  0.00  0.00    -0.103 S 
ATOM     36  C   UNL     1      -0.417  -1.817  -4.580  0.00  0.00    +0.045 A 
ENDBRANCH  22  34
ENDBRANCH  21  30
ENDBRANCH   1  21
TORSDOF 6
