REMARK  Name = ZINC63361857
REMARK  5 active torsions:
REMARK  status: ('A' for Active; 'I' for Inactive)
REMARK    1  A    between atoms: C_1  and  C_2
REMARK    2  A    between atoms: N_18  and  C_21
REMARK    3  A    between atoms: C_24  and  C_27
REMARK    4  A    between atoms: N_29  and  C_30
REMARK    5  A    between atoms: C_30  and  C_31
REMARK                            x       y       z     vdW  Elec       q    Type
REMARK                         _______ _______ _______ _____ _____    ______ ____
ROOT
ATOM      1  C   UNL     1      -0.027   1.514  -0.022  0.00  0.00    +0.044 C 
ATOM      2  C   UNL     1       0.005  -0.015  -0.005  0.00  0.00    +0.137 C 
ATOM      3  C   UNL     1       0.738  -0.570  -1.226  0.00  0.00    +0.139 C 
ATOM      4  C   UNL     1       1.860  -1.461  -0.714  0.00  0.00    -0.034 C 
ATOM      5  C   UNL     1       1.673  -2.654  -1.274  0.00  0.00    -0.001 A 
ATOM      6  C   UNL     1       2.459  -3.896  -1.210  0.00  0.00    +0.010 A 
ATOM      7  C   UNL     1       1.965  -4.953  -1.908  0.00  0.00    +0.001 A 
ATOM      8  C   UNL     1       0.782  -4.897  -2.653  0.00  0.00    +0.002 A 
ATOM      9  C   UNL     1      -0.001  -3.796  -2.770  0.00  0.00    +0.026 A 
ATOM     10  C   UNL     1       0.418  -2.618  -2.084  0.00  0.00    +0.043 A 
ATOM     11  N   UNL     1      -0.130  -1.423  -2.041  0.00  0.00    -0.375 N 
ATOM     12  C   UNL     1       2.892  -1.012   0.291  0.00  0.00    +0.052 C 
ATOM     13  C   UNL     1       2.123  -0.401   1.480  0.00  0.00    +0.115 C 
ATOM     14  N   UNL     1       0.690  -0.527   1.200  0.00  0.00    -0.268 N 
ATOM     15  C   UNL     1      -0.245  -1.137   1.943  0.00  0.00    +0.316 C 
ATOM     16  O   UNL     1      -0.045  -1.573   3.060  0.00  0.00    -0.252 OA
ATOM     17  N   UNL     1      -1.425  -1.211   1.312  0.00  0.00    -0.192 N 
ATOM     18  C   UNL     1      -1.387  -0.596   0.112  0.00  0.00    +0.253 C 
ATOM     19  O   UNL     1      -2.282  -0.523  -0.703  0.00  0.00    -0.272 OA
ATOM     20  H   UNL     1      -0.959  -1.149  -2.464  0.00  0.00    +0.160 HD
ENDROOT
BRANCH  17  21
ATOM     21  C   UNL     1      -2.556  -1.846   1.834  0.00  0.00    +0.045 A 
ATOM     22  C   UNL     1      -3.770  -1.764   1.160  0.00  0.00    +0.025 A 
ATOM     23  C   UNL     1      -4.886  -2.389   1.671  0.00  0.00    +0.015 A 
ATOM     24  C   UNL     1      -4.797  -3.106   2.867  0.00  0.00    +0.037 A 
ATOM     25  C   UNL     1      -3.576  -3.186   3.541  0.00  0.00    +0.015 A 
ATOM     26  C   UNL     1      -2.463  -2.563   3.021  0.00  0.00    +0.025 A 
BRANCH  24  27
ATOM     27  C   UNL     1      -5.992  -3.776   3.417  0.00  0.00    +0.244 C 
ATOM     28  O   UNL     1      -7.054  -3.706   2.830  0.00  0.00    -0.270 OA
ATOM     29  N   UNL     1      -5.904  -4.467   4.571  0.00  0.00    -0.307 N 
ATOM     30  H   UNL     1      -5.057  -4.524   5.040  0.00  0.00    +0.149 HD
BRANCH  29  31
ATOM     31  C   UNL     1      -7.090  -5.133   5.118  0.00  0.00    +0.141 C 
BRANCH  31  32
ATOM     32  C   UNL     1      -6.726  -5.830   6.404  0.00  0.00    -0.012 A 
ATOM     33  C   UNL     1      -6.481  -7.190   6.408  0.00  0.00    +0.006 A 
ATOM     34  C   UNL     1      -6.148  -7.829   7.587  0.00  0.00    +0.000 A 
ATOM     35  C   UNL     1      -6.060  -7.108   8.764  0.00  0.00    +0.001 A 
ATOM     36  C   UNL     1      -6.305  -5.748   8.761  0.00  0.00    +0.020 A 
ATOM     37  C   UNL     1      -6.633  -5.107   7.580  0.00  0.00    +0.046 A 
ATOM     38 CL   UNL     1      -6.934  -3.397   7.574  0.00  0.00    -0.083 Cl
ENDBRANCH  31  32
ENDBRANCH  29  31
ENDBRANCH  24  27
ENDBRANCH  17  21
TORSDOF 4
