REMARK  Name = ZINC09382067
REMARK  6 active torsions:
REMARK  status: ('A' for Active; 'I' for Inactive)
REMARK    1  A    between atoms: C_6  and  N_7
REMARK    2  A    between atoms: C_8  and  C_21
REMARK    3  A    between atoms: C_11  and  S_12
REMARK    4  A    between atoms: S_12  and  C_13
REMARK    5  A    between atoms: C_13  and  C_14
REMARK    6  A    between atoms: C_21  and  C_22
REMARK                            x       y       z     vdW  Elec       q    Type
REMARK                         _______ _______ _______ _____ _____    ______ ____
ROOT
ATOM      1  N   UNL     1       5.997   6.629  -0.081  0.00  0.00    -0.274 N 
ATOM      2  C   UNL     1       7.300   6.207  -0.076  0.00  0.00    +0.144 A 
ATOM      3  N   UNL     1       7.286   4.904  -0.060  0.00  0.00    -0.133 NA
ATOM      4  N   UNL     1       6.074   4.475  -0.049  0.00  0.00    -0.122 NA
ATOM      5  C   UNL     1       5.240   5.489  -0.059  0.00  0.00    +0.197 A 
ENDROOT
BRANCH   1  11
ATOM      6  C   UNL     1       5.784   8.759  -1.204  0.00  0.00    +0.028 A 
ATOM      7  C   UNL     1       5.324  10.061  -1.225  0.00  0.00    +0.022 A 
ATOM      8  C   UNL     1       4.622  10.565  -0.144  0.00  0.00    +0.041 A 
ATOM      9  C   UNL     1       4.375   9.765   0.957  0.00  0.00    +0.022 A 
ATOM     10  C   UNL     1       4.830   8.461   0.981  0.00  0.00    +0.028 A 
ATOM     11  C   UNL     1       5.534   7.953  -0.102  0.00  0.00    +0.050 A 
ATOM     12 CL   UNL     1       4.049  12.204  -0.170  0.00  0.00    -0.084 Cl
ENDBRANCH   1  11
BRANCH   5  13
ATOM     13  S   UNL     1       3.481   5.399  -0.051  0.00  0.00    -0.076 S 
BRANCH  13  14
ATOM     14  C   UNL     1       3.258   3.603  -0.028  0.00  0.00    +0.173 C 
BRANCH  14  15
ATOM     15  C   UNL     1       1.786   3.279  -0.018  0.00  0.00    +0.226 C 
ATOM     16  O   UNL     1       0.968   4.175  -0.026  0.00  0.00    -0.275 OA
ATOM     17  N   UNL     1       1.379   1.995  -0.000  0.00  0.00    -0.301 N 
ATOM     18  C   UNL     1      -0.019   1.539   0.011  0.00  0.00    +0.108 C 
ATOM     19  C   UNL     1       0.002  -0.004   0.002  0.00  0.00    +0.020 C 
ATOM     20  C   UNL     1       1.401  -0.329  -0.584  0.00  0.00    +0.020 C 
ATOM     21  C   UNL     1       2.261   0.814   0.011  0.00  0.00    +0.108 C 
ENDBRANCH  14  15
ENDBRANCH  13  14
ENDBRANCH   5  13
BRANCH   2  22
ATOM     22  C   UNL     1       8.523   7.087  -0.092  0.00  0.00    +0.130 C 
BRANCH  22  23
ATOM     23  C   UNL     1       8.925   7.362  -1.518  0.00  0.00    +0.033 A 
ATOM     24  C   UNL     1       8.505   8.487  -2.136  0.00  0.00    +0.091 A 
ATOM     25  C   UNL     1       8.896   8.723  -3.476  0.00  0.00    +0.254 A 
ATOM     26  O   UNL     1       8.530   9.730  -4.055  0.00  0.00    -0.268 OA
ATOM     27  N   UNL     1       9.677   7.823  -4.106  0.00  0.00    -0.275 N 
ATOM     28  H   UNL     1       9.958   7.983  -5.053  0.00  0.00    +0.173 HD
ATOM     29  C   UNL     1      10.082   6.710  -3.466  0.00  0.00    +0.327 A 
ATOM     30  O   UNL     1      10.787   5.907  -4.047  0.00  0.00    -0.247 OA
ATOM     31  N   UNL     1       9.722   6.477  -2.191  0.00  0.00    -0.311 N 
ATOM     32  H   UNL     1      10.040   5.648  -1.730  0.00  0.00    +0.170 HD
ENDBRANCH  22  23
ENDBRANCH   2  22
TORSDOF 6
