REMARK  Name = ZINC37357944
REMARK  9 active torsions:
REMARK  status: ('A' for Active; 'I' for Inactive)
REMARK    1  A    between atoms: C_1  and  C_2
REMARK    2  A    between atoms: C_2  and  C_3
REMARK    3  A    between atoms: C_2  and  C_4
REMARK    4  A    between atoms: C_4  and  N_5
REMARK    5  A    between atoms: C_8  and  C_24
REMARK    6  A    between atoms: C_10  and  N_23
REMARK    7  A    between atoms: N_11  and  C_15
REMARK    8  A    between atoms: C_18  and  O_21
REMARK    9  A    between atoms: O_21  and  C_22
REMARK                            x       y       z     vdW  Elec       q    Type
REMARK                         _______ _______ _______ _____ _____    ______ ____
ROOT
ATOM      1  N   UNL     1      -1.547  -1.905  -0.923  0.00  0.00    -0.313 N 
ATOM      2  C   UNL     1      -2.674  -2.647  -0.619  0.00  0.00    +0.218 A 
ATOM      3  N   UNL     1      -2.618  -3.967  -0.773  0.00  0.00    -0.214 NA
ATOM      4  C   UNL     1      -3.653  -4.753  -0.505  0.00  0.00    +0.089 A 
ATOM      5  C   UNL     1      -4.846  -4.155  -0.042  0.00  0.00    +0.086 A 
ATOM      6  C   UNL     1      -6.105  -4.607   0.336  0.00  0.00    +0.131 A 
ATOM      7  N   UNL     1      -6.832  -3.530   0.691  0.00  0.00    -0.216 N 
ATOM      8  N   UNL     1      -6.064  -2.369   0.551  0.00  0.00    -0.144 NA
ATOM      9  C   UNL     1      -4.865  -2.689   0.114  0.00  0.00    +0.189 A 
ATOM     10  N   UNL     1      -3.743  -2.009  -0.189  0.00  0.00    -0.193 NA
ATOM     11  H   UNL     1      -0.746  -2.349  -1.243  0.00  0.00    +0.149 HD
ENDROOT
BRANCH   4  12
ATOM     12  C   UNL     1      -3.559  -6.219  -0.687  0.00  0.00    +0.001 A 
ATOM     13  C   UNL     1      -4.580  -6.910  -1.341  0.00  0.00    +0.011 A 
ATOM     14  C   UNL     1      -4.488  -8.276  -1.508  0.00  0.00    +0.020 A 
ATOM     15  C   UNL     1      -3.385  -8.962  -1.027  0.00  0.00    +0.041 A 
ATOM     16  C   UNL     1      -2.369  -8.281  -0.377  0.00  0.00    +0.020 A 
ATOM     17  C   UNL     1      -2.448  -6.915  -0.209  0.00  0.00    +0.011 A 
ATOM     18 CL   UNL     1      -3.276 -10.681  -1.240  0.00  0.00    -0.084 Cl
ENDBRANCH   4  12
BRANCH   7  19
ATOM     19  C   UNL     1      -8.161  -3.567   1.134  0.00  0.00    +0.068 A 
ATOM     20  C   UNL     1      -9.043  -4.503   0.609  0.00  0.00    +0.031 A 
ATOM     21  C   UNL     1     -10.351  -4.539   1.047  0.00  0.00    +0.048 A 
ATOM     22  C   UNL     1     -10.786  -3.641   2.011  0.00  0.00    +0.120 A 
ATOM     23  C   UNL     1      -9.906  -2.706   2.536  0.00  0.00    +0.048 A 
ATOM     24  C   UNL     1      -8.595  -2.672   2.103  0.00  0.00    +0.031 A 
BRANCH  22  25
ATOM     25  O   UNL     1     -12.075  -3.677   2.442  0.00  0.00    -0.495 OA
ATOM     26  C   UNL     1     -12.454  -2.724   3.436  0.00  0.00    +0.277 C 
ENDBRANCH  22  25
ENDBRANCH   7  19
BRANCH   6  27
ATOM     27  N   UNL     1      -6.532  -5.921   0.345  0.00  0.00    -0.342 N 
ATOM     28  H   UNL     1      -5.894  -6.640   0.219  0.00  0.00    +0.144 HD
ATOM     29  H   UNL     1      -7.471  -6.125   0.478  0.00  0.00    +0.144 HD
ENDBRANCH   6  27
BRANCH   1  30
ATOM     30  C   UNL     1      -1.563  -0.449  -0.763  0.00  0.00    +0.107 C 
BRANCH  30  32
ATOM     31  C   UNL     1      -0.258   1.652  -1.116  0.00  0.00    +0.009 C 
ATOM     32  C   UNL     1      -0.203   0.124  -1.164  0.00  0.00    -0.000 C 
ATOM     33  C   UNL     1       0.868  -0.378  -0.193  0.00  0.00    +0.009 C 
ENDBRANCH  30  32
ENDBRANCH   1  30
TORSDOF 6
