REMARK  Name = ZINC10233675
REMARK  8 active torsions:
REMARK  status: ('A' for Active; 'I' for Inactive)
REMARK    1  A    between atoms: C_1  and  C_2
REMARK    2  A    between atoms: C_6  and  C_8
REMARK    3  A    between atoms: C_8  and  N_9
REMARK    4  A    between atoms: C_17  and  C_28
REMARK    5  A    between atoms: C_18  and  C_27
REMARK    6  A    between atoms: N_19  and  C_20
REMARK    7  A    between atoms: C_25  and  N_26
REMARK    8  A    between atoms: N_29  and  C_32
REMARK                            x       y       z     vdW  Elec       q    Type
REMARK                         _______ _______ _______ _____ _____    ______ ____
ROOT
ATOM      1  N   UNL     1      -1.726  -1.018  -1.367  0.00  0.00    -0.255 N 
ATOM      2  C   UNL     1      -1.321  -2.136  -2.003  0.00  0.00    +0.283 A 
ATOM      3  O   UNL     1      -0.601  -2.940  -1.436  0.00  0.00    -0.265 OA
ATOM      4  C   UNL     1      -1.738  -2.366  -3.325  0.00  0.00    +0.157 A 
ATOM      5  C   UNL     1      -2.562  -1.431  -3.950  0.00  0.00    +0.170 A 
ATOM      6  N   UNL     1      -2.812  -1.875  -5.179  0.00  0.00    -0.193 NA
ATOM      7  C   UNL     1      -2.199  -3.033  -5.376  0.00  0.00    +0.223 A 
ATOM      8  N   UNL     1      -1.520  -3.376  -4.250  0.00  0.00    -0.274 N 
ATOM      9  C   UNL     1      -0.890  -4.586  -4.480  0.00  0.00    +0.044 A 
ATOM     10  C   UNL     1      -1.174  -4.978  -5.718  0.00  0.00    +0.043 A 
ATOM     11  N   UNL     1      -1.990  -4.025  -6.299  0.00  0.00    -0.281 N 
ATOM     12  C   UNL     1      -0.688  -6.244  -6.376  0.00  0.00    +0.066 C 
ATOM     13  C   UNL     1      -0.028  -5.332  -3.494  0.00  0.00    +0.066 C 
ATOM     14  N   UNL     1      -2.945  -0.301  -3.243  0.00  0.00    -0.279 N 
ATOM     15  C   UNL     1      -2.525  -0.124  -1.976  0.00  0.00    +0.334 A 
ATOM     16  O   UNL     1      -2.873   0.870  -1.369  0.00  0.00    -0.246 OA
ATOM     17  C   UNL     1      -3.811   0.699  -3.874  0.00  0.00    +0.155 C 
ENDROOT
BRANCH  11  18
ATOM     18  C   UNL     1      -2.511  -4.066  -7.601  0.00  0.00    +0.070 A 
ATOM     19  C   UNL     1      -1.802  -3.506  -8.652  0.00  0.00    +0.028 A 
ATOM     20  C   UNL     1      -2.317  -3.548  -9.934  0.00  0.00    +0.002 A 
ATOM     21  C   UNL     1      -3.540  -4.148 -10.173  0.00  0.00    +0.002 A 
ATOM     22  C   UNL     1      -4.254  -4.709  -9.131  0.00  0.00    +0.025 A 
ATOM     23  C   UNL     1      -3.742  -4.676  -7.842  0.00  0.00    +0.049 A 
BRANCH  23  24
ATOM     24  N   UNL     1      -4.460  -5.249  -6.787  0.00  0.00    -0.356 N 
ATOM     25  H   UNL     1      -4.102  -5.222  -5.886  0.00  0.00    +0.142 HD
ATOM     26  H   UNL     1      -5.316  -5.673  -6.957  0.00  0.00    +0.142 HD
ENDBRANCH  23  24
ENDBRANCH  11  18
BRANCH   1  27
ATOM     27  C   UNL     1      -1.293  -0.775   0.011  0.00  0.00    +0.165 C 
BRANCH  27  33
ATOM     28  C   UNL     1       1.150   3.592   0.010  0.00  0.00    +0.044 C 
ATOM     29  C   UNL     1       1.171   2.086   0.002  0.00  0.00    -0.050 A 
ATOM     30  C   UNL     1       2.377   1.411  -0.015  0.00  0.00    +0.003 A 
ATOM     31  C   UNL     1       2.396   0.029  -0.021  0.00  0.00    +0.001 A 
ATOM     32  C   UNL     1       1.208  -0.679  -0.013  0.00  0.00    +0.005 A 
ATOM     33  C   UNL     1       0.002  -0.004   0.002  0.00  0.00    -0.027 A 
ATOM     34  C   UNL     1      -0.017   1.378   0.010  0.00  0.00    +0.008 A 
ENDBRANCH  27  33
ENDBRANCH   1  27
TORSDOF 4
