REMARK  Name = ZINC17641193
REMARK  11 active torsions:
REMARK  status: ('A' for Active; 'I' for Inactive)
REMARK    1  A    between atoms: C_1  and  C_2
REMARK    2  A    between atoms: C_4  and  C_8
REMARK    3  A    between atoms: C_5  and  C_7
REMARK    4  A    between atoms: N_10  and  N_11
REMARK    5  A    between atoms: C_12  and  C_14
REMARK    6  A    between atoms: C_14  and  C_16
REMARK    7  A    between atoms: C_14  and  S_17
REMARK    8  A    between atoms: S_17  and  C_18
REMARK    9  A    between atoms: C_18  and  C_19
REMARK   10  A    between atoms: C_25  and  C_31
REMARK   11  A    between atoms: C_26  and  C_30
REMARK                            x       y       z     vdW  Elec       q    Type
REMARK                         _______ _______ _______ _____ _____    ______ ____
ROOT
ATOM      1  C   UNL     1       0.002  -0.004   0.002  0.00  0.00    +0.131 C 
ATOM      2  C   UNL     1      -0.019   1.526   0.010  0.00  0.00    +0.029 C 
ENDROOT
BRANCH   1   4
ATOM      3  N   UNL     1      -2.090  -0.657  -1.144  0.00  0.00    -0.233 N 
ATOM      4  C   UNL     1      -1.412  -0.526   0.013  0.00  0.00    +0.242 C 
ATOM      5  O   UNL     1      -1.939  -0.827   1.062  0.00  0.00    -0.273 OA
ATOM      6  H   UNL     1      -1.669  -0.416  -1.984  0.00  0.00    +0.173 HD
BRANCH   3   9
ATOM      7  C   UNL     1      -4.083  -1.274  -2.291  0.00  0.00    +0.263 C 
ATOM      8  O   UNL     1      -3.554  -0.972  -3.344  0.00  0.00    -0.269 OA
ATOM      9  N   UNL     1      -3.405  -1.142  -1.134  0.00  0.00    -0.230 N 
ATOM     10  H   UNL     1      -3.826  -1.383  -0.295  0.00  0.00    +0.173 HD
BRANCH   7  14
ATOM     11  C   UNL     1      -8.594  -3.093  -0.751  0.00  0.00    +0.086 C 
ATOM     12  C   UNL     1      -7.445  -2.585  -1.584  0.00  0.00    +0.103 A 
ATOM     13  C   UNL     1      -6.251  -2.200  -1.109  0.00  0.00    +0.057 A 
ATOM     14  C   UNL     1      -5.466  -1.784  -2.281  0.00  0.00    +0.079 A 
ATOM     15  C   UNL     1      -6.282  -1.975  -3.357  0.00  0.00    +0.114 A 
ATOM     16  O   UNL     1      -7.452  -2.450  -2.919  0.00  0.00    -0.464 OA
ATOM     17  C   UNL     1      -5.927  -1.695  -4.794  0.00  0.00    +0.087 C 
ENDBRANCH   7  14
ENDBRANCH   3   9
ENDBRANCH   1   4
BRANCH   1  18
ATOM     18  S   UNL     1       0.879  -0.605   1.472  0.00  0.00    -0.141 S 
BRANCH  18  19
ATOM     19  C   UNL     1       2.582  -0.025   1.234  0.00  0.00    +0.144 C 
BRANCH  19  20
ATOM     20  C   UNL     1       3.429  -0.463   2.401  0.00  0.00    +0.121 A 
ATOM     21  N   UNL     1       4.747  -0.140   2.426  0.00  0.00    -0.310 N 
ATOM     22  H   UNL     1       5.126   0.369   1.692  0.00  0.00    +0.170 HD
ATOM     23  C   UNL     1       5.538  -0.505   3.452  0.00  0.00    +0.260 A 
ATOM     24  O   UNL     1       6.719  -0.202   3.462  0.00  0.00    -0.267 OA
ATOM     25  C   UNL     1       4.972  -1.262   4.529  0.00  0.00    +0.075 A 
ATOM     26  C   UNL     1       5.608  -1.774   5.729  0.00  0.00    -0.026 A 
ATOM     27  C   UNL     1       4.874  -2.466   6.615  0.00  0.00    -0.008 A 
ATOM     28  S   UNL     1       3.248  -2.479   5.884  0.00  0.00    -0.073 S 
ATOM     29  C   UNL     1       3.601  -1.554   4.412  0.00  0.00    +0.116 A 
ATOM     30  N   UNL     1       2.883  -1.152   3.367  0.00  0.00    -0.226 NA
ATOM     31  C   UNL     1       5.319  -3.085   7.915  0.00  0.00    +0.052 C 
ATOM     32  C   UNL     1       7.074  -1.531   5.977  0.00  0.00    +0.045 C 
ENDBRANCH  19  20
ENDBRANCH  18  19
ENDBRANCH   1  18
TORSDOF 6
