REMARK  Name = ZINC02259592
REMARK  8 active torsions:
REMARK  status: ('A' for Active; 'I' for Inactive)
REMARK    1  A    between atoms: C_1  and  C_2
REMARK    2  A    between atoms: C_2  and  C_28
REMARK    3  A    between atoms: C_6  and  N_21
REMARK    4  A    between atoms: C_12  and  N_16
REMARK    5  A    between atoms: N_16  and  C_17
REMARK    6  A    between atoms: C_17  and  C_18
REMARK    7  A    between atoms: C_18  and  C_19
REMARK    8  A    between atoms: C_19  and  O_20
REMARK                            x       y       z     vdW  Elec       q    Type
REMARK                         _______ _______ _______ _____ _____    ______ ____
ROOT
ATOM      1  C   UNL     1      -8.118   2.659  -1.845  0.00  0.00    +0.041 C 
ATOM      2  C   UNL     1      -7.945   2.942  -0.351  0.00  0.00    +0.068 C 
ATOM      3  C   UNL     1      -6.491   2.692   0.056  0.00  0.00    +0.070 C 
ATOM      4  C   UNL     1      -6.206   1.214   0.035  0.00  0.00    -0.024 A 
ATOM      5  C   UNL     1      -7.202   0.288   0.030  0.00  0.00    +0.020 A 
ATOM      6  C   UNL     1      -6.886  -1.074   0.024  0.00  0.00    +0.105 A 
ATOM      7  C   UNL     1      -4.635  -0.600   0.021  0.00  0.00    +0.089 A 
ATOM      8  C   UNL     1      -4.855   0.788   0.028  0.00  0.00    +0.035 A 
ATOM      9  C   UNL     1      -3.647   1.633   0.028  0.00  0.00    +0.093 A 
ATOM     10  C   UNL     1      -2.424   0.951   0.019  0.00  0.00    +0.080 A 
ATOM     11  S   UNL     1      -2.867  -0.765   0.013  0.00  0.00    -0.066 S 
ATOM     12  C   UNL     1      -1.221   1.643   0.017  0.00  0.00    +0.136 A 
ATOM     13  N   UNL     1      -1.259   2.975   0.030  0.00  0.00    -0.220 NA
ATOM     14  C   UNL     1      -2.420   3.603   0.034  0.00  0.00    +0.224 A 
ATOM     15  N   UNL     1      -3.574   2.983   0.035  0.00  0.00    -0.234 NA
ATOM     16  C   UNL     1      -8.654   0.694   0.026  0.00  0.00    +0.199 C 
ATOM     17  O   UNL     1      -8.785   2.063   0.407  0.00  0.00    -0.369 OA
ATOM     18  C   UNL     1      -8.320   4.396  -0.055  0.00  0.00    +0.041 C 
ATOM     19  N   UNL     1      -5.607  -1.545   0.021  0.00  0.00    -0.337 N 
ATOM     20  H   UNL     1      -5.394  -2.549   0.018  0.00  0.00    +0.168 HD
ENDROOT
BRANCH   6  21
ATOM     21  N   UNL     1      -7.905  -2.018   0.021  0.00  0.00    -0.316 N 
ATOM     22  C   UNL     1      -8.730  -1.907  -1.208  0.00  0.00    +0.106 C 
ATOM     23  C   UNL     1      -9.422  -3.290  -1.297  0.00  0.00    +0.020 C 
ATOM     24  C   UNL     1      -8.319  -4.260  -0.814  0.00  0.00    +0.020 C 
ATOM     25  C   UNL     1      -7.355  -3.391   0.015  0.00  0.00    +0.106 C 
ENDBRANCH   6  21
BRANCH  12  26
ATOM     26  N   UNL     1      -0.011   0.966   0.007  0.00  0.00    -0.328 N 
ATOM     27  H   UNL     1       0.002  -0.004   0.002  0.00  0.00    +0.147 HD
BRANCH  26  28
ATOM     28  C   UNL     1       1.248   1.716  -0.001  0.00  0.00    +0.105 C 
BRANCH  28  29
ATOM     29  C   UNL     1       2.424   0.737  -0.017  0.00  0.00    +0.046 C 
BRANCH  29  30
ATOM     30  C   UNL     1       3.738   1.520  -0.025  0.00  0.00    +0.157 C 
BRANCH  30  31
ATOM     31  O   UNL     1       4.837   0.607  -0.041  0.00  0.00    -0.395 OA
ATOM     32  H   UNL     1       5.704   1.034  -0.047  0.00  0.00    +0.209 HD
ENDBRANCH  30  31
ENDBRANCH  29  30
ENDBRANCH  28  29
ENDBRANCH  26  28
ENDBRANCH  12  26
TORSDOF 6
