REMARK  Name = ZINC50814992
REMARK  5 active torsions:
REMARK  status: ('A' for Active; 'I' for Inactive)
REMARK    1  A    between atoms: C_1  and  C_2
REMARK    2  A    between atoms: N_11  and  C_12
REMARK    3  A    between atoms: C_12  and  C_13
REMARK    4  A    between atoms: C_15  and  N_20
REMARK    5  A    between atoms: C_18  and  N_19
REMARK                            x       y       z     vdW  Elec       q    Type
REMARK                         _______ _______ _______ _____ _____    ______ ____
ROOT
ATOM      1  C   UNL     1       2.675  -0.226   2.591  0.00  0.00    -0.011 A 
ATOM      2  C   UNL     1       3.643  -1.189   2.804  0.00  0.00    +0.039 A 
ATOM      3  C   UNL     1       4.173  -1.370   4.068  0.00  0.00    +0.127 A 
ATOM      4  C   UNL     1       3.737  -0.589   5.123  0.00  0.00    +0.034 A 
ATOM      5  C   UNL     1       2.770   0.374   4.917  0.00  0.00    +0.025 A 
ATOM      6  C   UNL     1       2.239   0.563   3.647  0.00  0.00    +0.029 A 
ENDROOT
BRANCH   6   7
ATOM      7  N   UNL     1       1.265   1.541   3.434  0.00  0.00    -0.358 N 
ATOM      8  H   UNL     1       0.892   1.670   2.547  0.00  0.00    +0.142 HD
ATOM      9  H   UNL     1       0.961   2.092   4.172  0.00  0.00    +0.142 HD
ENDBRANCH   6   7
BRANCH   3  10
ATOM     10  N   UNL     1       5.209  -2.403   4.293  0.00  0.00    +0.056 N 
ATOM     11  O   UNL     1       5.591  -3.087   3.372  0.00  0.00    -0.126 OA
ATOM     12  O   UNL     1       5.674  -2.563   5.398  0.00  0.00    -0.126 OA
ENDBRANCH   3  10
BRANCH   1  13
ATOM     13  C   UNL     1       2.098  -0.029   1.213  0.00  0.00    +0.122 C 
BRANCH  13  23
ATOM     14  C   UNL     1      -0.098   1.382  -0.024  0.00  0.00    +0.029 C 
ATOM     15  C   UNL     1       0.029  -0.142  -0.038  0.00  0.00    +0.085 C 
ATOM     16  C   UNL     1      -1.361  -0.772  -0.048  0.00  0.00    -0.020 A 
ATOM     17  C   UNL     1      -2.422  -0.299  -0.817  0.00  0.00    +0.013 A 
ATOM     18  C   UNL     1      -3.625  -0.917  -0.764  0.00  0.00    +0.046 A 
ATOM     19  S   UNL     1      -3.312  -2.233   0.404  0.00  0.00    -0.101 S 
ATOM     20  C   UNL     1      -1.612  -1.862   0.730  0.00  0.00    -0.004 A 
ATOM     21  C   UNL     1      -0.645  -2.554   1.634  0.00  0.00    +0.058 C 
ATOM     22  C   UNL     1       0.767  -2.055   1.280  0.00  0.00    +0.090 C 
ATOM     23  N   UNL     1       0.741  -0.589   1.166  0.00  0.00    -0.291 NA
ENDBRANCH  13  23
ENDBRANCH   1  13
TORSDOF 4
