REMARK  Name = ZINC55494477
REMARK  4 active torsions:
REMARK  status: ('A' for Active; 'I' for Inactive)
REMARK    1  A    between atoms: C_1  and  C_2
REMARK    2  A    between atoms: C_2  and  C_3
REMARK    3  A    between atoms: C_16  and  C_18
REMARK    4  A    between atoms: C_18  and  C_19
REMARK                            x       y       z     vdW  Elec       q    Type
REMARK                         _______ _______ _______ _____ _____    ______ ____
ROOT
ATOM      1  C   UNL     1      -1.433  -0.534   0.013  0.00  0.00    -0.006 C 
ATOM      2  C   UNL     1      -1.417  -2.061   0.122  0.00  0.00    +0.008 C 
ATOM      3  C   UNL     1      -2.831  -2.578   0.383  0.00  0.00    +0.037 C 
ATOM      4  C   UNL     1      -3.769  -2.009  -0.678  0.00  0.00    -0.023 A 
ATOM      5  C   UNL     1      -3.412  -0.920  -1.399  0.00  0.00    -0.004 A 
ATOM      6  S   UNL     1      -4.778  -0.617  -2.491  0.00  0.00    -0.073 S 
ATOM      7  C   UNL     1      -5.822  -1.946  -1.981  0.00  0.00    +0.116 A 
ATOM      8  C   UNL     1      -5.069  -2.586  -0.971  0.00  0.00    +0.075 A 
ATOM      9  C   UNL     1      -5.662  -3.733  -0.344  0.00  0.00    +0.260 A 
ATOM     10  O   UNL     1      -5.096  -4.356   0.537  0.00  0.00    -0.267 OA
ATOM     11  N   UNL     1      -6.891  -4.079  -0.795  0.00  0.00    -0.310 N 
ATOM     12  H   UNL     1      -7.330  -4.848  -0.399  0.00  0.00    +0.170 HD
ATOM     13  C   UNL     1      -7.538  -3.400  -1.773  0.00  0.00    +0.118 A 
ATOM     14  N   UNL     1      -7.028  -2.345  -2.371  0.00  0.00    -0.226 NA
ATOM     15  C   UNL     1      -2.138  -0.139  -1.293  0.00  0.00    +0.046 C 
ENDROOT
BRANCH   1  17
ATOM     16  C   UNL     1      -0.019   1.526   0.010  0.00  0.00    +0.004 C 
ATOM     17  C   UNL     1       0.002  -0.004   0.002  0.00  0.00    +0.000 C 
ENDBRANCH   1  17
BRANCH  13  18
ATOM     18  C   UNL     1      -8.904  -3.875  -2.196  0.00  0.00    +0.150 C 
BRANCH  18  19
ATOM     19  C   UNL     1      -9.432  -2.980  -3.288  0.00  0.00    +0.141 A 
ATOM     20  N   UNL     1     -10.139  -1.893  -3.126  0.00  0.00    -0.134 NA
ATOM     21  N   UNL     1     -10.411  -1.377  -4.274  0.00  0.00    -0.134 NA
ATOM     22  C   UNL     1      -9.886  -2.109  -5.215  0.00  0.00    +0.133 A 
ATOM     23  N   UNL     1      -9.258  -3.148  -4.617  0.00  0.00    -0.314 N 
ATOM     24  C   UNL     1      -8.549  -4.240  -5.286  0.00  0.00    +0.125 C 
ATOM     25  C   UNL     1      -8.002  -3.744  -6.627  0.00  0.00    +0.022 C 
ATOM     26  C   UNL     1      -9.047  -3.957  -7.721  0.00  0.00    +0.002 C 
ATOM     27  C   UNL     1     -10.312  -3.161  -7.413  0.00  0.00    +0.008 C 
ATOM     28  C   UNL     1      -9.944  -1.862  -6.701  0.00  0.00    +0.076 C 
ENDBRANCH  18  19
ENDBRANCH  13  18
TORSDOF 3
