REMARK  Name = ZINC12408327
REMARK  6 active torsions:
REMARK  status: ('A' for Active; 'I' for Inactive)
REMARK    1  A    between atoms: C_1  and  C_2
REMARK    2  A    between atoms: C_8  and  C_12
REMARK    3  A    between atoms: C_12  and  C_13
REMARK    4  A    between atoms: C_13  and  N_14
REMARK    5  A    between atoms: C_15  and  C_34
REMARK    6  A    between atoms: C_23  and  O_24
REMARK                            x       y       z     vdW  Elec       q    Type
REMARK                         _______ _______ _______ _____ _____    ______ ____
ROOT
ATOM      1  N   UNL     1       4.446   0.916   1.401  0.00  0.00    -0.315 N 
ATOM      2  C   UNL     1       5.413   1.844   1.293  0.00  0.00    +0.033 A 
ATOM      3  C   UNL     1       6.734   1.475   1.274  0.00  0.00    +0.088 A 
ATOM      4  C   UNL     1       8.015   2.167   1.175  0.00  0.00    +0.285 A 
ATOM      5  O   UNL     1       8.192   3.370   1.074  0.00  0.00    -0.265 OA
ATOM      6  N   UNL     1       8.965   1.208   1.216  0.00  0.00    -0.171 N 
ATOM      7  N   UNL     1       8.379  -0.054   1.335  0.00  0.00    -0.161 NA
ATOM      8  C   UNL     1       7.075   0.037   1.375  0.00  0.00    +0.104 A 
ATOM      9  C   UNL     1       5.966  -0.911   1.489  0.00  0.00    +0.095 A 
ATOM     10  C   UNL     1       4.703  -0.422   1.501  0.00  0.00    +0.195 A 
ATOM     11  C   UNL     1      10.330   1.444   1.149  0.00  0.00    +0.198 A 
ATOM     12  N   UNL     1      11.317   0.579   1.181  0.00  0.00    -0.221 NA
ATOM     13  C   UNL     1      12.612   0.953   1.105  0.00  0.00    +0.081 A 
ATOM     14  C   UNL     1      13.762   0.130   1.127  0.00  0.00    +0.029 A 
ATOM     15  C   UNL     1      15.016   0.675   1.040  0.00  0.00    +0.002 A 
ATOM     16  C   UNL     1      15.204   2.046   0.926  0.00  0.00    +0.001 A 
ATOM     17  C   UNL     1      14.102   2.881   0.900  0.00  0.00    +0.017 A 
ATOM     18  C   UNL     1      12.842   2.343   0.988  0.00  0.00    +0.041 A 
ATOM     19  S   UNL     1      11.192   3.001   0.989  0.00  0.00    -0.048 S 
ATOM     20  C   UNL     1       5.042   3.302   1.192  0.00  0.00    +0.064 C 
ENDROOT
BRANCH  10  21
ATOM     21  O   UNL     1       3.665  -1.285   1.612  0.00  0.00    -0.493 OA
ATOM     22  H   UNL     1       3.330  -1.609   0.764  0.00  0.00    +0.294 HD
ENDBRANCH  10  21
BRANCH   1  23
ATOM     23  C   UNL     1       3.050   1.361   1.417  0.00  0.00    +0.129 C 
BRANCH  23  24
ATOM     24  C   UNL     1       2.512   1.404  -0.015  0.00  0.00    +0.059 C 
BRANCH  24  32
ATOM     25  C   UNL     1       1.183   6.976   0.026  0.00  0.00    +0.044 C 
ATOM     26  C   UNL     1       0.495   5.635   0.026  0.00  0.00    -0.050 A 
ATOM     27  C   UNL     1      -0.892   5.573   0.039  0.00  0.00    +0.005 A 
ATOM     28  C   UNL     1      -1.541   4.358   0.040  0.00  0.00    +0.026 A 
ATOM     29  C   UNL     1      -0.801   3.180   0.027  0.00  0.00    +0.047 A 
ATOM     30  C   UNL     1       0.604   3.248   0.014  0.00  0.00    +0.003 A 
ATOM     31  C   UNL     1       1.241   4.490   0.014  0.00  0.00    +0.013 A 
ATOM     32  C   UNL     1       1.076   1.861   0.002  0.00  0.00    -0.021 A 
ATOM     33  C   UNL     1      -0.013   1.076   0.008  0.00  0.00    +0.087 A 
ATOM     34  N   UNL     1      -1.143   1.846   0.017  0.00  0.00    -0.360 N 
ATOM     35  H   UNL     1      -2.051   1.504   0.019  0.00  0.00    +0.165 HD
ENDBRANCH  24  32
ENDBRANCH  23  24
ENDBRANCH   1  23
TORSDOF 4
