REMARK  Name = ZINC39469672
REMARK  7 active torsions:
REMARK  status: ('A' for Active; 'I' for Inactive)
REMARK    1  A    between atoms: C_1  and  S_2
REMARK    2  A    between atoms: S_2  and  C_3
REMARK    3  A    between atoms: P_12  and  S_28
REMARK    4  A    between atoms: C_20  and  C_21
REMARK    5  A    between atoms: C_26  and  O_27
REMARK    6  A    between atoms: S_28  and  O_31
REMARK    7  A    between atoms: O_31  and  C_32
REMARK                            x       y       z     vdW  Elec       q    Type
REMARK                         _______ _______ _______ _____ _____    ______ ____
ROOT
ATOM      1  C   UNL     1       0.877  -0.427   1.472  0.00  0.00    +0.012 C 
ATOM      2  C   UNL     1       1.334   0.535   2.285  0.00  0.00    -0.008 C 
ATOM      3  C   UNL     1       2.065   0.139   3.538  0.00  0.00    +0.017 C 
ATOM      4  C   UNL     1       2.023   1.248   4.585  0.00  0.00    -0.003 C 
ATOM      5  C   UNL     1       2.750   0.781   5.854  0.00  0.00    -0.020 C 
ATOM      6  C   UNL     1       2.658   1.921   6.877  0.00  0.00    +0.158 C 
ATOM      7  O   UNL     1       3.402   1.564   8.056  0.00  0.00    -0.301 OA
ATOM      8  P   UNL     1       3.112   0.108   8.723  0.00  0.00    +0.431 P 
ATOM      9  O   UNL     1       1.890   0.161   9.557  0.00  0.00    -0.246 OA
ATOM     10  N   UNL     1       2.892  -0.917   7.449  0.00  0.00    -0.271 NA
ATOM     11  N   UNL     1       2.150  -0.442   6.385  0.00  0.00    +0.398 N 
ATOM     12  C   UNL     1       2.157  -1.524   5.384  0.00  0.00    -0.046 C 
ATOM     13  C   UNL     1       1.392  -1.102   4.137  0.00  0.00    +0.005 C 
ATOM     14  C   UNL     1       1.355  -2.188   3.098  0.00  0.00    -0.015 C 
ATOM     15  C   UNL     1       1.107  -1.850   1.821  0.00  0.00    -0.005 C 
ATOM     16  H   UNL     1       3.261  -1.814   7.456  0.00  0.00    +0.113 HD
ATOM     17  H   UNL     1       1.202  -0.254   6.676  0.00  0.00    -0.055 HD
ENDROOT
BRANCH  15  18
ATOM     18  C   UNL     1       1.069  -2.893   0.769  0.00  0.00    +0.024 A 
ATOM     19  C   UNL     1      -0.033  -3.740   0.663  0.00  0.00    +0.012 A 
ATOM     20  C   UNL     1      -0.063  -4.710  -0.319  0.00  0.00    +0.001 A 
ATOM     21  C   UNL     1       0.997  -4.845  -1.198  0.00  0.00    +0.004 A 
ATOM     22  C   UNL     1       2.094  -4.010  -1.102  0.00  0.00    +0.046 A 
ATOM     23  C   UNL     1       2.135  -3.028  -0.126  0.00  0.00    +0.125 A 
BRANCH  23  24
ATOM     24  O   UNL     1       3.210  -2.203  -0.034  0.00  0.00    -0.506 OA
ATOM     25  H   UNL     1       3.912  -2.534   0.543  0.00  0.00    +0.292 HD
ENDBRANCH  23  24
ENDBRANCH  15  18
BRANCH   8  26
ATOM     26  S   UNL     1       4.770  -0.509   9.891  0.00  0.00    +0.209 S 
ATOM     27  O   UNL     1       4.381  -1.707  10.548  0.00  0.00    -0.126 OA
ATOM     28  O   UNL     1       5.910  -0.438   9.046  0.00  0.00    -0.126 OA
BRANCH  26  29
ATOM     29  O   UNL     1       4.969   0.538  10.978  0.00  0.00    -0.339 OA
BRANCH  29  30
ATOM     30  C   UNL     1       4.055   0.473  11.982  0.00  0.00    +0.157 A 
ATOM     31  C   UNL     1       2.873   1.194  11.893  0.00  0.00    +0.048 A 
ATOM     32  C   UNL     1       1.945   1.126  12.914  0.00  0.00    +0.004 A 
ATOM     33  C   UNL     1       2.194   0.341  14.024  0.00  0.00    +0.000 A 
ATOM     34  C   UNL     1       3.371  -0.378  14.116  0.00  0.00    +0.004 A 
ATOM     35  C   UNL     1       4.300  -0.318  13.095  0.00  0.00    +0.048 A 
ENDBRANCH  29  30
ENDBRANCH  26  29
ENDBRANCH   8  26
BRANCH   1  37
ATOM     36  C   UNL     1      -0.022   1.810   0.012  0.00  0.00    +0.090 C 
ATOM     37  S   UNL     1       0.002  -0.004   0.002  0.00  0.00    -0.128 S 
ENDBRANCH   1  37
TORSDOF 6
