REMARK  Name = ZINC02863685
REMARK  5 active torsions:
REMARK  status: ('A' for Active; 'I' for Inactive)
REMARK    1  A    between atoms: C_4  and  C_7
REMARK    2  A    between atoms: C_7  and  N_8
REMARK    3  A    between atoms: C_17  and  C_21
REMARK    4  A    between atoms: C_17  and  N_25
REMARK    5  A    between atoms: C_26  and  C_28
REMARK                            x       y       z     vdW  Elec       q    Type
REMARK                         _______ _______ _______ _____ _____    ______ ____
ROOT
ATOM      1  N   UNL     1       4.704  -0.344   0.613  0.00  0.00    -0.277 N 
ATOM      2  C   UNL     1       5.348   0.394   1.583  0.00  0.00    +0.121 A 
ATOM      3  C   UNL     1       5.393  -0.103   2.852  0.00  0.00    +0.096 A 
ATOM      4  C   UNL     1       4.796  -1.335   3.148  0.00  0.00    +0.262 A 
ATOM      5  O   UNL     1       4.834  -1.781   4.281  0.00  0.00    -0.267 OA
ATOM      6  N   UNL     1       4.177  -2.022   2.165  0.00  0.00    -0.275 N 
ATOM      7  H   UNL     1       3.760  -2.876   2.359  0.00  0.00    +0.173 HD
ATOM      8  C   UNL     1       4.132  -1.522   0.916  0.00  0.00    +0.331 A 
ATOM      9  O   UNL     1       3.566  -2.151   0.043  0.00  0.00    -0.246 OA
ATOM     10  C   UNL     1       6.149   0.905   3.684  0.00  0.00    +0.240 C 
ATOM     11  C   UNL     1       6.497   1.996   2.690  0.00  0.00    +0.256 C 
ATOM     12  O   UNL     1       7.110   3.017   2.917  0.00  0.00    -0.272 OA
ATOM     13  N   UNL     1       5.990   1.606   1.507  0.00  0.00    -0.269 N 
ATOM     14  H   UNL     1       6.069   2.124   0.691  0.00  0.00    +0.156 HD
ENDROOT
BRANCH  10  15
ATOM     15  C   UNL     1       5.261   1.457   4.801  0.00  0.00    +0.424 C 
ATOM     16  F   UNL     1       4.945   0.429   5.696  0.00  0.00    -0.167 F 
ATOM     17  F   UNL     1       5.942   2.473   5.480  0.00  0.00    -0.167 F 
ATOM     18  F   UNL     1       4.084   1.973   4.249  0.00  0.00    -0.167 F 
ENDBRANCH  10  15
BRANCH  10  19
ATOM     19  N   UNL     1       7.366   0.307   4.239  0.00  0.00    -0.287 N 
ATOM     20  C   UNL     1       8.270  -0.265   3.419  0.00  0.00    +0.245 C 
ATOM     21  O   UNL     1       8.122  -0.204   2.214  0.00  0.00    -0.270 OA
ATOM     22  H   UNL     1       7.521   0.322   5.197  0.00  0.00    +0.151 HD
BRANCH  20  23
ATOM     23  C   UNL     1       9.442  -0.966   3.985  0.00  0.00    +0.037 A 
ATOM     24  C   UNL     1       9.612  -1.042   5.369  0.00  0.00    +0.014 A 
ATOM     25  C   UNL     1      10.707  -1.698   5.891  0.00  0.00    +0.021 A 
ATOM     26  C   UNL     1      11.637  -2.279   5.046  0.00  0.00    +0.041 A 
ATOM     27  C   UNL     1      11.474  -2.207   3.672  0.00  0.00    +0.021 A 
ATOM     28  C   UNL     1      10.380  -1.559   3.138  0.00  0.00    +0.014 A 
ATOM     29 CL   UNL     1      13.014  -3.102   5.711  0.00  0.00    -0.084 Cl
ENDBRANCH  20  23
ENDBRANCH  10  19
BRANCH   1  30
ATOM     30  C   UNL     1       4.638   0.162  -0.761  0.00  0.00    +0.163 C 
BRANCH  30  34
ATOM     31  C   UNL     1       1.129   2.552  -1.231  0.00  0.00    +0.000 A 
ATOM     32  C   UNL     1       2.314   3.137  -0.825  0.00  0.00    +0.000 A 
ATOM     33  C   UNL     1       3.449   2.363  -0.673  0.00  0.00    +0.005 A 
ATOM     34  C   UNL     1       3.400   1.005  -0.926  0.00  0.00    -0.028 A 
ATOM     35  C   UNL     1       2.214   0.420  -1.331  0.00  0.00    +0.005 A 
ATOM     36  C   UNL     1       1.079   1.194  -1.484  0.00  0.00    +0.000 A 
ENDBRANCH  30  34
ENDBRANCH   1  30
TORSDOF 5
