REMARK  Name = ZINC32101049
REMARK  4 active torsions:
REMARK  status: ('A' for Active; 'I' for Inactive)
REMARK    1  A    between atoms: C_1  and  C_2
REMARK    2  A    between atoms: C_7  and  N_8
REMARK    3  A    between atoms: N_25  and  C_28
REMARK    4  A    between atoms: C_28  and  C_29
REMARK                            x       y       z     vdW  Elec       q    Type
REMARK                         _______ _______ _______ _____ _____    ______ ____
ROOT
ATOM      1  N   UNL     1       0.168   0.117   2.335  0.00  0.00    -0.218 N 
ATOM      2  C   UNL     1       0.376  -0.362   3.578  0.00  0.00    +0.133 A 
ATOM      3  C   UNL     1       0.392   0.707   4.437  0.00  0.00    +0.032 A 
ATOM      4  C   UNL     1       0.174   1.857   3.692  0.00  0.00    +0.141 A 
ATOM      5  N   UNL     1       0.044   1.513   2.432  0.00  0.00    -0.173 NA
ATOM      6  C   UNL     1       0.624   0.541   5.913  0.00  0.00    +0.113 C 
ATOM      7  C   UNL     1       0.140  -0.842   6.347  0.00  0.00    +0.122 C 
ATOM      8  C   UNL     1       0.556  -1.896   5.359  0.00  0.00    +0.220 C 
ATOM      9  O   UNL     1       0.888  -2.988   5.771  0.00  0.00    -0.275 OA
ATOM     10  N   UNL     1       0.570  -1.667   4.029  0.00  0.00    -0.270 N 
ATOM     11  C   UNL     1       2.064   0.742   6.261  0.00  0.00    +0.012 A 
ATOM     12  C   UNL     1       2.105   1.830   7.143  0.00  0.00    +0.043 A 
ATOM     13  C   UNL     1       3.324   2.272   7.657  0.00  0.00    +0.024 A 
ATOM     14  C   UNL     1       4.465   1.593   7.257  0.00  0.00    +0.003 A 
ATOM     15  C   UNL     1       4.413   0.523   6.388  0.00  0.00    +0.020 A 
ATOM     16  C   UNL     1       3.203   0.072   5.867  0.00  0.00    +0.047 A 
ATOM     17 CL   UNL     1       3.131  -1.275   4.774  0.00  0.00    -0.083 Cl
ATOM     18  N   UNL     1       0.828   2.314   7.368  0.00  0.00    -0.266 N 
ATOM     19  C   UNL     1      -0.105   1.617   6.686  0.00  0.00    +0.236 C 
ATOM     20  O   UNL     1      -1.302   1.817   6.691  0.00  0.00    -0.274 OA
ATOM     21  H   UNL     1       0.712  -2.393   3.401  0.00  0.00    +0.156 HD
ENDROOT
BRANCH   1  28
ATOM     22  C   UNL     1      -1.988   0.617   0.546  0.00  0.00    +0.046 C 
ATOM     23  C   UNL     1      -0.942  -0.429   0.259  0.00  0.00    -0.025 A 
ATOM     24  C   UNL     1      -1.008  -1.173  -0.903  0.00  0.00    +0.005 A 
ATOM     25  C   UNL     1      -0.049  -2.133  -1.167  0.00  0.00    +0.000 A 
ATOM     26  C   UNL     1       0.981  -2.350  -0.270  0.00  0.00    +0.002 A 
ATOM     27  C   UNL     1       1.054  -1.609   0.893  0.00  0.00    +0.028 A 
ATOM     28  C   UNL     1       0.094  -0.640   1.159  0.00  0.00    +0.070 A 
ENDBRANCH   1  28
BRANCH  18  29
ATOM     29  C   UNL     1       0.525   3.449   8.244  0.00  0.00    +0.140 C 
BRANCH  29  30
ATOM     30  C   UNL     1       0.564   4.725   7.444  0.00  0.00    -0.015 C 
ATOM     31  C   UNL     1      -0.472   5.527   7.439  0.00  0.00    +0.005 C 
ENDBRANCH  29  30
ENDBRANCH  18  29
TORSDOF 3
