REMARK  Name = ZINC55236199
REMARK  6 active torsions:
REMARK  status: ('A' for Active; 'I' for Inactive)
REMARK    1  A    between atoms: C_1  and  C_2
REMARK    2  A    between atoms: C_2  and  C_3
REMARK    3  A    between atoms: C_2  and  C_4
REMARK    4  A    between atoms: C_9  and  N_12
REMARK    5  A    between atoms: N_12  and  S_13
REMARK    6  A    between atoms: S_13  and  C_16
REMARK                            x       y       z     vdW  Elec       q    Type
REMARK                         _______ _______ _______ _____ _____    ______ ____
ROOT
ATOM      1  S   UNL     1      -2.883  -6.956  -1.504  0.00  0.00    +0.061 S 
ATOM      2  O   UNL     1      -2.749  -7.761  -2.667  0.00  0.00    -0.153 OA
ATOM      3  O   UNL     1      -2.519  -7.419  -0.211  0.00  0.00    -0.153 OA
ENDROOT
BRANCH   1   4
ATOM      4  C   UNL     1      -4.577  -6.483  -1.411  0.00  0.00    +0.141 A 
ATOM      5  C   UNL     1      -5.473  -6.934  -2.364  0.00  0.00    +0.037 A 
ATOM      6  C   UNL     1      -6.802  -6.566  -2.293  0.00  0.00    -0.024 A 
ATOM      7  C   UNL     1      -7.240  -5.741  -1.265  0.00  0.00    +0.039 A 
ATOM      8  C   UNL     1      -6.341  -5.288  -0.310  0.00  0.00    +0.064 A 
ATOM      9  C   UNL     1      -5.011  -5.665  -0.382  0.00  0.00    +0.151 A 
ATOM     10  F   UNL     1      -4.135  -5.230   0.550  0.00  0.00    -0.203 F 
ATOM     11  N   UNL     1      -8.587  -5.370  -1.194  0.00  0.00    -0.285 N 
ATOM     12  C   UNL     1      -9.523  -6.070  -1.860  0.00  0.00    +0.218 C 
ATOM     13  O   UNL     1     -10.684  -5.726  -1.800  0.00  0.00    -0.275 OA
ATOM     14  C   UNL     1      -9.146  -7.276  -2.679  0.00  0.00    +0.101 C 
ATOM     15  C   UNL     1      -7.779  -7.056  -3.329  0.00  0.00    +0.046 C 
ATOM     16  H   UNL     1      -8.847  -4.602  -0.662  0.00  0.00    +0.155 HD
ENDBRANCH   1   4
BRANCH   1  17
ATOM     17  N   UNL     1      -2.005  -5.579  -1.778  0.00  0.00    -0.187 NA
ATOM     18  H   UNL     1      -1.518  -5.471  -2.610  0.00  0.00    +0.148 HD
BRANCH  17  24
ATOM     19  C   UNL     1      -1.411  -0.527   0.013  0.00  0.00    +0.218 C 
ATOM     20  O   UNL     1      -2.344   0.244  -0.065  0.00  0.00    -0.275 OA
ATOM     21  N   UNL     1      -1.639  -1.852   0.109  0.00  0.00    -0.301 N 
ATOM     22  C   UNL     1      -0.527  -2.789   0.320  0.00  0.00    +0.109 C 
ATOM     23  C   UNL     1      -0.579  -3.868  -0.765  0.00  0.00    +0.039 C 
ATOM     24  C   UNL     1      -1.962  -4.523  -0.762  0.00  0.00    +0.079 C 
ATOM     25  C   UNL     1      -3.027  -3.470  -1.077  0.00  0.00    +0.039 C 
ATOM     26  C   UNL     1      -3.004  -2.386   0.011  0.00  0.00    +0.109 C 
BRANCH  19  28
ATOM     27  C   UNL     1       0.567  -0.092  -1.418  0.00  0.00    +0.017 C 
ATOM     28  C   UNL     1       0.002  -0.004   0.002  0.00  0.00    +0.069 C 
ATOM     29  C   UNL     1       0.010   1.454   0.464  0.00  0.00    +0.017 C 
ENDBRANCH  19  28
ENDBRANCH  17  24
ENDBRANCH   1  17
TORSDOF 4
