REMARK  Name = ZINC09237281
REMARK  7 active torsions:
REMARK  status: ('A' for Active; 'I' for Inactive)
REMARK    1  A    between atoms: C_6  and  C_7
REMARK    2  A    between atoms: C_7  and  N_8
REMARK    3  A    between atoms: N_20  and  C_21
REMARK    4  A    between atoms: C_21  and  C_23
REMARK    5  A    between atoms: C_23  and  C_24
REMARK    6  A    between atoms: C_24  and  C_25
REMARK    7  A    between atoms: C_25  and  C_26
REMARK                            x       y       z     vdW  Elec       q    Type
REMARK                         _______ _______ _______ _____ _____    ______ ____
ROOT
ATOM      1  N   UNL     1      -3.213   1.127  -1.655  0.00  0.00    -0.302 N 
ATOM      2  C   UNL     1      -2.309   1.902  -0.826  0.00  0.00    +0.111 C 
ATOM      3  C   UNL     1      -2.645   1.653   0.663  0.00  0.00    +0.189 C 
ATOM      4  S   UNL     1      -0.975   1.730   1.446  0.00  0.00    -0.028 S 
ATOM      5  O   UNL     1      -0.911   0.794   2.513  0.00  0.00    -0.174 OA
ATOM      6  O   UNL     1      -0.625   3.088   1.676  0.00  0.00    -0.174 OA
ATOM      7  C   UNL     1      -0.013   1.086   0.008  0.00  0.00    +0.182 C 
ATOM      8  C   UNL     1      -0.839   1.636  -1.171  0.00  0.00    +0.097 C 
ATOM      9  S   UNL     1      -0.997   0.336  -2.450  0.00  0.00    -0.086 S 
ATOM     10  C   UNL     1      -2.721   0.230  -2.543  0.00  0.00    +0.150 C 
ATOM     11  N   UNL     1      -3.425  -0.574  -3.332  0.00  0.00    -0.159 NA
ENDROOT
BRANCH  11  12
ATOM     12  C   UNL     1      -2.800  -1.407  -4.160  0.00  0.00    +0.238 C 
ATOM     13  O   UNL     1      -1.585  -1.433  -4.194  0.00  0.00    -0.274 OA
BRANCH  12  14
ATOM     14  C   UNL     1      -3.599  -2.320  -5.055  0.00  0.00    +0.098 C 
BRANCH  14  15
ATOM     15  C   UNL     1      -2.646  -3.168  -5.899  0.00  0.00    +0.020 C 
BRANCH  15  16
ATOM     16  C   UNL     1      -3.457  -4.094  -6.808  0.00  0.00    +0.125 C 
BRANCH  16  17
ATOM     17  C   UNL     1      -2.518  -4.930  -7.639  0.00  0.00    +0.356 C 
ATOM     18  O   UNL     1      -1.323  -4.798  -7.518  0.00  0.00    -0.246 OA
ATOM     19  O   UNL     1      -3.010  -5.821  -8.515  0.00  0.00    -0.246 OA
ENDBRANCH  16  17
ENDBRANCH  15  16
ENDBRANCH  14  15
ENDBRANCH  12  14
ENDBRANCH  11  12
BRANCH   1  20
ATOM     20  C   UNL     1      -4.661   1.313  -1.530  0.00  0.00    +0.142 C 
BRANCH  20  26
ATOM     21  C   UNL     1      -5.498   2.056  -3.768  0.00  0.00    +0.009 A 
ATOM     22  C   UNL     1      -5.913   3.040  -4.646  0.00  0.00    +0.050 A 
ATOM     23  C   UNL     1      -5.942   4.364  -4.240  0.00  0.00    +0.166 A 
ATOM     24  C   UNL     1      -5.554   4.700  -2.945  0.00  0.00    +0.167 A 
ATOM     25  C   UNL     1      -5.145   3.709  -2.069  0.00  0.00    +0.054 A 
ATOM     26  C   UNL     1      -5.112   2.390  -2.483  0.00  0.00    -0.026 A 
ATOM     27  O   UNL     1      -5.671   6.052  -2.792  0.00  0.00    -0.453 OA
ATOM     28  C   UNL     1      -6.521   6.489  -3.869  0.00  0.00    +0.466 C 
ATOM     29  O   UNL     1      -6.303   5.505  -4.897  0.00  0.00    -0.453 OA
ENDBRANCH  20  26
ENDBRANCH   1  20
TORSDOF 7
