REMARK  Name = ZINC00066231
REMARK  4 active torsions:
REMARK  status: ('A' for Active; 'I' for Inactive)
REMARK    1  A    between atoms: C_4  and  C_7
REMARK    2  A    between atoms: C_14  and  N_26
REMARK    3  A    between atoms: C_15  and  C_24
REMARK    4  A    between atoms: C_16  and  C_18
REMARK                            x       y       z     vdW  Elec       q    Type
REMARK                         _______ _______ _______ _____ _____    ______ ____
ROOT
ATOM      1  C   UNL     1       3.692  -0.681  -0.038  0.00  0.00    +0.015 C 
ATOM      2  C   UNL     1       3.717  -2.022   0.056  0.00  0.00    -0.004 C 
ATOM      3  C   UNL     1       2.514  -2.939   0.071  0.00  0.00    +0.043 C 
ATOM      4  C   UNL     1       3.113  -4.351   0.192  0.00  0.00    +0.040 C 
ATOM      5  C   UNL     1       4.604  -4.159   0.237  0.00  0.00    -0.014 C 
ATOM      6  C   UNL     1       4.915  -2.859   0.155  0.00  0.00    +0.133 C 
ATOM      7  O   UNL     1       6.206  -2.413   0.171  0.00  0.00    -0.441 OA
ATOM      8  C   UNL     1       7.165  -3.271   0.568  0.00  0.00    +0.199 C 
ATOM      9  C   UNL     1       6.972  -4.606   0.671  0.00  0.00    +0.098 C 
ATOM     10  C   UNL     1       5.648  -5.247   0.352  0.00  0.00    +0.094 C 
ENDROOT
BRANCH   1  14
ATOM     11  C   UNL     1      -0.009   1.389   0.125  0.00  0.00    +0.000 A 
ATOM     12  C   UNL     1       0.193   0.274   0.920  0.00  0.00    +0.001 A 
ATOM     13  C   UNL     1       1.393  -0.404   0.873  0.00  0.00    +0.008 A 
ATOM     14  C   UNL     1       2.407   0.037   0.018  0.00  0.00    -0.025 A 
ATOM     15  C   UNL     1       2.196   1.163  -0.783  0.00  0.00    +0.008 A 
ATOM     16  C   UNL     1       0.991   1.831  -0.724  0.00  0.00    +0.001 A 
ENDBRANCH   1  14
BRANCH  10  17
ATOM     17  C   UNL     1       5.759  -5.984  -0.957  0.00  0.00    -0.035 A 
ATOM     18  C   UNL     1       6.123  -5.304  -2.105  0.00  0.00    +0.004 A 
ATOM     19  C   UNL     1       6.225  -5.980  -3.306  0.00  0.00    +0.000 A 
ATOM     20  C   UNL     1       5.964  -7.337  -3.360  0.00  0.00    +0.000 A 
ATOM     21  C   UNL     1       5.602  -8.017  -2.213  0.00  0.00    +0.000 A 
ATOM     22  C   UNL     1       5.504  -7.342  -1.010  0.00  0.00    +0.004 A 
ENDBRANCH  10  17
BRANCH   8  23
ATOM     23  N   UNL     1       8.401  -2.766   0.883  0.00  0.00    -0.328 N 
ATOM     24  H   UNL     1       8.567  -1.812   0.817  0.00  0.00    +0.145 HD
ATOM     25  H   UNL     1       9.110  -3.362   1.172  0.00  0.00    +0.145 HD
ENDBRANCH   8  23
BRANCH   9  26
ATOM     26  C   UNL     1       8.057  -5.433   1.105  0.00  0.00    +0.101 C 
ATOM     27  N   UNL     1       8.918  -6.090   1.450  0.00  0.00    -0.191 NA
ENDBRANCH   9  26
TORSDOF 4
