REMARK  Name = ZINC12821917
REMARK  8 active torsions:
REMARK  status: ('A' for Active; 'I' for Inactive)
REMARK    1  A    between atoms: C_1  and  C_2
REMARK    2  A    between atoms: C_2  and  C_3
REMARK    3  A    between atoms: C_3  and  N_4
REMARK    4  A    between atoms: N_4  and  C_5
REMARK    5  A    between atoms: C_6  and  N_21
REMARK    6  A    between atoms: N_7  and  C_14
REMARK    7  A    between atoms: C_14  and  C_15
REMARK    8  A    between atoms: C_22  and  C_24
REMARK                            x       y       z     vdW  Elec       q    Type
REMARK                         _______ _______ _______ _____ _____    ______ ____
ROOT
ATOM      1  C   UNL     1      -3.059   4.903  -4.445  0.00  0.00    +0.140 A 
ATOM      2  C   UNL     1      -2.621   4.053  -3.450  0.00  0.00    +0.128 A 
ATOM      3  N   UNL     1      -3.053   2.747  -3.444  0.00  0.00    -0.276 N 
ATOM      4  C   UNL     1      -3.902   2.307  -4.390  0.00  0.00    +0.331 A 
ATOM      5  O   UNL     1      -4.277   1.150  -4.364  0.00  0.00    -0.246 OA
ATOM      6  N   UNL     1      -4.344   3.122  -5.364  0.00  0.00    -0.273 N 
ATOM      7  H   UNL     1      -4.974   2.769  -6.056  0.00  0.00    +0.173 HD
ATOM      8  C   UNL     1      -3.947   4.408  -5.419  0.00  0.00    +0.277 A 
ATOM      9  O   UNL     1      -4.354   5.139  -6.306  0.00  0.00    -0.266 OA
ENDROOT
BRANCH   1  10
ATOM     10  N   UNL     1      -2.630   6.246  -4.482  0.00  0.00    -0.260 N 
ATOM     11  C   UNL     1      -3.537   7.243  -4.506  0.00  0.00    +0.253 C 
ATOM     12  O   UNL     1      -3.168   8.400  -4.580  0.00  0.00    -0.270 OA
BRANCH  11  13
ATOM     13  C   UNL     1      -4.979   6.931  -4.444  0.00  0.00    +0.058 A 
ATOM     14  C   UNL     1      -5.417   5.765  -3.811  0.00  0.00    +0.055 A 
ATOM     15  C   UNL     1      -6.766   5.481  -3.752  0.00  0.00    +0.159 A 
ATOM     16  C   UNL     1      -7.686   6.347  -4.329  0.00  0.00    +0.160 A 
ATOM     17  C   UNL     1      -7.257   7.501  -4.961  0.00  0.00    +0.062 A 
ATOM     18  C   UNL     1      -5.910   7.798  -5.022  0.00  0.00    +0.056 A 
ATOM     19 CL   UNL     1      -5.373   9.245  -5.816  0.00  0.00    -0.083 Cl
ATOM     20  F   UNL     1      -9.006   6.061  -4.272  0.00  0.00    -0.202 F 
ATOM     21  F   UNL     1      -7.192   4.356  -3.136  0.00  0.00    -0.202 F 
ENDBRANCH  11  13
BRANCH  10  22
ATOM     22  C   UNL     1      -1.199   6.558  -4.494  0.00  0.00    +0.114 C 
BRANCH  22  24
ATOM     23  C   UNL     1       0.760   7.094  -5.948  0.00  0.00    +0.005 C 
ATOM     24  C   UNL     1      -0.735   6.769  -5.936  0.00  0.00    +0.016 C 
ENDBRANCH  22  24
ENDBRANCH  10  22
ENDBRANCH   1  10
BRANCH   2  25
ATOM     25  N   UNL     1      -1.758   4.505  -2.480  0.00  0.00    -0.343 N 
ATOM     26  H   UNL     1      -1.383   3.883  -1.837  0.00  0.00    +0.144 HD
ATOM     27  H   UNL     1      -1.525   5.445  -2.438  0.00  0.00    +0.144 HD
ENDBRANCH   2  25
BRANCH   3  28
ATOM     28  C   UNL     1      -2.592   1.833  -2.397  0.00  0.00    +0.163 C 
BRANCH  28  29
ATOM     29  C   UNL     1      -1.331   1.144  -2.852  0.00  0.00    -0.028 A 
ATOM     30  C   UNL     1      -1.407  -0.050  -3.546  0.00  0.00    +0.005 A 
ATOM     31  C   UNL     1      -0.251  -0.684  -3.959  0.00  0.00    +0.000 A 
ATOM     32  C   UNL     1       0.982  -0.120  -3.687  0.00  0.00    +0.000 A 
ATOM     33  C   UNL     1       1.058   1.076  -2.998  0.00  0.00    +0.000 A 
ATOM     34  C   UNL     1      -0.099   1.708  -2.580  0.00  0.00    +0.005 A 
ENDBRANCH  28  29
ENDBRANCH   3  28
TORSDOF 7
