REMARK  Name = ZINC39467424
REMARK  4 active torsions:
REMARK  status: ('A' for Active; 'I' for Inactive)
REMARK    1  A    between atoms: C_1  and  C_2
REMARK    2  A    between atoms: C_11  and  C_13
REMARK    3  A    between atoms: N_29  and  C_30
REMARK    4  A    between atoms: C_30  and  C_31
REMARK                            x       y       z     vdW  Elec       q    Type
REMARK                         _______ _______ _______ _____ _____    ______ ____
ROOT
ATOM      1  C   UNL     1       0.911   1.790   0.617  0.00  0.00    +0.014 C 
ATOM      2  C   UNL     1       0.606   0.301   0.438  0.00  0.00    +0.044 C 
ATOM      3  C   UNL     1       0.641  -0.034  -1.030  0.00  0.00    +0.028 A 
ATOM      4  C   UNL     1       0.164   0.742  -2.100  0.00  0.00    +0.127 A 
ATOM      5  N   UNL     1       0.263   0.282  -3.341  0.00  0.00    -0.221 NA
ATOM      6  C   UNL     1       0.799  -0.892  -3.603  0.00  0.00    +0.224 A 
ATOM      7  N   UNL     1       1.268  -1.656  -2.635  0.00  0.00    -0.229 NA
ATOM      8  C   UNL     1       1.211  -1.258  -1.375  0.00  0.00    +0.106 A 
ATOM      9  S   UNL     1       1.770  -1.998   0.142  0.00  0.00    -0.092 S 
ATOM     10  C   UNL     1       1.641  -0.525   1.236  0.00  0.00    +0.146 C 
ATOM     11  N   UNL     1      -0.407   1.982  -1.859  0.00  0.00    -0.325 N 
ATOM     12  H   UNL     1      -0.556   2.279  -0.948  0.00  0.00    +0.148 HD
ENDROOT
BRANCH  10  13
ATOM     13  C   UNL     1       2.959   0.199   1.340  0.00  0.00    +0.230 C 
ATOM     14  O   UNL     1       3.670   0.308   0.364  0.00  0.00    -0.274 OA
ATOM     15  N   UNL     1       3.347   0.725   2.519  0.00  0.00    -0.294 N 
ATOM     16  C   UNL     1       4.675   1.338   2.670  0.00  0.00    +0.113 C 
ATOM     17  C   UNL     1       4.503   2.832   2.967  0.00  0.00    +0.056 C 
ATOM     18  C   UNL     1       3.430   3.004   4.012  0.00  0.00    -0.016 A 
ATOM     19  C   UNL     1       3.168   4.158   4.849  0.00  0.00    +0.003 A 
ATOM     20  C   UNL     1       3.784   5.408   4.958  0.00  0.00    +0.010 A 
ATOM     21  C   UNL     1       3.258   6.280   5.880  0.00  0.00    +0.001 A 
ATOM     22  C   UNL     1       2.171   5.948   6.670  0.00  0.00    +0.002 A 
ATOM     23  C   UNL     1       1.542   4.718   6.583  0.00  0.00    +0.026 A 
ATOM     24  C   UNL     1       2.054   3.812   5.656  0.00  0.00    +0.047 A 
ATOM     25  N   UNL     1       1.685   2.542   5.317  0.00  0.00    -0.356 N 
ATOM     26  C   UNL     1       2.514   2.066   4.336  0.00  0.00    +0.038 A 
ATOM     27  H   UNL     1       0.948   2.051   5.712  0.00  0.00    +0.166 HD
ATOM     28  C   UNL     1       2.450   0.706   3.687  0.00  0.00    +0.161 C 
ENDBRANCH  10  13
BRANCH  11  29
ATOM     29  C   UNL     1      -0.786   2.844  -2.982  0.00  0.00    +0.138 C 
BRANCH  29  30
ATOM     30  C   UNL     1      -1.379   4.124  -2.454  0.00  0.00    -0.027 A 
ATOM     31  C   UNL     1      -2.740   4.210  -2.223  0.00  0.00    +0.009 A 
ATOM     32  C   UNL     1      -3.289   5.382  -1.738  0.00  0.00    +0.050 A 
ATOM     33  C   UNL     1      -2.477   6.475  -1.483  0.00  0.00    +0.166 A 
ATOM     34  C   UNL     1      -1.107   6.389  -1.716  0.00  0.00    +0.167 A 
ATOM     35  C   UNL     1      -0.562   5.209  -2.197  0.00  0.00    +0.054 A 
ATOM     36  O   UNL     1      -0.533   7.584  -1.391  0.00  0.00    -0.453 OA
ATOM     37  C   UNL     1      -1.617   8.531  -1.345  0.00  0.00    +0.466 C 
ATOM     38  O   UNL     1      -2.762   7.724  -1.012  0.00  0.00    -0.453 OA
ENDBRANCH  29  30
ENDBRANCH  11  29
TORSDOF 3
