REMARK  Name = ZINC32446461
REMARK  14 active torsions:
REMARK  status: ('A' for Active; 'I' for Inactive)
REMARK    1  A    between atoms: C_1  and  C_2
REMARK    2  A    between atoms: C_2  and  C_3
REMARK    3  A    between atoms: C_3  and  C_5
REMARK    4  A    between atoms: C_3  and  N_25
REMARK    5  A    between atoms: C_5  and  N_6
REMARK    6  A    between atoms: C_7  and  C_9
REMARK    7  A    between atoms: C_12  and  O_23
REMARK    8  A    between atoms: C_13  and  S_15
REMARK    9  A    between atoms: S_15  and  N_18
REMARK   10  A    between atoms: N_18  and  C_19
REMARK   11  A    between atoms: C_19  and  C_20
REMARK   12  A    between atoms: C_19  and  C_21
REMARK   13  A    between atoms: C_19  and  C_22
REMARK   14  A    between atoms: O_23  and  C_24
REMARK                            x       y       z     vdW  Elec       q    Type
REMARK                         _______ _______ _______ _____ _____    ______ ____
ROOT
ATOM      1  N   UNL     1      -2.893  -3.449   6.212  0.00  0.00    -0.313 N 
ATOM      2  C   UNL     1      -2.346  -4.040   5.132  0.00  0.00    +0.244 C 
ATOM      3  O   UNL     1      -2.571  -5.213   4.902  0.00  0.00    -0.270 OA
ATOM      4  H   UNL     1      -2.690  -2.388   6.421  0.00  0.00    +0.149 HD
ENDROOT
BRANCH   2   5
ATOM      5  C   UNL     1      -1.473  -3.265   4.229  0.00  0.00    +0.039 A 
ATOM      6  C   UNL     1      -1.213  -1.917   4.493  0.00  0.00    +0.017 A 
ATOM      7  C   UNL     1      -0.399  -1.197   3.648  0.00  0.00    +0.048 A 
ATOM      8  C   UNL     1       0.164  -1.808   2.533  0.00  0.00    +0.146 A 
ATOM      9  C   UNL     1      -0.092  -3.148   2.268  0.00  0.00    +0.147 A 
ATOM     10  C   UNL     1      -0.909  -3.874   3.106  0.00  0.00    +0.045 A 
BRANCH   9  11
ATOM     11  S   UNL     1       0.625  -3.918   0.855  0.00  0.00    +0.062 S 
ATOM     12  O   UNL     1       0.129  -5.249   0.821  0.00  0.00    -0.153 OA
ATOM     13  O   UNL     1       2.015  -3.624   0.893  0.00  0.00    -0.153 OA
BRANCH  11  14
ATOM     14  N   UNL     1       0.017  -3.152  -0.482  0.00  0.00    -0.185 NA
ATOM     15  H   UNL     1       0.711  -2.698  -1.204  0.00  0.00    +0.149 HD
BRANCH  14  16
ATOM     16  C   UNL     1      -1.407  -3.269  -0.808  0.00  0.00    +0.032 C 
ATOM     17  C   UNL     1      -2.244  -2.809   0.388  0.00  0.00    +0.029 C 
ATOM     18  C   UNL     1      -1.726  -2.392  -2.021  0.00  0.00    +0.029 C 
ATOM     19  C   UNL     1      -1.738  -4.727  -1.132  0.00  0.00    +0.029 C 
ENDBRANCH  14  16
ENDBRANCH  11  14
ENDBRANCH   9  11
BRANCH   8  20
ATOM     20  O   UNL     1       0.966  -1.095   1.702  0.00  0.00    -0.493 OA
ATOM     21  C   UNL     1       1.279   0.243   2.094  0.00  0.00    +0.277 C 
ENDBRANCH   8  20
ENDBRANCH   2   5
BRANCH   1  22
ATOM     22  C   UNL     1      -3.760  -4.219   7.109  0.00  0.00    +0.089 C 
BRANCH  22  23
ATOM     23  C   UNL     1      -4.345  -3.290   8.174  0.00  0.00    -0.051 C 
BRANCH  23  24
ATOM     24  N   UNL     1      -5.034  -2.168   7.521  0.00  0.00    +0.385 N 
ATOM     25  C   UNL     1      -5.143  -1.016   8.429  0.00  0.00    -0.073 C 
ATOM     26  C   UNL     1      -5.521   0.216   7.606  0.00  0.00    +0.017 C 
ATOM     27  C   UNL     1      -6.711  -0.093   6.734  0.00  0.00    -0.048 A 
ATOM     28  C   UNL     1      -7.421   0.964   6.185  0.00  0.00    +0.004 A 
ATOM     29  C   UNL     1      -8.512   0.724   5.373  0.00  0.00    +0.000 A 
ATOM     30  C   UNL     1      -8.898  -0.576   5.106  0.00  0.00    +0.000 A 
ATOM     31  C   UNL     1      -8.193  -1.629   5.654  0.00  0.00    +0.002 A 
ATOM     32  C   UNL     1      -7.097  -1.390   6.471  0.00  0.00    -0.061 A 
ATOM     33  C   UNL     1      -6.362  -2.571   7.048  0.00  0.00    -0.042 C 
ATOM     34  H   UNL     1      -4.434  -1.871   6.648  0.00  0.00    -0.081 HD
ENDBRANCH  23  24
BRANCH  23  36
ATOM     35  C   UNL     1      -5.872  -3.159  10.147  0.00  0.00    +0.002 C 
ATOM     36  C   UNL     1      -5.342  -4.067   9.037  0.00  0.00    -0.017 C 
ENDBRANCH  23  36
ENDBRANCH  22  23
ENDBRANCH   1  22
TORSDOF 9
