REMARK  Name = ZINC59490581
REMARK  7 active torsions:
REMARK  status: ('A' for Active; 'I' for Inactive)
REMARK    1  A    between atoms: C_1  and  C_2
REMARK    2  A    between atoms: C_2  and  N_3
REMARK    3  A    between atoms: C_4  and  S_14
REMARK    4  A    between atoms: N_5  and  C_6
REMARK    5  A    between atoms: C_6  and  C_7
REMARK    6  A    between atoms: S_14  and  C_15
REMARK    7  A    between atoms: N_20  and  C_23
REMARK                            x       y       z     vdW  Elec       q    Type
REMARK                         _______ _______ _______ _____ _____    ______ ____
ROOT
ATOM      1  N   UNL     1       0.415  -0.389  -0.884  0.00  0.00    -0.326 N 
ATOM      2  C   UNL     1       0.746  -1.686  -1.200  0.00  0.00    +0.129 C 
ATOM      3  N   UNL     1       1.420  -1.942  -2.287  0.00  0.00    -0.364 N 
ATOM      4  H   UNL     1       0.607   0.327  -1.511  0.00  0.00    +0.148 HD
ATOM      5  H   UNL     1       1.653  -2.857  -2.509  0.00  0.00    +0.162 HD
ENDROOT
BRANCH   1   7
ATOM      6  C   UNL     1      -0.376   1.427   0.550  0.00  0.00    +0.024 C 
ATOM      7  C   UNL     1      -0.228  -0.088   0.397  0.00  0.00    +0.100 C 
ENDBRANCH   1   7
BRANCH   3   8
ATOM      8  C   UNL     1       1.825  -0.847  -3.172  0.00  0.00    +0.150 C 
BRANCH   8   9
ATOM      9  C   UNL     1       2.584  -1.406  -4.347  0.00  0.00    -0.028 A 
ATOM     10  C   UNL     1       3.957  -1.554  -4.275  0.00  0.00    +0.007 A 
ATOM     11  C   UNL     1       4.654  -2.067  -5.353  0.00  0.00    +0.020 A 
ATOM     12  C   UNL     1       3.979  -2.431  -6.504  0.00  0.00    +0.041 A 
ATOM     13  C   UNL     1       2.605  -2.282  -6.575  0.00  0.00    +0.020 A 
ATOM     14  C   UNL     1       1.908  -1.775  -5.495  0.00  0.00    +0.007 A 
ATOM     15 CL   UNL     1       4.854  -3.074  -7.858  0.00  0.00    -0.084 Cl
ENDBRANCH   8   9
ENDBRANCH   3   8
BRANCH   2  16
ATOM     16  S   UNL     1       0.259  -3.003  -0.135  0.00  0.00    -0.079 S 
BRANCH  16  17
ATOM     17  C   UNL     1      -0.680  -4.117  -1.217  0.00  0.00    +0.149 C 
ATOM     18  C   UNL     1      -1.153  -5.361  -0.436  0.00  0.00    +0.120 C 
ATOM     19  C   UNL     1      -2.662  -5.280  -0.522  0.00  0.00    +0.228 C 
ATOM     20  O   UNL     1      -3.436  -6.075  -0.033  0.00  0.00    -0.275 OA
ATOM     21  N   UNL     1      -3.005  -4.192  -1.222  0.00  0.00    -0.209 N 
ATOM     22  C   UNL     1      -1.969  -3.464  -1.665  0.00  0.00    +0.240 C 
ATOM     23  O   UNL     1      -2.050  -2.445  -2.317  0.00  0.00    -0.274 OA
BRANCH  21  24
ATOM     24  C   UNL     1      -4.340  -3.843  -1.475  0.00  0.00    +0.044 A 
ATOM     25  C   UNL     1      -4.841  -3.903  -2.769  0.00  0.00    +0.025 A 
ATOM     26  C   UNL     1      -6.155  -3.559  -3.015  0.00  0.00    +0.017 A 
ATOM     27  C   UNL     1      -6.973  -3.155  -1.975  0.00  0.00    +0.018 A 
ATOM     28  C   UNL     1      -6.476  -3.095  -0.685  0.00  0.00    +0.017 A 
ATOM     29  C   UNL     1      -5.164  -3.443  -0.432  0.00  0.00    +0.025 A 
ATOM     30 BR   UNL     1      -8.772  -2.683  -2.316  0.00  0.00    -0.050 Br
ENDBRANCH  21  24
ENDBRANCH  16  17
ENDBRANCH   2  16
TORSDOF 6
