REMARK  Name = ZINC63869633
REMARK  6 active torsions:
REMARK  status: ('A' for Active; 'I' for Inactive)
REMARK    1  A    between atoms: C_1  and  N_2
REMARK    2  A    between atoms: N_2  and  C_3
REMARK    3  A    between atoms: C_9  and  C_11
REMARK    4  A    between atoms: C_11  and  N_12
REMARK    5  A    between atoms: C_15  and  C_20
REMARK    6  A    between atoms: C_20  and  C_21
REMARK                            x       y       z     vdW  Elec       q    Type
REMARK                         _______ _______ _______ _____ _____    ______ ____
ROOT
ATOM      1  N   UNL     1       0.163  -0.924  -3.568  0.00  0.00    -0.216 N 
ATOM      2  C   UNL     1       1.292  -1.458  -4.075  0.00  0.00    +0.244 C 
ATOM      3  O   UNL     1       2.430  -1.238  -3.721  0.00  0.00    -0.273 OA
ATOM      4  C   UNL     1       0.842  -2.392  -5.181  0.00  0.00    +0.165 C 
ATOM      5  N   UNL     1      -0.625  -2.264  -5.168  0.00  0.00    -0.287 N 
ATOM      6  C   UNL     1      -0.926  -1.390  -4.190  0.00  0.00    +0.310 C 
ATOM      7  O   UNL     1      -2.060  -1.058  -3.906  0.00  0.00    -0.252 OA
ATOM      8  H   UNL     1      -1.253  -2.722  -5.748  0.00  0.00    +0.151 HD
ENDROOT
BRANCH   1   9
ATOM      9  C   UNL     1       0.132   0.043  -2.468  0.00  0.00    +0.214 C 
BRANCH   9  12
ATOM     10  C   UNL     1      -0.074   1.459  -0.019  0.00  0.00    +0.138 C 
ATOM     11  N   UNL     1       0.002  -0.004   0.002  0.00  0.00    -0.273 N 
ATOM     12  C   UNL     1       0.043  -0.693  -1.155  0.00  0.00    +0.237 C 
ATOM     13  O   UNL     1       0.009  -1.905  -1.141  0.00  0.00    -0.274 OA
BRANCH  11  14
ATOM     14  C   UNL     1       0.031  -0.686   1.224  0.00  0.00    +0.036 A 
ATOM     15  C   UNL     1       1.127  -0.557   2.067  0.00  0.00    +0.023 A 
ATOM     16  C   UNL     1       1.153  -1.231   3.272  0.00  0.00    +0.002 A 
ATOM     17  C   UNL     1       0.089  -2.033   3.639  0.00  0.00    +0.000 A 
ATOM     18  C   UNL     1      -1.004  -2.164   2.802  0.00  0.00    +0.002 A 
ATOM     19  C   UNL     1      -1.038  -1.489   1.598  0.00  0.00    +0.023 A 
ENDBRANCH  11  14
ENDBRANCH   9  12
ENDBRANCH   1   9
BRANCH   4  20
ATOM     20  C   UNL     1       1.263  -3.831  -4.875  0.00  0.00    +0.065 C 
BRANCH  20  21
ATOM     21  C   UNL     1       0.913  -4.716  -6.044  0.00  0.00    -0.039 C 
ATOM     22  C   UNL     1       1.728  -5.082  -7.059  0.00  0.00    -0.001 A 
ATOM     23  C   UNL     1       3.130  -4.776  -7.368  0.00  0.00    +0.010 A 
ATOM     24  C   UNL     1       3.685  -5.301  -8.485  0.00  0.00    +0.001 A 
ATOM     25  C   UNL     1       2.957  -6.127  -9.352  0.00  0.00    +0.002 A 
ATOM     26  C   UNL     1       1.665  -6.452  -9.135  0.00  0.00    +0.026 A 
ATOM     27  C   UNL     1       0.981  -5.957  -7.990  0.00  0.00    +0.043 A 
ATOM     28  N   UNL     1      -0.248  -6.125  -7.567  0.00  0.00    -0.380 N 
ATOM     29  C   UNL     1      -0.418  -5.380  -6.315  0.00  0.00    +0.144 C 
ATOM     30  H   UNL     1      -0.930  -6.657  -8.006  0.00  0.00    +0.160 HD
ENDBRANCH  20  21
ENDBRANCH   4  20
TORSDOF 5
