REMARK  Name = ZINC39607267
REMARK  8 active torsions:
REMARK  status: ('A' for Active; 'I' for Inactive)
REMARK    1  A    between atoms: C_1  and  C_2
REMARK    2  A    between atoms: C_5  and  C_9
REMARK    3  A    between atoms: C_6  and  C_8
REMARK    4  A    between atoms: C_9  and  N_10
REMARK    5  A    between atoms: C_11  and  C_13
REMARK    6  A    between atoms: C_24  and  C_26
REMARK    7  A    between atoms: C_27  and  C_37
REMARK    8  A    between atoms: C_30  and  C_31
REMARK                            x       y       z     vdW  Elec       q    Type
REMARK                         _______ _______ _______ _____ _____    ______ ____
ROOT
ATOM      1  C   UNL     1      -2.909  -6.633   0.512  0.00  0.00    +0.100 C 
ATOM      2  C   UNL     1      -3.887  -6.094  -0.557  0.00  0.00    +0.121 C 
ATOM      3  N   UNL     1      -3.942  -7.160  -1.585  0.00  0.00    -0.296 N 
ATOM      4  C   UNL     1      -3.935  -8.422  -0.808  0.00  0.00    +0.115 C 
ATOM      5  C   UNL     1      -2.946  -8.161   0.346  0.00  0.00    -0.004 C 
ATOM      6  C   UNL     1      -3.445  -8.820   1.629  0.00  0.00    -0.010 C 
ATOM      7  C   UNL     1      -3.417 -10.341   1.460  0.00  0.00    -0.082 C 
ATOM      8  N   UNL     1      -2.048 -10.778   1.163  0.00  0.00    +0.379 N 
ATOM      9  C   UNL     1      -1.610 -10.214  -0.120  0.00  0.00    -0.082 C 
ATOM     10  C   UNL     1      -1.561  -8.687  -0.018  0.00  0.00    -0.010 C 
ATOM     11  C   UNL     1      -3.990  -7.014  -2.924  0.00  0.00    +0.252 C 
ATOM     12  O   UNL     1      -4.033  -7.996  -3.641  0.00  0.00    -0.270 OA
ATOM     13  H   UNL     1      -1.430 -10.463   1.896  0.00  0.00    -0.086 HD
ATOM     14  H   UNL     1      -2.021 -11.785   1.112  0.00  0.00    -0.086 HD
ENDROOT
BRANCH  11  15
ATOM     15  C   UNL     1      -3.990  -5.667  -3.519  0.00  0.00    +0.106 A 
ATOM     16  C   UNL     1      -2.896  -4.943  -3.893  0.00  0.00    +0.147 A 
ATOM     17  O   UNL     1      -3.315  -3.776  -4.388  0.00  0.00    -0.359 OA
ATOM     18  N   UNL     1      -4.727  -3.724  -4.340  0.00  0.00    -0.077 NA
ATOM     19  C   UNL     1      -5.169  -4.845  -3.829  0.00  0.00    +0.126 A 
ATOM     20  C   UNL     1      -1.460  -5.385  -3.770  0.00  0.00    +0.090 C 
BRANCH  19  21
ATOM     21  C   UNL     1      -6.588  -5.214  -3.603  0.00  0.00    +0.004 A 
ATOM     22  C   UNL     1      -6.998  -6.538  -3.752  0.00  0.00    +0.010 A 
ATOM     23  C   UNL     1      -8.319  -6.876  -3.540  0.00  0.00    +0.001 A 
ATOM     24  C   UNL     1      -9.235  -5.904  -3.181  0.00  0.00    +0.000 A 
ATOM     25  C   UNL     1      -8.834  -4.589  -3.032  0.00  0.00    +0.001 A 
ATOM     26  C   UNL     1      -7.514  -4.240  -3.236  0.00  0.00    +0.010 A 
ENDBRANCH  19  21
ENDBRANCH  11  15
BRANCH   1  28
ATOM     27  N   UNL     1      -0.656  -5.968   1.286  0.00  0.00    -0.311 N 
ATOM     28  C   UNL     1      -1.518  -6.111   0.260  0.00  0.00    +0.218 C 
ATOM     29  O   UNL     1      -1.174  -5.820  -0.866  0.00  0.00    -0.275 OA
ATOM     30  H   UNL     1      -0.931  -6.200   2.187  0.00  0.00    +0.149 HD
BRANCH  27  31
ATOM     31  C   UNL     1       0.696  -5.460   1.042  0.00  0.00    +0.139 C 
BRANCH  31  36
ATOM     32  C   UNL     1       3.591  -5.215   6.037  0.00  0.00    +0.044 C 
ATOM     33  C   UNL     1       2.836  -5.279   4.734  0.00  0.00    -0.050 A 
ATOM     34  C   UNL     1       2.274  -4.133   4.204  0.00  0.00    +0.004 A 
ATOM     35  C   UNL     1       1.582  -4.191   3.009  0.00  0.00    +0.006 A 
ATOM     36  C   UNL     1       1.452  -5.396   2.344  0.00  0.00    -0.027 A 
ATOM     37  C   UNL     1       2.014  -6.542   2.874  0.00  0.00    -0.046 A 
ATOM     38  C   UNL     1       2.710  -6.483   4.067  0.00  0.00    +0.007 A 
ATOM     39  C   UNL     1       1.872  -7.856   2.149  0.00  0.00    +0.044 C 
ENDBRANCH  31  36
ENDBRANCH  27  31
ENDBRANCH   1  28
TORSDOF 5
