REMARK  Name = ZINC49166173
REMARK  5 active torsions:
REMARK  status: ('A' for Active; 'I' for Inactive)
REMARK    1  A    between atoms: C_1  and  C_2
REMARK    2  A    between atoms: C_2  and  N_3
REMARK    3  A    between atoms: N_6  and  N_7
REMARK    4  A    between atoms: C_8  and  C_10
REMARK    5  A    between atoms: C_11  and  C_12
REMARK                            x       y       z     vdW  Elec       q    Type
REMARK                         _______ _______ _______ _____ _____    ______ ____
ROOT
ATOM      1  N   UNL     1       1.969  -1.311  -3.456  0.00  0.00    -0.230 N 
ATOM      2  C   UNL     1       2.600  -1.745  -4.565  0.00  0.00    +0.253 C 
ATOM      3  O   UNL     1       2.725  -2.940  -4.765  0.00  0.00    -0.269 OA
ATOM      4  H   UNL     1       1.869  -0.359  -3.296  0.00  0.00    +0.173 HD
ENDROOT
BRANCH   1   8
ATOM      5  N   UNL     1       0.688  -0.476  -1.203  0.00  0.00    -0.298 N 
ATOM      6  C   UNL     1       0.827  -1.799  -1.425  0.00  0.00    +0.316 C 
ATOM      7  O   UNL     1       0.383  -2.599  -0.625  0.00  0.00    -0.251 OA
ATOM      8  N   UNL     1       1.458  -2.233  -2.534  0.00  0.00    -0.218 N 
ATOM      9  H   UNL     1       1.042   0.162  -1.842  0.00  0.00    +0.150 HD
ATOM     10  H   UNL     1       1.558  -3.185  -2.693  0.00  0.00    +0.174 HD
BRANCH   5  12
ATOM     11  C   UNL     1      -0.019   1.526   0.010  0.00  0.00    +0.024 C 
ATOM     12  C   UNL     1       0.002  -0.004   0.002  0.00  0.00    +0.102 C 
ENDBRANCH   5  12
ENDBRANCH   1   8
BRANCH   2  13
ATOM     13  C   UNL     1       3.116  -0.814  -5.496  0.00  0.00    +0.072 C 
ATOM     14  C   UNL     1       3.751  -1.251  -6.613  0.00  0.00    +0.051 C 
BRANCH  14  15
ATOM     15  C   UNL     1       4.268  -0.319  -7.544  0.00  0.00    +0.129 A 
ATOM     16  C   UNL     1       4.927  -0.623  -8.718  0.00  0.00    +0.050 A 
ATOM     17  C   UNL     1       5.257   0.601  -9.319  0.00  0.00    +0.056 A 
ATOM     18  C   UNL     1       4.796   1.581  -8.509  0.00  0.00    +0.165 A 
ATOM     19  O   UNL     1       4.198   1.025  -7.446  0.00  0.00    -0.450 OA
ATOM     20  I   UNL     1       4.982   3.638  -8.862  0.00  0.00    -0.001 I 
ENDBRANCH  14  15
ENDBRANCH   2  13
TORSDOF 4
