REMARK  Name = ZINC08916122
REMARK  9 active torsions:
REMARK  status: ('A' for Active; 'I' for Inactive)
REMARK    1  A    between atoms: C_1  and  C_2
REMARK    2  A    between atoms: C_4  and  O_10
REMARK    3  A    between atoms: C_6  and  C_9
REMARK    4  A    between atoms: O_10  and  C_11
REMARK    5  A    between atoms: C_11  and  C_13
REMARK    6  A    between atoms: C_11  and  C_14
REMARK    7  A    between atoms: N_16  and  C_17
REMARK    8  A    between atoms: N_16  and  C_25
REMARK    9  A    between atoms: C_17  and  C_18
REMARK                            x       y       z     vdW  Elec       q    Type
REMARK                         _______ _______ _______ _____ _____    ______ ____
ROOT
ATOM      1  C   UNL     1      -0.966   0.304   1.726  0.00  0.00    +0.257 C 
ATOM      2  O   UNL     1      -1.742   0.192   0.801  0.00  0.00    -0.272 OA
ATOM      3  N   UNL     1       0.159   1.033   1.576  0.00  0.00    -0.289 N 
ENDROOT
BRANCH   3   4
ATOM      4  C   UNL     1       0.399   1.762   0.329  0.00  0.00    +0.099 C 
ATOM      5  C   UNL     1      -0.738   2.772   0.088  0.00  0.00    +0.047 C 
ATOM      6  C   UNL     1      -0.668   3.310  -1.361  0.00  0.00    +0.168 C 
ATOM      7  S   UNL     1       0.116   1.918  -2.272  0.00  0.00    -0.029 S 
ATOM      8  O   UNL     1       1.365   2.351  -2.793  0.00  0.00    -0.174 OA
ATOM      9  O   UNL     1      -0.844   1.338  -3.145  0.00  0.00    -0.174 OA
ATOM     10  C   UNL     1       0.420   0.766  -0.866  0.00  0.00    +0.188 C 
ENDBRANCH   3   4
BRANCH   1  11
ATOM     11  C   UNL     1      -1.258  -0.370   3.042  0.00  0.00    +0.256 C 
ATOM     12  C   UNL     1      -2.026   0.593   3.949  0.00  0.00    +0.062 C 
BRANCH  11  13
ATOM     13  O   UNL     1      -2.045  -1.540   2.813  0.00  0.00    -0.480 OA
BRANCH  13  17
ATOM     14  C   UNL     1      -3.232  -6.053   4.244  0.00  0.00    +0.045 C 
ATOM     15  C   UNL     1      -2.538  -4.736   4.481  0.00  0.00    -0.028 A 
ATOM     16  C   UNL     1      -2.612  -3.736   3.530  0.00  0.00    +0.050 A 
ATOM     17  C   UNL     1      -1.974  -2.524   3.747  0.00  0.00    +0.122 A 
ATOM     18  C   UNL     1      -1.256  -2.321   4.917  0.00  0.00    +0.050 A 
ATOM     19  C   UNL     1      -1.188  -3.321   5.868  0.00  0.00    -0.028 A 
ATOM     20  C   UNL     1      -1.827  -4.529   5.649  0.00  0.00    +0.047 A 
ATOM     21 CL   UNL     1      -1.734  -5.786   6.842  0.00  0.00    -0.083 Cl
ATOM     22  C   UNL     1      -0.414  -3.098   7.141  0.00  0.00    +0.045 C 
ENDBRANCH  13  17
ENDBRANCH  11  13
ENDBRANCH   1  11
BRANCH   3  23
ATOM     23  C   UNL     1       1.141   1.095   2.662  0.00  0.00    +0.143 C 
BRANCH  23  24
ATOM     24  C   UNL     1       0.895   2.329   3.491  0.00  0.00    -0.027 A 
ATOM     25  C   UNL     1       0.920   3.577   2.897  0.00  0.00    +0.005 A 
ATOM     26  C   UNL     1       0.690   4.710   3.656  0.00  0.00    +0.003 A 
ATOM     27  C   UNL     1       0.446   4.596   5.011  0.00  0.00    +0.038 A 
ATOM     28  C   UNL     1       0.425   3.347   5.608  0.00  0.00    +0.124 A 
ATOM     29  C   UNL     1       0.651   2.213   4.846  0.00  0.00    +0.043 A 
ATOM     30  F   UNL     1       0.187   3.235   6.933  0.00  0.00    -0.205 F 
ENDBRANCH  23  24
ENDBRANCH   3  23
TORSDOF 6
