REMARK  Name = ZINC63376412
REMARK  4 active torsions:
REMARK  status: ('A' for Active; 'I' for Inactive)
REMARK    1  A    between atoms: C_1  and  C_2
REMARK    2  A    between atoms: C_6  and  C_7
REMARK    3  A    between atoms: C_13  and  C_16
REMARK    4  A    between atoms: C_19  and  C_22
REMARK                            x       y       z     vdW  Elec       q    Type
REMARK                         _______ _______ _______ _____ _____    ______ ____
ROOT
ATOM      1  C   UNL     1       0.029  -0.208   2.562  0.00  0.00    +0.189 A 
ATOM      2  N   UNL     1       0.009   1.052   2.928  0.00  0.00    -0.126 NA
ATOM      3  N   UNL     1       0.033   1.136   4.212  0.00  0.00    -0.120 NA
ATOM      4  C   UNL     1       0.086  -0.053   4.728  0.00  0.00    +0.211 A 
ATOM      5  N   UNL     1       0.050  -0.984   3.718  0.00  0.00    -0.220 N 
ATOM      6  N   UNL     1       0.026  -2.309   4.036  0.00  0.00    -0.265 N 
ATOM      7  C   UNL     1       0.534  -2.638   5.395  0.00  0.00    +0.182 C 
ATOM      8  S   UNL     1       0.187  -1.024   6.217  0.00  0.00    -0.058 S 
ATOM      9  H   UNL     1      -0.892  -2.700   3.889  0.00  0.00    +0.168 HD
ENDROOT
BRANCH   1  15
ATOM     10  C   UNL     1      -0.018   1.503   0.010  0.00  0.00    +0.045 C 
ATOM     11  C   UNL     1       0.002  -0.004   0.002  0.00  0.00    -0.033 A 
ATOM     12  C   UNL     1       0.006  -0.700  -1.186  0.00  0.00    +0.011 A 
ATOM     13  C   UNL     1       0.025  -2.058  -1.159  0.00  0.00    +0.046 A 
ATOM     14  S   UNL     1       0.038  -2.397   0.594  0.00  0.00    -0.093 S 
ATOM     15  C   UNL     1       0.023  -0.710   1.178  0.00  0.00    +0.061 A 
ENDBRANCH   1  15
BRANCH   7  16
ATOM     16  C   UNL     1       2.034  -2.941   5.377  0.00  0.00    +0.185 C 
ATOM     17  C   UNL     1       2.495  -3.447   6.732  0.00  0.00    +0.034 C 
ATOM     18  C   UNL     1       2.951  -4.688   6.475  0.00  0.00    +0.091 C 
ATOM     19  N   UNL     1       2.820  -4.977   5.154  0.00  0.00    -0.154 NA
ATOM     20  N   UNL     1       2.326  -4.069   4.476  0.00  0.00    -0.177 NA
BRANCH  18  21
ATOM     21  C   UNL     1       3.518  -5.609   7.491  0.00  0.00    +0.002 A 
ATOM     22  C   UNL     1       3.602  -5.213   8.825  0.00  0.00    +0.010 A 
ATOM     23  C   UNL     1       4.130  -6.074   9.765  0.00  0.00    +0.001 A 
ATOM     24  C   UNL     1       4.574  -7.328   9.387  0.00  0.00    +0.000 A 
ATOM     25  C   UNL     1       4.493  -7.726   8.065  0.00  0.00    +0.001 A 
ATOM     26  C   UNL     1       3.963  -6.875   7.117  0.00  0.00    +0.010 A 
ENDBRANCH  18  21
ENDBRANCH   7  16
TORSDOF 3
