REMARK  Name = ZINC21798865
REMARK  5 active torsions:
REMARK  status: ('A' for Active; 'I' for Inactive)
REMARK    1  A    between atoms: C_1  and  C_2
REMARK    2  A    between atoms: C_4  and  N_19
REMARK    3  A    between atoms: C_8  and  C_12
REMARK    4  A    between atoms: C_9  and  C_11
REMARK    5  A    between atoms: N_19  and  C_20
REMARK                            x       y       z     vdW  Elec       q    Type
REMARK                         _______ _______ _______ _____ _____    ______ ____
ROOT
ATOM      1  C   UNL     1       5.503   2.228  -0.038  0.00  0.00    +0.066 C 
ATOM      2  C   UNL     1       4.003   2.074  -0.025  0.00  0.00    +0.044 A 
ATOM      3  C   UNL     1       3.190   3.207  -0.011  0.00  0.00    +0.066 A 
ATOM      4  C   UNL     1       1.820   3.052   0.001  0.00  0.00    +0.124 A 
ATOM      5  N   UNL     1       1.299   1.785  -0.001  0.00  0.00    -0.200 N 
ATOM      6  C   UNL     1       2.142   0.705  -0.015  0.00  0.00    +0.166 A 
ATOM      7  N   UNL     1       3.468   0.872  -0.026  0.00  0.00    -0.232 NA
ATOM      8  C   UNL     1       1.333  -0.438  -0.013  0.00  0.00    +0.049 A 
ATOM      9  C   UNL     1       0.002  -0.004   0.002  0.00  0.00    +0.070 A 
ATOM     10  N   UNL     1      -0.016   1.306   0.009  0.00  0.00    -0.168 NA
ATOM     11  C   UNL     1      -1.212  -0.897   0.008  0.00  0.00    +0.068 C 
ENDROOT
BRANCH   8  12
ATOM     12  C   UNL     1       1.799  -1.844  -0.025  0.00  0.00    -0.012 A 
ATOM     13  C   UNL     1       2.518  -2.353   1.056  0.00  0.00    +0.011 A 
ATOM     14  C   UNL     1       2.946  -3.664   1.042  0.00  0.00    +0.039 A 
ATOM     15  C   UNL     1       2.671  -4.473  -0.049  0.00  0.00    +0.123 A 
ATOM     16  C   UNL     1       1.960  -3.972  -1.128  0.00  0.00    +0.039 A 
ATOM     17  C   UNL     1       1.524  -2.663  -1.121  0.00  0.00    +0.011 A 
ATOM     18  F   UNL     1       3.096  -5.755  -0.061  0.00  0.00    -0.205 F 
ENDBRANCH   8  12
BRANCH   4  19
ATOM     19  N   UNL     1       0.990   4.152   0.015  0.00  0.00    -0.326 N 
ATOM     20  H   UNL     1      -0.102   4.017   0.025  0.00  0.00    +0.148 HD
BRANCH  19  21
ATOM     21  C   UNL     1       1.561   5.501   0.017  0.00  0.00    +0.072 C 
ATOM     22  C   UNL     1       1.849   5.951   1.464  0.00  0.00    +0.022 C 
ATOM     23  C   UNL     1       1.502   7.461   1.468  0.00  0.00    +0.002 C 
ATOM     24  C   UNL     1       0.254   7.528   0.553  0.00  0.00    +0.002 C 
ATOM     25  C   UNL     1       0.548   6.503  -0.562  0.00  0.00    +0.022 C 
ENDBRANCH  19  21
ENDBRANCH   4  19
TORSDOF 3
