REMARK  Name = ZINC06409931
REMARK  8 active torsions:
REMARK  status: ('A' for Active; 'I' for Inactive)
REMARK    1  A    between atoms: C_1  and  C_2
REMARK    2  A    between atoms: C_7  and  C_14
REMARK    3  A    between atoms: C_14  and  C_16
REMARK    4  A    between atoms: C_14  and  N_70
REMARK    5  A    between atoms: N_20  and  C_21
REMARK    6  A    between atoms: C_21  and  C_22
REMARK    7  A    between atoms: C_30  and  C_33
REMARK    8  A    between atoms: C_33  and  C_34
REMARK                            x       y       z     vdW  Elec       q    Type
REMARK                         _______ _______ _______ _____ _____    ______ ____
ROOT
ATOM      1  C   UNL     1      -4.864   1.368   0.379  0.00  0.00    +0.039 C 
ENDROOT
BRANCH   1   8
ATOM      2  C   UNL     1       2.438   4.420   1.374  0.00  0.00    +0.044 C 
ATOM      3  C   UNL     1       1.168   3.640   1.149  0.00  0.00    -0.048 A 
ATOM      4  C   UNL     1       1.236   2.282   0.869  0.00  0.00    +0.004 A 
ATOM      5  C   UNL     1       0.097   1.557   0.663  0.00  0.00    +0.010 A 
ATOM      6  C   UNL     1      -1.149   2.189   0.729  0.00  0.00    -0.001 A 
ATOM      7  C   UNL     1      -2.390   1.441   0.516  0.00  0.00    +0.017 A 
ATOM      8  C   UNL     1      -3.569   2.107   0.597  0.00  0.00    +0.011 A 
ATOM      9  C   UNL     1      -3.587   3.488   0.884  0.00  0.00    +0.251 A 
ATOM     10  O   UNL     1      -4.658   4.067   0.952  0.00  0.00    -0.268 OA
ATOM     11  N   UNL     1      -2.453   4.182   1.085  0.00  0.00    -0.322 N 
ATOM     12  H   UNL     1      -2.502   5.131   1.280  0.00  0.00    +0.169 HD
ATOM     13  C   UNL     1      -1.223   3.565   1.017  0.00  0.00    +0.049 A 
ATOM     14  C   UNL     1      -0.049   4.283   1.224  0.00  0.00    +0.029 A 
ENDBRANCH   1   8
BRANCH   1  20
ATOM     15  C   UNL     1      -4.838   2.294  -1.858  0.00  0.00    -0.077 C 
ATOM     16  C   UNL     1      -5.640   3.133  -2.856  0.00  0.00    -0.015 C 
ATOM     17  C   UNL     1      -6.924   2.386  -3.227  0.00  0.00    -0.010 C 
ATOM     18  C   UNL     1      -7.727   2.104  -1.954  0.00  0.00    -0.015 C 
ATOM     19  C   UNL     1      -6.865   1.295  -0.982  0.00  0.00    -0.077 C 
ATOM     20  N   UNL     1      -5.657   2.078  -0.646  0.00  0.00    +0.389 N 
ATOM     21  H   UNL     1      -5.945   2.990  -0.272  0.00  0.00    -0.080 HD
BRANCH  17  22
ATOM     22  C   UNL     1      -7.759   3.247  -4.178  0.00  0.00    +0.038 C 
BRANCH  22  23
ATOM     23  C   UNL     1      -7.018   3.422  -5.478  0.00  0.00    -0.047 A 
ATOM     24  C   UNL     1      -6.158   4.491  -5.646  0.00  0.00    +0.003 A 
ATOM     25  C   UNL     1      -5.476   4.649  -6.837  0.00  0.00    +0.000 A 
ATOM     26  C   UNL     1      -5.660   3.743  -7.865  0.00  0.00    +0.000 A 
ATOM     27  C   UNL     1      -6.524   2.677  -7.699  0.00  0.00    +0.000 A 
ATOM     28  C   UNL     1      -7.203   2.516  -6.506  0.00  0.00    +0.003 A 
ENDBRANCH  22  23
ENDBRANCH  17  22
ENDBRANCH   1  20
BRANCH   1  29
ATOM     29  C   UNL     1      -5.649   1.338   1.665  0.00  0.00    +0.143 A 
ATOM     30  N   UNL     1      -6.389   2.303   2.152  0.00  0.00    -0.115 NA
ATOM     31  N   UNL     1      -6.894   1.894   3.265  0.00  0.00    -0.023 NA
ATOM     32  N   UNL     1      -6.495   0.693   3.500  0.00  0.00    -0.044 NA
ATOM     33  N   UNL     1      -5.729   0.313   2.534  0.00  0.00    -0.226 N 
BRANCH  33  34
ATOM     34  C   UNL     1      -5.068  -0.989   2.407  0.00  0.00    +0.182 C 
BRANCH  34  35
ATOM     35  C   UNL     1      -6.018  -1.975   1.777  0.00  0.00    -0.026 A 
ATOM     36  C   UNL     1      -6.864  -2.724   2.573  0.00  0.00    +0.005 A 
ATOM     37  C   UNL     1      -7.739  -3.626   1.995  0.00  0.00    +0.000 A 
ATOM     38  C   UNL     1      -7.760  -3.785   0.622  0.00  0.00    +0.000 A 
ATOM     39  C   UNL     1      -6.910  -3.039  -0.173  0.00  0.00    +0.000 A 
ATOM     40  C   UNL     1      -6.039  -2.134   0.404  0.00  0.00    +0.005 A 
ENDBRANCH  34  35
ENDBRANCH  33  34
ENDBRANCH   1  29
TORSDOF 7
