REMARK  Name = ZINC38924526
REMARK  6 active torsions:
REMARK  status: ('A' for Active; 'I' for Inactive)
REMARK    1  A    between atoms: C_1  and  N_2
REMARK    2  A    between atoms: C_3  and  C_5
REMARK    3  A    between atoms: C_5  and  C_6
REMARK    4  A    between atoms: C_12  and  C_14
REMARK    5  A    between atoms: C_16  and  C_27
REMARK    6  A    between atoms: N_17  and  C_19
REMARK                            x       y       z     vdW  Elec       q    Type
REMARK                         _______ _______ _______ _____ _____    ______ ____
ROOT
ATOM      1  C   UNL     1       1.750  -2.619  -8.270  0.00  0.00    +0.148 A 
ATOM      2  C   UNL     1       2.445  -3.111  -9.395  0.00  0.00    +0.065 A 
ATOM      3  C   UNL     1       1.830  -2.543 -10.480  0.00  0.00    +0.105 A 
ATOM      4  N   UNL     1       0.824  -1.757  -9.994  0.00  0.00    -0.255 N 
ATOM      5  N   UNL     1       0.797  -1.822  -8.712  0.00  0.00    -0.166 NA
ENDROOT
BRANCH   1  12
ATOM      6  C   UNL     1       1.311  -2.657  -2.266  0.00  0.00    +0.059 A 
ATOM      7  C   UNL     1       2.363  -3.509  -2.194  0.00  0.00    +0.072 A 
ATOM      8  S   UNL     1       2.750  -3.707  -3.926  0.00  0.00    -0.060 S 
ATOM      9  C   UNL     1       1.552  -2.702  -4.548  0.00  0.00    +0.165 A 
ATOM     10  N   UNL     1       0.928  -2.277  -3.471  0.00  0.00    -0.229 NA
ATOM     11  N   UNL     1       1.284  -2.400  -5.877  0.00  0.00    -0.259 N 
ATOM     12  C   UNL     1       2.035  -2.941  -6.857  0.00  0.00    +0.270 C 
ATOM     13  O   UNL     1       2.948  -3.693  -6.577  0.00  0.00    -0.268 OA
ATOM     14  H   UNL     1       0.556  -1.799  -6.100  0.00  0.00    +0.157 HD
BRANCH   6  15
ATOM     15  C   UNL     1       0.606  -2.171  -1.026  0.00  0.00    +0.151 C 
BRANCH  15  18
ATOM     16  C   UNL     1      -0.018   1.461   0.010  0.00  0.00    +0.128 C 
ATOM     17  N   UNL     1       0.002  -0.004   0.002  0.00  0.00    -0.318 N 
ATOM     18  C   UNL     1       0.585  -0.664  -1.018  0.00  0.00    +0.219 C 
ATOM     19  O   UNL     1       1.093  -0.046  -1.929  0.00  0.00    -0.275 OA
ATOM     20  H   UNL     1      -0.404  -0.499   0.731  0.00  0.00    +0.148 HD
ENDBRANCH  15  18
ENDBRANCH   6  15
ENDBRANCH   1  12
BRANCH   4  21
ATOM     21  C   UNL     1      -0.092  -0.961 -10.815  0.00  0.00    +0.130 C 
ATOM     22  C   UNL     1      -1.537  -1.415 -10.555  0.00  0.00    +0.051 C 
ATOM     23  C   UNL     1      -2.496  -0.365 -11.184  0.00  0.00    +0.168 C 
ATOM     24  S   UNL     1      -1.630   1.197 -10.731  0.00  0.00    -0.029 S 
ATOM     25  O   UNL     1      -2.148   1.672  -9.497  0.00  0.00    -0.174 OA
ATOM     26  O   UNL     1      -1.611   2.060 -11.860  0.00  0.00    -0.174 OA
ATOM     27  C   UNL     1       0.063   0.536 -10.453  0.00  0.00    +0.192 C 
ENDBRANCH   4  21
BRANCH   3  28
ATOM     28  C   UNL     1       2.185  -2.741 -11.896  0.00  0.00    +0.153 A 
ATOM     29  C   UNL     1       3.124  -3.605 -12.371  0.00  0.00    +0.051 A 
ATOM     30  C   UNL     1       3.131  -3.466 -13.773  0.00  0.00    +0.042 A 
ATOM     31  C   UNL     1       2.207  -2.535 -14.082  0.00  0.00    +0.196 A 
ATOM     32  O   UNL     1       1.633  -2.104 -12.947  0.00  0.00    -0.461 OA
ENDBRANCH   3  28
TORSDOF 5
