REMARK  Name = ZINC05229290
REMARK  6 active torsions:
REMARK  status: ('A' for Active; 'I' for Inactive)
REMARK    1  A    between atoms: C_4  and  O_8
REMARK    2  A    between atoms: O_8  and  C_9
REMARK    3  A    between atoms: C_9  and  C_10
REMARK    4  A    between atoms: C_10  and  S_11
REMARK    5  A    between atoms: S_11  and  C_12
REMARK    6  A    between atoms: C_16  and  N_18
REMARK                            x       y       z     vdW  Elec       q    Type
REMARK                         _______ _______ _______ _____ _____    ______ ____
ROOT
ATOM      1  S   UNL     1       0.095   1.009  -2.721  0.00  0.00    -0.083 S 
ENDROOT
BRANCH   1   2
ATOM      2  C   UNL     1      -0.940   1.718  -3.959  0.00  0.00    +0.192 A 
ATOM      3  N   UNL     1      -1.991   2.434  -3.589  0.00  0.00    -0.207 NA
ATOM      4  C   UNL     1      -2.791   2.989  -4.496  0.00  0.00    +0.122 A 
ATOM      5  C   UNL     1      -2.517   2.799  -5.848  0.00  0.00    +0.086 A 
ATOM      6  C   UNL     1      -1.407   2.036  -6.198  0.00  0.00    +0.122 A 
ATOM      7  N   UNL     1      -0.648   1.516  -5.236  0.00  0.00    -0.207 NA
ATOM      8  N   UNL     1      -3.886   3.742  -4.101  0.00  0.00    -0.343 N 
ATOM      9  H   UNL     1      -4.467   4.141  -4.767  0.00  0.00    +0.144 HD
ATOM     10  H   UNL     1      -4.071   3.870  -3.157  0.00  0.00    +0.144 HD
BRANCH   6  11
ATOM     11  N   UNL     1      -1.095   1.821  -7.531  0.00  0.00    -0.343 N 
ATOM     12  H   UNL     1      -0.320   1.289  -7.768  0.00  0.00    +0.144 HD
ATOM     13  H   UNL     1      -1.653   2.203  -8.227  0.00  0.00    +0.144 HD
ENDBRANCH   6  11
ENDBRANCH   1   2
BRANCH   1  14
ATOM     14  C   UNL     1      -0.753   1.593  -1.232  0.00  0.00    +0.118 C 
BRANCH  14  15
ATOM     15  C   UNL     1      -0.013   1.086   0.008  0.00  0.00    +0.240 C 
BRANCH  15  16
ATOM     16  O   UNL     1      -0.682   1.547   1.184  0.00  0.00    -0.488 OA
BRANCH  16  20
ATOM     17  C   UNL     1       0.937   0.440   4.816  0.00  0.00    +0.003 A 
ATOM     18  C   UNL     1       1.344   1.612   4.207  0.00  0.00    +0.024 A 
ATOM     19  C   UNL     1       0.804   1.986   2.991  0.00  0.00    +0.084 A 
ATOM     20  C   UNL     1      -0.149   1.182   2.380  0.00  0.00    +0.157 A 
ATOM     21  C   UNL     1      -0.560   0.008   2.996  0.00  0.00    +0.084 A 
ATOM     22  C   UNL     1      -0.013  -0.363   4.210  0.00  0.00    +0.024 A 
ATOM     23 CL   UNL     1      -1.757  -0.996   2.239  0.00  0.00    -0.080 Cl
ATOM     24 CL   UNL     1       1.316   3.458   2.228  0.00  0.00    -0.080 Cl
ENDBRANCH  16  20
ENDBRANCH  15  16
ENDBRANCH  14  15
ENDBRANCH   1  14
TORSDOF 6
