REMARK  Name = ZINC46671070
REMARK  6 active torsions:
REMARK  status: ('A' for Active; 'I' for Inactive)
REMARK    1  A    between atoms: C_1  and  C_2
REMARK    2  A    between atoms: C_5  and  C_7
REMARK    3  A    between atoms: N_9  and  C_10
REMARK    4  A    between atoms: C_14  and  C_16
REMARK    5  A    between atoms: C_16  and  N_18
REMARK    6  A    between atoms: N_25  and  C_28
REMARK                            x       y       z     vdW  Elec       q    Type
REMARK                         _______ _______ _______ _____ _____    ______ ____
ROOT
ATOM      1  C   UNL     1       2.445   0.352   4.348  0.00  0.00    +0.034 A 
ATOM      2  C   UNL     1       2.297   1.734   4.345  0.00  0.00    +0.023 A 
ATOM      3  C   UNL     1       2.793   2.489   5.391  0.00  0.00    +0.003 A 
ATOM      4  C   UNL     1       3.438   1.875   6.446  0.00  0.00    +0.013 A 
ATOM      5  C   UNL     1       3.591   0.488   6.458  0.00  0.00    +0.041 A 
ATOM      6  C   UNL     1       3.086  -0.274   5.406  0.00  0.00    +0.036 A 
ENDROOT
BRANCH   1   9
ATOM      7  C   UNL     1       2.577  -1.531   2.901  0.00  0.00    +0.221 C 
ATOM      8  O   UNL     1       3.636  -1.833   3.408  0.00  0.00    -0.275 OA
ATOM      9  N   UNL     1       1.940  -0.407   3.287  0.00  0.00    -0.285 N 
ATOM     10  H   UNL     1       1.133  -0.126   2.829  0.00  0.00    +0.155 HD
BRANCH   7  14
ATOM     11  C   UNL     1       4.068  -3.944   2.158  0.00  0.00    +0.008 C 
ATOM     12  C   UNL     1       2.742  -3.674   1.444  0.00  0.00    -0.002 C 
ATOM     13  C   UNL     1       2.686  -2.482   0.486  0.00  0.00    +0.017 C 
ATOM     14  C   UNL     1       1.972  -2.413   1.838  0.00  0.00    +0.078 C 
ENDBRANCH   7  14
ENDBRANCH   1   9
BRANCH   5  15
ATOM     15  C   UNL     1       4.283  -0.173   7.589  0.00  0.00    +0.269 C 
ATOM     16  O   UNL     1       4.415  -1.385   7.598  0.00  0.00    -0.268 OA
BRANCH  15  17
ATOM     17  N   UNL     1       4.761   0.557   8.598  0.00  0.00    -0.152 NA
ATOM     18  C   UNL     1       5.384  -0.037   9.615  0.00  0.00    +0.164 A 
ATOM     19  N   UNL     1       5.928   0.534  10.723  0.00  0.00    -0.339 N 
ATOM     20  C   UNL     1       6.530  -0.256  11.663  0.00  0.00    +0.030 A 
ATOM     21  C   UNL     1       6.528  -1.572  11.393  0.00  0.00    +0.026 A 
ATOM     22  S   UNL     1       5.681  -1.679   9.843  0.00  0.00    -0.056 S 
ATOM     23  C   UNL     1       7.112  -2.661  12.232  0.00  0.00    +0.128 C 
ATOM     24  N   UNL     1       8.001  -2.043  13.235  0.00  0.00    -0.300 NA
ATOM     25  C   UNL     1       7.326  -0.925  13.909  0.00  0.00    +0.090 C 
ATOM     26  C   UNL     1       7.173   0.256  12.946  0.00  0.00    +0.069 C 
ATOM     27  C   UNL     1       8.469  -3.039  14.207  0.00  0.00    +0.105 C 
ATOM     28  H   UNL     1       5.889   1.495  10.846  0.00  0.00    +0.167 HD
ENDBRANCH  15  17
ENDBRANCH   5  15
TORSDOF 4
