REMARK  Name = ZINC05047450
REMARK  6 active torsions:
REMARK  status: ('A' for Active; 'I' for Inactive)
REMARK    1  A    between atoms: C_1  and  C_2
REMARK    2  A    between atoms: C_5  and  C_12
REMARK    3  A    between atoms: C_6  and  C_7
REMARK    4  A    between atoms: C_6  and  C_8
REMARK    5  A    between atoms: N_14  and  C_15
REMARK    6  A    between atoms: C_17  and  N_22
REMARK                            x       y       z     vdW  Elec       q    Type
REMARK                         _______ _______ _______ _____ _____    ______ ____
ROOT
ATOM      1  C   UNL     1       1.005  -3.262   1.617  0.00  0.00    +0.224 C 
ATOM      2  O   UNL     1       1.626  -2.982   2.621  0.00  0.00    -0.275 OA
ATOM      3  N   UNL     1       0.811  -4.553   1.282  0.00  0.00    -0.284 N 
ATOM      4  H   UNL     1       0.260  -4.777   0.516  0.00  0.00    +0.155 HD
ENDROOT
BRANCH   1   9
ATOM      5  C   UNL     1      -0.055   1.526   0.035  0.00  0.00    +0.019 C 
ATOM      6  C   UNL     1      -0.026  -0.004   0.022  0.00  0.00    +0.032 C 
ATOM      7  C   UNL     1      -1.415  -0.710   0.087  0.00  0.00    +0.016 C 
ATOM      8  C   UNL     1      -1.100  -2.144   0.573  0.00  0.00    +0.018 C 
ATOM      9  C   UNL     1       0.450  -2.165   0.745  0.00  0.00    +0.060 C 
ATOM     10  C   UNL     1       0.708  -0.693   1.225  0.00  0.00    -0.009 C 
ATOM     11  C   UNL     1       2.199  -0.352   1.261  0.00  0.00    +0.013 C 
ATOM     12  C   UNL     1       0.025  -0.396   2.562  0.00  0.00    +0.013 C 
ATOM     13  C   UNL     1       1.000  -2.081  -0.712  0.00  0.00    +0.091 C 
ATOM     14  C   UNL     1       0.700  -0.649  -1.167  0.00  0.00    +0.141 C 
ATOM     15  O   UNL     1       0.957  -0.140  -2.232  0.00  0.00    -0.297 OA
ENDBRANCH   1   9
BRANCH   3  16
ATOM     16  C   UNL     1       1.405  -5.569   2.039  0.00  0.00    +0.050 A 
ATOM     17  C   UNL     1       1.555  -5.418   3.411  0.00  0.00    +0.057 A 
ATOM     18  C   UNL     1       2.141  -6.423   4.155  0.00  0.00    +0.128 A 
ATOM     19  C   UNL     1       2.580  -7.578   3.535  0.00  0.00    +0.034 A 
ATOM     20  C   UNL     1       2.433  -7.732   2.169  0.00  0.00    +0.019 A 
ATOM     21  C   UNL     1       1.842  -6.734   1.419  0.00  0.00    +0.039 A 
ATOM     22 BR   UNL     1       1.634  -6.948  -0.448  0.00  0.00    -0.048 Br
BRANCH  18  23
ATOM     23  N   UNL     1       2.301  -6.262   5.618  0.00  0.00    +0.056 N 
ATOM     24  O   UNL     1       1.917  -5.252   6.160  0.00  0.00    -0.126 OA
ATOM     25  O   UNL     1       2.814  -7.141   6.270  0.00  0.00    -0.126 OA
ENDBRANCH  18  23
ENDBRANCH   3  16
TORSDOF 3
