REMARK  Name = ZINC49569297
REMARK  6 active torsions:
REMARK  status: ('A' for Active; 'I' for Inactive)
REMARK    1  A    between atoms: C_1  and  C_2
REMARK    2  A    between atoms: C_2  and  C_3
REMARK    3  A    between atoms: C_3  and  C_4
REMARK    4  A    between atoms: N_8  and  C_9
REMARK    5  A    between atoms: C_14  and  O_15
REMARK    6  A    between atoms: O_15  and  C_16
REMARK                            x       y       z     vdW  Elec       q    Type
REMARK                         _______ _______ _______ _____ _____    ______ ____
ROOT
ATOM      1  C   UNL     1       0.739  -2.004  -1.265  0.00  0.00    +0.139 A 
ATOM      2  N   UNL     1       1.660  -2.767  -0.748  0.00  0.00    -0.133 NA
ATOM      3  N   UNL     1       1.365  -4.004  -0.933  0.00  0.00    -0.121 NA
ATOM      4  C   UNL     1       0.229  -4.101  -1.583  0.00  0.00    +0.207 A 
ATOM      5  N   UNL     1      -0.211  -2.826  -1.812  0.00  0.00    -0.270 N 
ATOM      6  S   UNL     1      -0.580  -5.590  -2.065  0.00  0.00    -0.009 SA
ENDROOT
BRANCH   5   7
ATOM      7  C   UNL     1      -1.388  -2.440  -2.472  0.00  0.00    +0.093 A 
ATOM      8  C   UNL     1      -1.382  -2.241  -3.845  0.00  0.00    +0.045 A 
ATOM      9  C   UNL     1      -2.542  -1.861  -4.493  0.00  0.00    +0.020 A 
ATOM     10  C   UNL     1      -3.711  -1.678  -3.775  0.00  0.00    +0.019 A 
ATOM     11  C   UNL     1      -3.724  -1.875  -2.407  0.00  0.00    +0.049 A 
ATOM     12  C   UNL     1      -2.566  -2.262  -1.751  0.00  0.00    +0.144 A 
ATOM     13 BR   UNL     1      -2.532  -1.590  -6.364  0.00  0.00    -0.050 Br
BRANCH  12  14
ATOM     14  O   UNL     1      -2.579  -2.461  -0.407  0.00  0.00    -0.493 OA
ATOM     15  C   UNL     1      -3.822  -2.260   0.268  0.00  0.00    +0.277 C 
ENDBRANCH  12  14
ENDBRANCH   5   7
BRANCH   1  16
ATOM     16  C   UNL     1       0.718  -0.497  -1.257  0.00  0.00    +0.076 C 
BRANCH  16  18
ATOM     17  C   UNL     1      -0.019   1.526   0.010  0.00  0.00    +0.004 C 
ATOM     18  C   UNL     1       0.002  -0.004   0.002  0.00  0.00    +0.004 C 
ENDBRANCH  16  18
ENDBRANCH   1  16
TORSDOF 4
