REMARK  Name = ZINC28120845
REMARK  10 active torsions:
REMARK  status: ('A' for Active; 'I' for Inactive)
REMARK    1  A    between atoms: C_1  and  C_2
REMARK    2  A    between atoms: C_2  and  C_3
REMARK    3  A    between atoms: C_8  and  C_27
REMARK    4  A    between atoms: C_9  and  C_24
REMARK    5  A    between atoms: C_12  and  C_15
REMARK    6  A    between atoms: C_13  and  O_14
REMARK    7  A    between atoms: C_15  and  N_16
REMARK    8  A    between atoms: C_20  and  C_23
REMARK    9  A    between atoms: C_24  and  C_25
REMARK   10  A    between atoms: C_24  and  C_26
REMARK                            x       y       z     vdW  Elec       q    Type
REMARK                         _______ _______ _______ _____ _____    ______ ____
ROOT
ATOM      1  C   UNL     1       4.823   1.379   0.090  0.00  0.00    -0.005 A 
ATOM      2  C   UNL     1       3.646   2.066  -0.011  0.00  0.00    +0.022 A 
ATOM      3  C   UNL     1       2.437   1.371  -0.008  0.00  0.00    +0.065 A 
ATOM      4  C   UNL     1       1.148   2.080  -0.117  0.00  0.00    +0.202 A 
ATOM      5  O   UNL     1       1.092   3.293  -0.212  0.00  0.00    -0.286 OA
ATOM      6  C   UNL     1      -0.069   1.248  -0.104  0.00  0.00    +0.093 A 
ATOM      7  C   UNL     1       0.064  -0.103   0.006  0.00  0.00    +0.122 A 
ATOM      8  O   UNL     1       1.252  -0.701   0.102  0.00  0.00    -0.458 OA
ATOM      9  C   UNL     1       2.422  -0.030   0.099  0.00  0.00    +0.144 A 
ATOM     10  C   UNL     1       3.626  -0.713   0.201  0.00  0.00    +0.021 A 
ATOM     11  C   UNL     1       4.819  -0.009   0.197  0.00  0.00    +0.125 A 
ENDROOT
BRANCH   6  12
ATOM     12  C   UNL     1      -1.405   1.867  -0.214  0.00  0.00    +0.116 A 
ATOM     13  N   UNL     1      -2.578   1.282  -0.331  0.00  0.00    -0.239 NA
ATOM     14  C   UNL     1      -3.729   1.980  -0.418  0.00  0.00    +0.079 A 
ATOM     15  C   UNL     1      -5.047   1.479  -0.542  0.00  0.00    +0.029 A 
ATOM     16  C   UNL     1      -6.109   2.325  -0.624  0.00  0.00    +0.002 A 
ATOM     17  C   UNL     1      -5.947   3.703  -0.591  0.00  0.00    +0.001 A 
ATOM     18  C   UNL     1      -4.675   4.233  -0.471  0.00  0.00    +0.017 A 
ATOM     19  C   UNL     1      -3.597   3.388  -0.387  0.00  0.00    +0.040 A 
ATOM     20  S   UNL     1      -1.840   3.600  -0.229  0.00  0.00    -0.067 S 
ENDBRANCH   6  12
BRANCH   7  21
ATOM     21  C   UNL     1      -1.179  -0.955   0.020  0.00  0.00    +0.050 C 
ATOM     22  C   UNL     1      -1.536  -1.360  -1.412  0.00  0.00    +0.015 C 
ATOM     23  C   UNL     1      -0.928  -2.210   0.858  0.00  0.00    +0.015 C 
ENDBRANCH   7  21
BRANCH   1  25
ATOM     24  C   UNL     1       6.695   2.162  -1.335  0.00  0.00    +0.009 C 
ATOM     25  C   UNL     1       6.131   2.128   0.086  0.00  0.00    +0.035 C 
ENDBRANCH   1  25
BRANCH  11  26
ATOM     26  O   UNL     1       5.995  -0.679   0.297  0.00  0.00    -0.506 OA
ATOM     27  H   UNL     1       5.998  -1.776   0.382  0.00  0.00    +0.292 HD
ENDBRANCH  11  26
BRANCH  10  28
ATOM     28  C   UNL     1       3.636  -2.216   0.318  0.00  0.00    -0.036 C 
BRANCH  28  29
ATOM     29  N   UNL     1       3.696  -2.810  -1.024  0.00  0.00    +0.383 N 
ATOM     30  C   UNL     1       4.706  -2.140  -1.852  0.00  0.00    -0.078 C 
ATOM     31  C   UNL     1       4.640  -2.685  -3.281  0.00  0.00    -0.018 C 
ATOM     32  C   UNL     1       4.892  -4.195  -3.258  0.00  0.00    -0.001 C 
ATOM     33  C   UNL     1       3.856  -4.864  -2.350  0.00  0.00    -0.031 C 
ATOM     34  C   UNL     1       3.945  -4.255  -0.948  0.00  0.00    -0.075 C 
ATOM     35  C   UNL     1       4.137  -6.366  -2.274  0.00  0.00    +0.005 C 
ATOM     36  H   UNL     1       2.717  -2.663  -1.505  0.00  0.00    -0.081 HD
ENDBRANCH  28  29
ENDBRANCH  10  28
TORSDOF 6
