REMARK  Name = ZINC20644466
REMARK  4 active torsions:
REMARK  status: ('A' for Active; 'I' for Inactive)
REMARK    1  A    between atoms: N_14  and  C_17
REMARK    2  A    between atoms: C_17  and  C_18
REMARK    3  A    between atoms: C_18  and  C_19
REMARK    4  A    between atoms: N_24  and  C_27
REMARK                            x       y       z     vdW  Elec       q    Type
REMARK                         _______ _______ _______ _____ _____    ______ ____
ROOT
ATOM      1  C   UNL     1      -0.017   1.376   0.010  0.00  0.00    +0.065 A 
ATOM      2  C   UNL     1       1.187   2.082   0.002  0.00  0.00    +0.067 A 
ATOM      3  C   UNL     1       2.411   1.389  -0.014  0.00  0.00    +0.057 A 
ATOM      4  C   UNL     1       2.418   0.005  -0.020  0.00  0.00    +0.076 A 
ATOM      5  C   UNL     1       1.220  -0.692  -0.011  0.00  0.00    +0.168 A 
ATOM      6  C   UNL     1       0.002  -0.004   0.002  0.00  0.00    +0.167 A 
ATOM      7  O   UNL     1      -1.013  -0.918   0.006  0.00  0.00    -0.453 OA
ATOM      8  C   UNL     1      -0.415  -2.157  -0.420  0.00  0.00    +0.466 C 
ATOM      9  O   UNL     1       0.961  -2.031  -0.014  0.00  0.00    -0.453 OA
ATOM     10  N   UNL     1       3.592   2.121  -0.022  0.00  0.00    -0.334 N 
ATOM     11  H   UNL     1       4.444   1.658  -0.034  0.00  0.00    +0.168 HD
ATOM     12  C   UNL     1       3.564   3.465  -0.015  0.00  0.00    +0.161 A 
ATOM     13  S   UNL     1       5.050   4.315  -0.025  0.00  0.00    -0.013 S 
ATOM     14  N   UNL     1       2.421   4.168   0.000  0.00  0.00    -0.288 N 
ATOM     15  C   UNL     1       1.219   3.553   0.009  0.00  0.00    +0.262 A 
ATOM     16  O   UNL     1       0.189   4.199   0.023  0.00  0.00    -0.267 OA
ENDROOT
BRANCH  14  17
ATOM     17  C   UNL     1       2.479   5.632   0.008  0.00  0.00    +0.136 C 
BRANCH  17  18
ATOM     18  C   UNL     1       2.485   6.149  -1.432  0.00  0.00    +0.117 C 
BRANCH  18  19
ATOM     19  C   UNL     1       2.545   7.655  -1.425  0.00  0.00    +0.217 C 
ATOM     20  O   UNL     1       2.579   8.255  -0.371  0.00  0.00    -0.276 OA
ATOM     21  N   UNL     1       2.560   8.335  -2.588  0.00  0.00    -0.299 N 
ATOM     22  C   UNL     1       2.513   7.627  -3.877  0.00  0.00    +0.123 C 
ATOM     23  C   UNL     1       1.396   8.240  -4.728  0.00  0.00    +0.103 C 
ATOM     24  N   UNL     1       1.598   9.691  -4.824  0.00  0.00    -0.296 NA
ATOM     25  C   UNL     1       1.503  10.331  -3.505  0.00  0.00    +0.103 C 
ATOM     26  C   UNL     1       2.618   9.805  -2.603  0.00  0.00    +0.123 C 
BRANCH  24  27
ATOM     27  C   UNL     1       0.650  10.293  -5.771  0.00  0.00    +0.057 C 
ATOM     28  C   UNL     1       0.852   9.678  -7.157  0.00  0.00    +0.019 C 
ATOM     29  C   UNL     1      -0.135  10.304  -8.143  0.00  0.00    +0.002 C 
ATOM     30  C   UNL     1       0.105  11.814  -8.215  0.00  0.00    +0.000 C 
ATOM     31  C   UNL     1      -0.097  12.430  -6.830  0.00  0.00    +0.002 C 
ATOM     32  C   UNL     1       0.891  11.803  -5.843  0.00  0.00    +0.019 C 
ENDBRANCH  24  27
ENDBRANCH  18  19
ENDBRANCH  17  18
ENDBRANCH  14  17
TORSDOF 4
