REMARK  Name = ZINC18158376
REMARK  4 active torsions:
REMARK  status: ('A' for Active; 'I' for Inactive)
REMARK    1  A    between atoms: C_1  and  C_2
REMARK    2  A    between atoms: N_4  and  C_21
REMARK    3  A    between atoms: C_7  and  C_9
REMARK    4  A    between atoms: N_10  and  C_11
REMARK                            x       y       z     vdW  Elec       q    Type
REMARK                         _______ _______ _______ _____ _____    ______ ____
ROOT
ATOM      1  C   UNL     1      -0.351   1.886   0.406  0.00  0.00    +0.063 C 
ATOM      2  C   UNL     1      -0.133   0.423   0.120  0.00  0.00    +0.052 C 
ATOM      3  N   UNL     1      -0.062  -0.121  -1.032  0.00  0.00    -0.181 NA
ATOM      4  N   UNL     1       0.147  -1.496  -0.977  0.00  0.00    -0.160 N 
ATOM      5  C   UNL     1       0.225  -1.924   0.300  0.00  0.00    +0.253 C 
ATOM      6  O   UNL     1       0.402  -3.060   0.689  0.00  0.00    -0.272 OA
ATOM      7  C   UNL     1       0.051  -0.676   1.145  0.00  0.00    +0.164 C 
ENDROOT
BRANCH   4   8
ATOM      8  C   UNL     1       0.261  -2.325  -2.099  0.00  0.00    +0.060 A 
ATOM      9  C   UNL     1       0.463  -3.690  -1.938  0.00  0.00    +0.025 A 
ATOM     10  C   UNL     1       0.575  -4.505  -3.047  0.00  0.00    +0.002 A 
ATOM     11  C   UNL     1       0.486  -3.964  -4.316  0.00  0.00    +0.000 A 
ATOM     12  C   UNL     1       0.284  -2.606  -4.480  0.00  0.00    +0.002 A 
ATOM     13  C   UNL     1       0.165  -1.786  -3.375  0.00  0.00    +0.025 A 
ENDBRANCH   4   8
BRANCH   7  14
ATOM     14  C   UNL     1       1.279  -0.423   1.981  0.00  0.00    +0.103 C 
ATOM     15  N   UNL     1       1.171  -0.282   3.261  0.00  0.00    -0.257 NA
BRANCH  15  16
ATOM     16  C   UNL     1       2.295  -0.162   4.034  0.00  0.00    +0.089 A 
ATOM     17  C   UNL     1       3.352  -1.044   3.872  0.00  0.00    +0.030 A 
ATOM     18  C   UNL     1       4.497  -0.930   4.651  0.00  0.00    +0.003 A 
ATOM     19  C   UNL     1       4.612   0.048   5.593  0.00  0.00    +0.010 A 
ATOM     20  C   UNL     1       3.565   0.963   5.789  0.00  0.00    +0.002 A 
ATOM     21  C   UNL     1       2.392   0.868   5.002  0.00  0.00    +0.096 A 
ATOM     22  N   UNL     1       1.397   1.738   5.182  0.00  0.00    -0.253 NA
ATOM     23  C   UNL     1       1.480   2.694   6.077  0.00  0.00    +0.111 A 
ATOM     24  C   UNL     1       2.607   2.848   6.881  0.00  0.00    +0.020 A 
ATOM     25  C   UNL     1       3.657   1.984   6.754  0.00  0.00    +0.011 A 
ENDBRANCH  15  16
ENDBRANCH   7  14
TORSDOF 3
