REMARK  Name = ZINC64943865
REMARK  3 active torsions:
REMARK  status: ('A' for Active; 'I' for Inactive)
REMARK    1  A    between atoms: C_6  and  C_7
REMARK    2  A    between atoms: N_9  and  C_10
REMARK    3  A    between atoms: C_10  and  C_11
REMARK                            x       y       z     vdW  Elec       q    Type
REMARK                         _______ _______ _______ _____ _____    ______ ____
ROOT
ATOM      1  C   UNL     1      -1.260  -0.772   0.010  0.00  0.00    +0.247 C 
ATOM      2  O   UNL     1      -1.231  -1.988   0.004  0.00  0.00    -0.270 OA
ATOM      3  N   UNL     1      -2.442  -0.126   0.026  0.00  0.00    -0.311 N 
ATOM      4  H   UNL     1      -2.465   0.844   0.031  0.00  0.00    +0.149 HD
ENDROOT
BRANCH   1  10
ATOM      5  C   UNL     1      -0.017   1.396   0.010  0.00  0.00    +0.019 A 
ATOM      6  C   UNL     1       1.191   2.069   0.002  0.00  0.00    +0.041 A 
ATOM      7  C   UNL     1       2.372   1.344  -0.013  0.00  0.00    +0.131 A 
ATOM      8  N   UNL     1       2.360   0.023  -0.020  0.00  0.00    -0.223 NA
ATOM      9  C   UNL     1       1.235  -0.662  -0.013  0.00  0.00    +0.143 A 
ATOM     10  C   UNL     1       0.002  -0.004   0.002  0.00  0.00    +0.074 A 
ATOM     11 CL   UNL     1       1.284  -2.398  -0.023  0.00  0.00    -0.061 Cl
ATOM     12 CL   UNL     1       3.890   2.185  -0.024  0.00  0.00    -0.062 Cl
ENDBRANCH   1  10
BRANCH   3  13
ATOM     13  C   UNL     1      -3.693  -0.887   0.034  0.00  0.00    +0.108 C 
BRANCH  13  14
ATOM     14  C   UNL     1      -4.879   0.079   0.051  0.00  0.00    +0.010 C 
ATOM     15  C   UNL     1      -6.190  -0.711  -0.040  0.00  0.00    +0.009 C 
ATOM     16  C   UNL     1      -7.344   0.281  -0.201  0.00  0.00    +0.027 C 
ATOM     17  C   UNL     1      -7.242   1.364   0.834  0.00  0.00    -0.031 C 
ATOM     18  C   UNL     1      -6.169   1.622   1.510  0.00  0.00    -0.031 C 
ATOM     19  C   UNL     1      -4.880   0.869   1.361  0.00  0.00    +0.032 C 
ENDBRANCH  13  14
ENDBRANCH   3  13
TORSDOF 3
