REMARK  Name = ZINC00919703
REMARK  8 active torsions:
REMARK  status: ('A' for Active; 'I' for Inactive)
REMARK    1  A    between atoms: C_1  and  C_2
REMARK    2  A    between atoms: C_2  and  N_3
REMARK    3  A    between atoms: C_5  and  C_9
REMARK    4  A    between atoms: C_6  and  C_8
REMARK    5  A    between atoms: C_9  and  N_10
REMARK    6  A    between atoms: C_11  and  C_13
REMARK    7  A    between atoms: C_18  and  C_29
REMARK    8  A    between atoms: C_21  and  C_24
REMARK                            x       y       z     vdW  Elec       q    Type
REMARK                         _______ _______ _______ _____ _____    ______ ____
ROOT
ATOM      1  C   UNL     1       6.653  -1.257  -4.165  0.00  0.00    +0.149 A 
ATOM      2  C   UNL     1       7.890  -1.713  -4.674  0.00  0.00    +0.078 A 
ATOM      3  C   UNL     1       8.686  -0.637  -4.832  0.00  0.00    +0.119 A 
ATOM      4  N   UNL     1       7.988   0.470  -4.441  0.00  0.00    -0.238 N 
ATOM      5  N   UNL     1       6.721   0.056  -4.034  0.00  0.00    -0.164 NA
ATOM      6  C   UNL     1       8.534   1.830  -4.478  0.00  0.00    +0.215 C 
ATOM      7  C   UNL     1       9.735   1.857  -5.430  0.00  0.00    +0.066 C 
ATOM      8  C   UNL     1      10.699   0.716  -5.087  0.00  0.00    +0.140 C 
ATOM      9  N   UNL     1      10.001  -0.568  -5.301  0.00  0.00    -0.319 N 
ATOM     10  H   UNL     1      10.431  -1.319  -5.740  0.00  0.00    +0.148 HD
ENDROOT
BRANCH   8  11
ATOM     11  C   UNL     1      11.127   0.830  -3.647  0.00  0.00    +0.125 A 
ATOM     12  C   UNL     1      12.287   1.353  -3.210  0.00  0.00    +0.046 A 
ATOM     13  C   UNL     1      12.273   1.260  -1.799  0.00  0.00    +0.041 A 
ATOM     14  C   UNL     1      11.105   0.685  -1.458  0.00  0.00    +0.195 A 
ATOM     15  O   UNL     1      10.413   0.433  -2.581  0.00  0.00    -0.466 OA
ENDBRANCH   8  11
BRANCH   1  17
ATOM     16  N   UNL     1       4.356  -1.537  -3.366  0.00  0.00    -0.306 N 
ATOM     17  C   UNL     1       5.484  -2.101  -3.842  0.00  0.00    +0.264 C 
ATOM     18  O   UNL     1       5.540  -3.305  -4.006  0.00  0.00    -0.268 OA
ATOM     19  H   UNL     1       4.312  -0.577  -3.236  0.00  0.00    +0.149 HD
BRANCH  16  20
ATOM     20  C   UNL     1       3.198  -2.374  -3.046  0.00  0.00    +0.143 C 
BRANCH  20  23
ATOM     21  N   UNL     1       0.688  -0.476  -1.203  0.00  0.00    -0.271 N 
ATOM     22  C   UNL     1       1.740  -1.321  -1.239  0.00  0.00    +0.113 A 
ATOM     23  C   UNL     1       2.076  -1.506  -2.536  0.00  0.00    +0.010 A 
ATOM     24  C   UNL     1       1.200  -0.749  -3.321  0.00  0.00    +0.065 A 
ATOM     25  N   UNL     1       0.363  -0.136  -2.523  0.00  0.00    -0.176 NA
ATOM     26  C   UNL     1       1.213  -0.660  -4.825  0.00  0.00    +0.068 C 
BRANCH  21  28
ATOM     27  C   UNL     1      -0.019   1.526   0.010  0.00  0.00    +0.029 C 
ATOM     28  C   UNL     1       0.002  -0.004   0.002  0.00  0.00    +0.140 C 
ENDBRANCH  21  28
ENDBRANCH  20  23
ENDBRANCH  16  20
ENDBRANCH   1  17
BRANCH   6  29
ATOM     29  C   UNL     1       7.460   2.800  -4.975  0.00  0.00    +0.412 C 
ATOM     30  F   UNL     1       6.361   2.762  -4.111  0.00  0.00    -0.168 F 
ATOM     31  F   UNL     1       7.983   4.097  -5.009  0.00  0.00    -0.168 F 
ATOM     32  F   UNL     1       7.054   2.427  -6.261  0.00  0.00    -0.168 F 
ENDBRANCH   6  29
TORSDOF 6
