REMARK  Name = ZINC01853245
REMARK  9 active torsions:
REMARK  status: ('A' for Active; 'I' for Inactive)
REMARK    1  A    between atoms: C_1  and  C_2
REMARK    2  A    between atoms: C_2  and  C_3
REMARK    3  A    between atoms: C_2  and  C_4
REMARK    4  A    between atoms: C_4  and  C_5
REMARK    5  A    between atoms: C_8  and  C_11
REMARK    6  A    between atoms: C_11  and  C_13
REMARK    7  A    between atoms: C_15  and  C_38
REMARK    8  A    between atoms: C_38  and  C_40
REMARK    9  A    between atoms: C_44  and  N_46
REMARK                            x       y       z     vdW  Elec       q    Type
REMARK                         _______ _______ _______ _____ _____    ______ ____
ROOT
ATOM      1  C   UNL     1      -1.314  -7.124   0.742  0.00  0.00    +0.110 C 
ATOM      2  C   UNL     1      -2.745  -7.455   1.255  0.00  0.00    +0.157 C 
ATOM      3  N   UNL     1      -2.563  -8.693   2.016  0.00  0.00    -0.311 N 
ATOM      4  C   UNL     1      -3.206  -9.131   3.166  0.00  0.00    +0.038 A 
ATOM      5  C   UNL     1      -4.527  -8.870   3.455  0.00  0.00    +0.024 A 
ATOM      6  C   UNL     1      -5.083  -9.367   4.622  0.00  0.00    +0.002 A 
ATOM      7  C   UNL     1      -4.319 -10.125   5.493  0.00  0.00    +0.001 A 
ATOM      8  C   UNL     1      -2.991 -10.389   5.219  0.00  0.00    +0.010 A 
ATOM      9  C   UNL     1      -2.417  -9.889   4.056  0.00  0.00    -0.004 A 
ATOM     10  C   UNL     1      -0.993 -10.104   3.731  0.00  0.00    +0.007 C 
ATOM     11  C   UNL     1      -0.533  -9.908   2.499  0.00  0.00    -0.003 C 
ATOM     12  C   UNL     1      -1.459  -9.464   1.400  0.00  0.00    +0.117 C 
ATOM     13  C   UNL     1      -0.769  -8.529   0.409  0.00  0.00    +0.108 C 
ATOM     14  C   UNL     1       0.717  -8.580   0.501  0.00  0.00    -0.008 A 
ATOM     15  C   UNL     1       1.585  -8.344   1.545  0.00  0.00    +0.006 A 
ATOM     16  C   UNL     1       2.944  -8.481   1.281  0.00  0.00    +0.000 A 
ATOM     17  C   UNL     1       3.400  -8.839   0.029  0.00  0.00    +0.002 A 
ATOM     18  C   UNL     1       2.534  -9.080  -1.026  0.00  0.00    +0.023 A 
ATOM     19  C   UNL     1       1.168  -8.946  -0.775  0.00  0.00    +0.038 A 
ATOM     20  N   UNL     1       0.096  -9.124  -1.633  0.00  0.00    -0.284 N 
ATOM     21  C   UNL     1      -1.086  -8.899  -1.018  0.00  0.00    +0.231 C 
ATOM     22  O   UNL     1      -2.189  -8.979  -1.517  0.00  0.00    -0.274 OA
ATOM     23  H   UNL     1       0.183  -9.380  -2.564  0.00  0.00    +0.155 HD
ENDROOT
BRANCH   1  24
ATOM     24  C   UNL     1      -1.368  -6.260  -0.491  0.00  0.00    +0.170 C 
ATOM     25  O   UNL     1      -2.032  -6.606  -1.445  0.00  0.00    -0.292 OA
BRANCH  24  29
ATOM     26  C   UNL     1       0.798  -2.616  -0.624  0.00  0.00    -0.047 A 
ATOM     27  C   UNL     1       0.043  -3.008  -1.715  0.00  0.00    +0.004 A 
ATOM     28  C   UNL     1      -0.664  -4.191  -1.680  0.00  0.00    +0.011 A 
ATOM     29  C   UNL     1      -0.616  -4.996  -0.537  0.00  0.00    +0.018 A 
ATOM     30  C   UNL     1       0.150  -4.593   0.561  0.00  0.00    +0.011 A 
ATOM     31  C   UNL     1       0.856  -3.410   0.508  0.00  0.00    +0.004 A 
BRANCH  26  32
ATOM     32  C   UNL     1       1.568  -1.321  -0.671  0.00  0.00    +0.038 C 
BRANCH  32  34
ATOM     33  C   UNL     1       3.705  -0.249  -1.397  0.00  0.00    +0.007 C 
ATOM     34  C   UNL     1       2.967  -1.579  -1.233  0.00  0.00    -0.013 C 
ATOM     35  C   UNL     1       3.746  -2.478  -0.269  0.00  0.00    +0.007 C 
ENDBRANCH  32  34
ENDBRANCH  26  32
ENDBRANCH  24  29
ENDBRANCH   1  24
BRANCH   2  36
ATOM     36  C   UNL     1      -3.257  -6.352   2.145  0.00  0.00    +0.184 C 
ATOM     37  O   UNL     1      -3.214  -6.476   3.350  0.00  0.00    -0.290 OA
BRANCH  36  38
ATOM     38  C   UNL     1      -3.809  -5.123   1.552  0.00  0.00    +0.021 A 
ATOM     39  C   UNL     1      -3.865  -4.978   0.162  0.00  0.00    +0.011 A 
ATOM     40  C   UNL     1      -4.384  -3.824  -0.387  0.00  0.00    +0.003 A 
ATOM     41  C   UNL     1      -4.848  -2.811   0.435  0.00  0.00    +0.033 A 
ATOM     42  C   UNL     1      -4.795  -2.947   1.811  0.00  0.00    +0.127 A 
ATOM     43  C   UNL     1      -4.285  -4.098   2.375  0.00  0.00    +0.044 A 
BRANCH  42  44
ATOM     44  N   UNL     1      -5.293  -1.858   2.680  0.00  0.00    +0.056 N 
ATOM     45  O   UNL     1      -5.745  -0.850   2.188  0.00  0.00    -0.126 OA
ATOM     46  O   UNL     1      -5.248  -1.975   3.882  0.00  0.00    -0.126 OA
ENDBRANCH  42  44
ENDBRANCH  36  38
ENDBRANCH   2  36
TORSDOF 7
