REMARK  Name = ZINC39669678
REMARK  11 active torsions:
REMARK  status: ('A' for Active; 'I' for Inactive)
REMARK    1  A    between atoms: C_1  and  C_2
REMARK    2  A    between atoms: C_2  and  C_3
REMARK    3  A    between atoms: C_3  and  C_4
REMARK    4  A    between atoms: C_3  and  C_6
REMARK    5  A    between atoms: C_4  and  C_5
REMARK    6  A    between atoms: C_10  and  C_19
REMARK    7  A    between atoms: N_21  and  C_22
REMARK    8  A    between atoms: C_22  and  C_23
REMARK    9  A    between atoms: C_23  and  C_24
REMARK   10  A    between atoms: C_23  and  C_25
REMARK   11  A    between atoms: C_23  and  N_26
REMARK                            x       y       z     vdW  Elec       q    Type
REMARK                         _______ _______ _______ _____ _____    ______ ____
ROOT
ATOM      1  C   UNL     1       1.479  -2.386   1.330  0.00  0.00    +0.219 C 
ATOM      2  O   UNL     1       1.145  -3.206   2.159  0.00  0.00    -0.275 OA
ATOM      3  N   UNL     1       2.078  -2.786   0.191  0.00  0.00    -0.300 N 
ATOM      4  C   UNL     1       2.560  -1.941  -0.927  0.00  0.00    +0.121 C 
ATOM      5  C   UNL     1       3.892  -2.591  -1.362  0.00  0.00    +0.100 C 
ATOM      6  C   UNL     1       3.783  -4.055  -0.902  0.00  0.00    -0.004 C 
ATOM      7  C   UNL     1       2.410  -4.170  -0.224  0.00  0.00    +0.115 C 
ATOM      8  C   UNL     1       3.862  -4.994  -2.102  0.00  0.00    -0.010 C 
ATOM      9  C   UNL     1       3.809  -6.444  -1.614  0.00  0.00    -0.082 C 
ATOM     10  N   UNL     1       4.928  -6.694  -0.697  0.00  0.00    +0.379 N 
ATOM     11  C   UNL     1       4.794  -5.853   0.498  0.00  0.00    -0.082 C 
ATOM     12  C   UNL     1       4.888  -4.378   0.099  0.00  0.00    -0.010 C 
ATOM     13  H   UNL     1       4.927  -7.666  -0.425  0.00  0.00    -0.086 HD
ATOM     14  H   UNL     1       5.797  -6.479  -1.163  0.00  0.00    -0.086 HD
ENDROOT
BRANCH   5  15
ATOM     15  C   UNL     1       4.046  -2.520  -2.860  0.00  0.00    +0.218 C 
ATOM     16  O   UNL     1       3.064  -2.447  -3.568  0.00  0.00    -0.275 OA
ATOM     17  N   UNL     1       5.276  -2.537  -3.412  0.00  0.00    -0.313 N 
ATOM     18  H   UNL     1       6.061  -2.595  -2.846  0.00  0.00    +0.149 HD
BRANCH  17  19
ATOM     19  C   UNL     1       5.426  -2.467  -4.868  0.00  0.00    +0.126 C 
BRANCH  19  20
ATOM     20  C   UNL     1       6.902  -2.629  -5.237  0.00  0.00    +0.032 C 
ATOM     21  C   UNL     1       7.390  -4.009  -4.792  0.00  0.00    +0.029 C 
ATOM     22  C   UNL     1       7.066  -2.494  -6.752  0.00  0.00    +0.029 C 
BRANCH  20  23
ATOM     23  N   UNL     1       7.691  -1.589  -4.564  0.00  0.00    -0.291 NA
ATOM     24  C   UNL     1       7.139  -0.253  -4.830  0.00  0.00    +0.113 C 
ATOM     25  C   UNL     1       7.954   0.792  -4.063  0.00  0.00    +0.175 C 
ATOM     26  O   UNL     1       9.329   0.689  -4.442  0.00  0.00    -0.377 OA
ATOM     27  C   UNL     1       9.899  -0.599  -4.196  0.00  0.00    +0.175 C 
ATOM     28  C   UNL     1       9.104  -1.659  -4.964  0.00  0.00    +0.113 C 
ENDBRANCH  20  23
ENDBRANCH  19  20
ENDBRANCH  17  19
ENDBRANCH   5  15
BRANCH   1  29
ATOM     29  C   UNL     1       1.224  -0.921   1.573  0.00  0.00    +0.075 C 
BRANCH  29  31
ATOM     30  C   UNL     1       0.166   1.142   0.643  0.00  0.00    +0.004 C 
ATOM     31  C   UNL     1       0.322  -0.370   0.468  0.00  0.00    +0.009 C 
ENDBRANCH  29  31
BRANCH  29  32
ATOM     32  C   UNL     1       0.538  -0.741   2.929  0.00  0.00    +0.009 C 
ATOM     33  C   UNL     1       1.500  -1.153   4.046  0.00  0.00    +0.004 C 
ENDBRANCH  29  32
ENDBRANCH   1  29
TORSDOF 7
