REMARK  Name = ZINC39661679
REMARK  7 active torsions:
REMARK  status: ('A' for Active; 'I' for Inactive)
REMARK    1  A    between atoms: C_5  and  C_7
REMARK    2  A    between atoms: C_11  and  C_20
REMARK    3  A    between atoms: N_22  and  C_23
REMARK    4  A    between atoms: C_23  and  C_24
REMARK    5  A    between atoms: C_24  and  C_25
REMARK    6  A    between atoms: C_28  and  O_32
REMARK    7  A    between atoms: C_29  and  O_31
REMARK                            x       y       z     vdW  Elec       q    Type
REMARK                         _______ _______ _______ _____ _____    ______ ____
ROOT
ATOM      1  C   UNL     1       1.354  -2.439  -0.124  0.00  0.00    +0.248 C 
ATOM      2  O   UNL     1       2.357  -3.114  -0.251  0.00  0.00    -0.270 OA
ATOM      3  N   UNL     1       0.154  -3.037   0.022  0.00  0.00    -0.296 N 
ATOM      4  C   UNL     1      -1.179  -2.393   0.083  0.00  0.00    +0.121 C 
ATOM      5  C   UNL     1      -2.104  -3.335  -0.720  0.00  0.00    +0.100 C 
ATOM      6  C   UNL     1      -1.410  -4.706  -0.667  0.00  0.00    -0.004 C 
ATOM      7  C   UNL     1      -0.129  -4.486   0.150  0.00  0.00    +0.115 C 
ATOM      8  C   UNL     1      -1.057  -5.175  -2.075  0.00  0.00    -0.010 C 
ATOM      9  C   UNL     1      -0.420  -6.566  -2.000  0.00  0.00    -0.082 C 
ATOM     10  N   UNL     1      -1.359  -7.503  -1.372  0.00  0.00    +0.379 N 
ATOM     11  C   UNL     1      -1.622  -7.096   0.013  0.00  0.00    -0.082 C 
ATOM     12  C   UNL     1      -2.309  -5.727   0.024  0.00  0.00    -0.010 C 
ATOM     13  H   UNL     1      -2.225  -7.507  -1.890  0.00  0.00    -0.086 HD
ATOM     14  H   UNL     1      -0.962  -8.430  -1.379  0.00  0.00    -0.086 HD
ENDROOT
BRANCH   1  19
ATOM     15  C   UNL     1       0.701   1.171   0.672  0.00  0.00    +0.001 A 
ATOM     16  C   UNL     1       1.626   1.800  -0.143  0.00  0.00    +0.001 A 
ATOM     17  C   UNL     1       2.464   1.054  -0.951  0.00  0.00    +0.021 A 
ATOM     18  C   UNL     1       2.381  -0.325  -0.951  0.00  0.00    +0.053 A 
ATOM     19  C   UNL     1       1.449  -0.965  -0.131  0.00  0.00    +0.055 A 
ATOM     20  C   UNL     1       0.607  -0.204   0.683  0.00  0.00    +0.014 A 
ATOM     21 CL   UNL     1       3.433  -1.260  -1.968  0.00  0.00    -0.083 Cl
ENDBRANCH   1  19
BRANCH   5  22
ATOM     22  C   UNL     1      -2.225  -2.861  -2.146  0.00  0.00    +0.218 C 
ATOM     23  O   UNL     1      -1.306  -2.266  -2.667  0.00  0.00    -0.275 OA
ATOM     24  N   UNL     1      -3.355  -3.098  -2.841  0.00  0.00    -0.315 N 
ATOM     25  H   UNL     1      -4.090  -3.574  -2.424  0.00  0.00    +0.149 HD
BRANCH  24  26
ATOM     26  C   UNL     1      -3.473  -2.637  -4.227  0.00  0.00    +0.109 C 
BRANCH  26  27
ATOM     27  C   UNL     1      -4.843  -3.032  -4.781  0.00  0.00    +0.054 C 
BRANCH  27  28
ATOM     28  C   UNL     1      -4.964  -2.558  -6.206  0.00  0.00    -0.042 A 
ATOM     29  C   UNL     1      -5.469  -1.299  -6.474  0.00  0.00    +0.007 A 
ATOM     30  C   UNL     1      -5.582  -0.860  -7.780  0.00  0.00    +0.049 A 
ATOM     31  C   UNL     1      -5.188  -1.681  -8.824  0.00  0.00    +0.158 A 
ATOM     32  C   UNL     1      -4.679  -2.948  -8.554  0.00  0.00    +0.158 A 
ATOM     33  C   UNL     1      -4.564  -3.381  -7.243  0.00  0.00    +0.052 A 
BRANCH  32  34
ATOM     34  O   UNL     1      -4.291  -3.758  -9.576  0.00  0.00    -0.503 OA
ATOM     35  H   UNL     1      -3.363  -3.655  -9.828  0.00  0.00    +0.292 HD
ENDBRANCH  32  34
BRANCH  31  36
ATOM     36  O   UNL     1      -5.299  -1.250 -10.109  0.00  0.00    -0.503 OA
ATOM     37  H   UNL     1      -4.516  -0.789 -10.438  0.00  0.00    +0.292 HD
ENDBRANCH  31  36
ENDBRANCH  27  28
ENDBRANCH  26  27
ENDBRANCH  24  26
ENDBRANCH   5  22
TORSDOF 7
