REMARK  Name = ZINC39543053
REMARK  7 active torsions:
REMARK  status: ('A' for Active; 'I' for Inactive)
REMARK    1  A    between atoms: C_1  and  N_2
REMARK    2  A    between atoms: N_2  and  C_3
REMARK    3  A    between atoms: C_8  and  O_9
REMARK    4  A    between atoms: C_10  and  C_12
REMARK    5  A    between atoms: C_15  and  S_26
REMARK    6  A    between atoms: S_26  and  O_29
REMARK    7  A    between atoms: O_29  and  C_30
REMARK                            x       y       z     vdW  Elec       q    Type
REMARK                         _______ _______ _______ _____ _____    ______ ____
ROOT
ATOM      1  C   UNL     1      -0.047   0.515  -2.244  0.00  0.00    +0.150 C 
ATOM      2  C   UNL     1      -1.280   1.430  -2.361  0.00  0.00    +0.092 C 
ATOM      3  C   UNL     1      -2.086   0.822  -3.487  0.00  0.00    +0.142 C 
ATOM      4  C   UNL     1      -1.460  -0.229  -3.951  0.00  0.00    +0.100 C 
ATOM      5  N   UNL     1      -1.916  -1.078  -4.976  0.00  0.00    -0.302 N 
ATOM      6  C   UNL     1      -1.613  -2.438  -4.796  0.00  0.00    +0.037 A 
ATOM      7  C   UNL     1      -2.113  -3.380  -5.684  0.00  0.00    +0.023 A 
ATOM      8  C   UNL     1      -1.807  -4.716  -5.512  0.00  0.00    +0.002 A 
ATOM      9  C   UNL     1      -1.005  -5.108  -4.455  0.00  0.00    +0.000 A 
ATOM     10  C   UNL     1      -0.512  -4.171  -3.568  0.00  0.00    +0.007 A 
ATOM     11  C   UNL     1      -0.816  -2.829  -3.729  0.00  0.00    -0.010 A 
ATOM     12  C   UNL     1      -0.284  -1.834  -2.732  0.00  0.00    +0.124 C 
ATOM     13  N   UNL     1      -0.238  -0.486  -3.307  0.00  0.00    -0.368 NA
ATOM     14  H   UNL     1      -2.402  -0.749  -5.749  0.00  0.00    +0.153 HD
ATOM     15  H   UNL     1       0.518  -0.424  -3.971  0.00  0.00    +0.129 HD
ENDROOT
BRANCH   1  18
ATOM     16  C   UNL     1       2.304   0.576  -0.658  0.00  0.00    +0.138 C 
ATOM     17  N   UNL     1       1.132  -0.159  -0.176  0.00  0.00    -0.270 N 
ATOM     18  C   UNL     1      -0.010  -0.151  -0.893  0.00  0.00    +0.239 C 
ATOM     19  O   UNL     1      -1.008  -0.680  -0.450  0.00  0.00    -0.273 OA
BRANCH  17  20
ATOM     20  C   UNL     1       1.198  -0.871   1.029  0.00  0.00    +0.078 A 
ATOM     21  C   UNL     1       0.858  -0.250   2.222  0.00  0.00    +0.027 A 
ATOM     22  C   UNL     1       0.923  -0.954   3.410  0.00  0.00    +0.002 A 
ATOM     23  C   UNL     1       1.327  -2.276   3.413  0.00  0.00    +0.004 A 
ATOM     24  C   UNL     1       1.668  -2.901   2.227  0.00  0.00    +0.047 A 
ATOM     25  C   UNL     1       1.599  -2.205   1.032  0.00  0.00    +0.138 A 
BRANCH  25  26
ATOM     26  O   UNL     1       1.927  -2.820  -0.136  0.00  0.00    -0.505 OA
ATOM     27  H   UNL     1       2.862  -2.745  -0.370  0.00  0.00    +0.292 HD
ENDBRANCH  25  26
ENDBRANCH  17  20
ENDBRANCH   1  18
BRANCH   3  28
ATOM     28  S   UNL     1      -3.627   1.433  -4.082  0.00  0.00    +0.150 S 
ATOM     29  O   UNL     1      -3.535   2.851  -4.067  0.00  0.00    -0.132 OA
ATOM     30  O   UNL     1      -3.926   0.702  -5.262  0.00  0.00    -0.132 OA
BRANCH  28  31
ATOM     31  O   UNL     1      -4.687   1.056  -3.056  0.00  0.00    -0.342 OA
BRANCH  31  32
ATOM     32  C   UNL     1      -5.043  -0.255  -3.086  0.00  0.00    +0.157 A 
ATOM     33  C   UNL     1      -6.016  -0.690  -3.975  0.00  0.00    +0.048 A 
ATOM     34  C   UNL     1      -6.376  -2.023  -4.004  0.00  0.00    +0.004 A 
ATOM     35  C   UNL     1      -5.769  -2.924  -3.149  0.00  0.00    +0.000 A 
ATOM     36  C   UNL     1      -4.800  -2.493  -2.262  0.00  0.00    +0.004 A 
ATOM     37  C   UNL     1      -4.432  -1.161  -2.233  0.00  0.00    +0.048 A 
ENDBRANCH  31  32
ENDBRANCH  28  31
ENDBRANCH   3  28
TORSDOF 6
