REMARK  Name = ZINC06753053
REMARK  8 active torsions:
REMARK  status: ('A' for Active; 'I' for Inactive)
REMARK    1  A    between atoms: C_1  and  S_2
REMARK    2  A    between atoms: S_2  and  C_3
REMARK    3  A    between atoms: C_6  and  C_9
REMARK    4  A    between atoms: C_12  and  C_23
REMARK    5  A    between atoms: N_19  and  C_20
REMARK    6  A    between atoms: C_20  and  C_21
REMARK    7  A    between atoms: C_21  and  O_22
REMARK    8  A    between atoms: C_28  and  O_29
REMARK                            x       y       z     vdW  Elec       q    Type
REMARK                         _______ _______ _______ _____ _____    ______ ____
ROOT
ATOM      1  C   UNL     1      -5.530  -1.490   0.005  0.00  0.00    +0.141 C 
ATOM      2  C   UNL     1      -5.972  -1.856   1.396  0.00  0.00    +0.035 A 
ATOM      3  C   UNL     1      -5.991  -1.536   2.716  0.00  0.00    +0.075 A 
ATOM      4  N   UNL     1      -6.686  -2.526   3.349  0.00  0.00    -0.276 N 
ATOM      5  H   UNL     1      -6.859  -2.562   4.303  0.00  0.00    +0.189 HD
ATOM      6  N   UNL     1      -7.075  -3.403   2.494  0.00  0.00    -0.168 NA
ATOM      7  C   UNL     1      -6.683  -3.072   1.281  0.00  0.00    +0.153 A 
ATOM      8  C   UNL     1      -6.689  -3.459  -0.141  0.00  0.00    +0.268 C 
ATOM      9  O   UNL     1      -7.218  -4.460  -0.585  0.00  0.00    -0.268 OA
ATOM     10  N   UNL     1      -6.026  -2.550  -0.879  0.00  0.00    -0.283 N 
ENDROOT
BRANCH   1  14
ATOM     11  C   UNL     1      -1.264  -1.300  -0.177  0.00  0.00    +0.008 A 
ATOM     12  C   UNL     1      -2.016  -0.133  -0.226  0.00  0.00    +0.015 A 
ATOM     13  C   UNL     1      -3.394  -0.198  -0.167  0.00  0.00    +0.007 A 
ATOM     14  C   UNL     1      -4.026  -1.423  -0.059  0.00  0.00    -0.022 A 
ATOM     15  C   UNL     1      -3.281  -2.587  -0.009  0.00  0.00    +0.007 A 
ATOM     16  C   UNL     1      -1.903  -2.530  -0.074  0.00  0.00    +0.015 A 
BRANCH  11  18
ATOM     17  C   UNL     1       0.850   0.552  -0.378  0.00  0.00    +0.090 C 
ATOM     18  S   UNL     1       0.494  -1.222  -0.253  0.00  0.00    -0.129 S 
ENDBRANCH  11  18
ENDBRANCH   1  14
BRANCH   3  19
ATOM     19  C   UNL     1      -5.377  -0.345   3.345  0.00  0.00    +0.042 A 
ATOM     20  C   UNL     1      -4.320  -0.493   4.243  0.00  0.00    +0.013 A 
ATOM     21  C   UNL     1      -3.752   0.620   4.826  0.00  0.00    +0.001 A 
ATOM     22  C   UNL     1      -4.226   1.885   4.524  0.00  0.00    +0.004 A 
ATOM     23  C   UNL     1      -5.274   2.044   3.636  0.00  0.00    +0.046 A 
ATOM     24  C   UNL     1      -5.851   0.935   3.038  0.00  0.00    +0.126 A 
BRANCH  24  25
ATOM     25  O   UNL     1      -6.876   1.091   2.160  0.00  0.00    -0.506 OA
ATOM     26  H   UNL     1      -7.751   1.082   2.572  0.00  0.00    +0.292 HD
ENDBRANCH  24  25
ENDBRANCH   3  19
BRANCH  10  27
ATOM     27  C   UNL     1      -5.831  -2.609  -2.330  0.00  0.00    +0.137 C 
BRANCH  27  28
ATOM     28  C   UNL     1      -7.051  -2.010  -3.033  0.00  0.00    +0.175 C 
BRANCH  28  29
ATOM     29  O   UNL     1      -7.139  -0.617  -2.729  0.00  0.00    -0.393 OA
ATOM     30  H   UNL     1      -7.892  -0.171  -3.143  0.00  0.00    +0.209 HD
ENDBRANCH  28  29
ENDBRANCH  27  28
ENDBRANCH  10  27
TORSDOF 7
