REMARK  Name = ZINC02105267
REMARK  4 active torsions:
REMARK  status: ('A' for Active; 'I' for Inactive)
REMARK    1  A    between atoms: C_1  and  C_2
REMARK    2  A    between atoms: C_5  and  C_8
REMARK    3  A    between atoms: N_27  and  C_30
REMARK    4  A    between atoms: C_30  and  C_31
REMARK                            x       y       z     vdW  Elec       q    Type
REMARK                         _______ _______ _______ _____ _____    ______ ____
ROOT
ATOM      1  C   UNL     1      -2.553   3.869   0.045  0.00  0.00    +0.154 C 
ATOM      2  C   UNL     1      -3.193   3.747   1.410  0.00  0.00    +0.046 A 
ATOM      3  C   UNL     1      -4.277   2.981   1.659  0.00  0.00    -0.015 A 
ATOM      4  C   UNL     1      -4.582   3.124   3.069  0.00  0.00    +0.003 A 
ATOM      5  C   UNL     1      -5.576   2.574   3.883  0.00  0.00    +0.010 A 
ATOM      6  C   UNL     1      -5.566   2.940   5.207  0.00  0.00    +0.001 A 
ATOM      7  C   UNL     1      -4.621   3.812   5.722  0.00  0.00    +0.002 A 
ATOM      8  C   UNL     1      -3.626   4.370   4.939  0.00  0.00    +0.026 A 
ATOM      9  C   UNL     1      -3.611   4.016   3.591  0.00  0.00    +0.047 A 
ATOM     10  N   UNL     1      -2.789   4.372   2.560  0.00  0.00    -0.356 N 
ATOM     11  H   UNL     1      -2.033   4.975   2.631  0.00  0.00    +0.166 HD
ATOM     12  C   UNL     1      -4.998   2.151   0.628  0.00  0.00    +0.069 C 
ATOM     13  C   UNL     1      -4.083   1.973  -0.593  0.00  0.00    +0.167 C 
ATOM     14  N   UNL     1      -3.481   3.261  -0.932  0.00  0.00    -0.276 N 
ATOM     15  C   UNL     1      -3.732   3.906  -2.073  0.00  0.00    +0.234 C 
ATOM     16  O   UNL     1      -3.232   5.000  -2.227  0.00  0.00    -0.274 OA
ATOM     17  C   UNL     1      -4.588   3.371  -3.175  0.00  0.00    +0.204 C 
ATOM     18  N   UNL     1      -5.092   2.040  -2.878  0.00  0.00    -0.284 N 
ATOM     19  C   UNL     1      -4.870   1.404  -1.729  0.00  0.00    +0.237 C 
ATOM     20  O   UNL     1      -5.335   0.291  -1.597  0.00  0.00    -0.274 OA
ENDROOT
BRANCH   1  25
ATOM     21  C   UNL     1       2.490   1.048  -0.016  0.00  0.00    +0.044 C 
ATOM     22  C   UNL     1       1.175   1.783   0.000  0.00  0.00    -0.050 A 
ATOM     23  C   UNL     1       0.029   1.141   0.431  0.00  0.00    +0.004 A 
ATOM     24  C   UNL     1      -1.178   1.814   0.441  0.00  0.00    +0.006 A 
ATOM     25  C   UNL     1      -1.238   3.133   0.029  0.00  0.00    -0.021 A 
ATOM     26  C   UNL     1      -0.092   3.775  -0.401  0.00  0.00    +0.006 A 
ATOM     27  C   UNL     1       1.115   3.100  -0.415  0.00  0.00    +0.004 A 
ENDBRANCH   1  25
BRANCH  18  28
ATOM     28  C   UNL     1      -5.889   1.360  -3.901  0.00  0.00    +0.182 C 
BRANCH  28  29
ATOM     29  C   UNL     1      -7.346   1.695  -3.708  0.00  0.00    +0.122 A 
ATOM     30  C   UNL     1      -7.995   2.732  -4.267  0.00  0.00    +0.046 A 
ATOM     31  C   UNL     1      -9.334   2.667  -3.818  0.00  0.00    +0.041 A 
ATOM     32  C   UNL     1      -9.423   1.594  -3.011  0.00  0.00    +0.195 A 
ATOM     33  O   UNL     1      -8.217   1.006  -2.953  0.00  0.00    -0.466 OA
ENDBRANCH  28  29
ENDBRANCH  18  28
TORSDOF 3
