REMARK  Name = ZINC39689470
REMARK  8 active torsions:
REMARK  status: ('A' for Active; 'I' for Inactive)
REMARK    1  A    between atoms: C_1  and  C_2
REMARK    2  A    between atoms: C_6  and  C_8
REMARK    3  A    between atoms: C_8  and  C_9
REMARK    4  A    between atoms: C_9  and  N_10
REMARK    5  A    between atoms: C_11  and  C_13
REMARK    6  A    between atoms: C_24  and  C_26
REMARK    7  A    between atoms: C_28  and  C_35
REMARK    8  A    between atoms: C_30  and  C_31
REMARK                            x       y       z     vdW  Elec       q    Type
REMARK                         _______ _______ _______ _____ _____    ______ ____
ROOT
ATOM      1  C   UNL     1       2.663  -4.966   6.068  0.00  0.00    +0.100 C 
ATOM      2  C   UNL     1       2.163  -4.045   7.204  0.00  0.00    +0.121 C 
ATOM      3  N   UNL     1       2.990  -4.414   8.376  0.00  0.00    -0.296 N 
ATOM      4  C   UNL     1       4.345  -4.637   7.817  0.00  0.00    +0.115 C 
ATOM      5  C   UNL     1       4.095  -5.352   6.474  0.00  0.00    -0.004 C 
ATOM      6  C   UNL     1       5.090  -4.866   5.425  0.00  0.00    -0.010 C 
ATOM      7  C   UNL     1       6.501  -5.312   5.821  0.00  0.00    -0.082 C 
ATOM      8  N   UNL     1       6.543  -6.776   5.923  0.00  0.00    +0.379 N 
ATOM      9  C   UNL     1       5.652  -7.228   6.998  0.00  0.00    -0.082 C 
ATOM     10  C   UNL     1       4.205  -6.863   6.652  0.00  0.00    -0.010 C 
ATOM     11  C   UNL     1       2.599  -4.522   9.662  0.00  0.00    +0.250 C 
ATOM     12  O   UNL     1       1.422  -4.419   9.950  0.00  0.00    -0.270 OA
ATOM     13  H   UNL     1       6.245  -7.181   5.048  0.00  0.00    -0.086 HD
ATOM     14  H   UNL     1       7.487  -7.071   6.124  0.00  0.00    -0.086 HD
ENDROOT
BRANCH  11  15
ATOM     15  C   UNL     1       3.598  -4.766  10.718  0.00  0.00    +0.087 A 
ATOM     16  C   UNL     1       5.061  -4.771  10.573  0.00  0.00    +0.058 A 
ATOM     17  C   UNL     1       5.552  -5.036  11.793  0.00  0.00    +0.103 A 
ATOM     18  O   UNL     1       4.532  -5.189  12.653  0.00  0.00    -0.455 OA
ATOM     19  C   UNL     1       3.358  -5.027  12.035  0.00  0.00    +0.220 A 
ATOM     20  C   UNL     1       7.013  -5.144  12.143  0.00  0.00    +0.086 C 
BRANCH  19  21
ATOM     21  C   UNL     1       2.001  -5.121  12.682  0.00  0.00    +0.451 C 
ATOM     22  F   UNL     1       1.544  -6.442  12.620  0.00  0.00    -0.163 F 
ATOM     23  F   UNL     1       2.094  -4.723  14.020  0.00  0.00    -0.163 F 
ATOM     24  F   UNL     1       1.104  -4.285  12.008  0.00  0.00    -0.163 F 
ENDBRANCH  19  21
ENDBRANCH  11  15
BRANCH   1  26
ATOM     25  N   UNL     1       2.662  -4.911   3.595  0.00  0.00    -0.315 N 
ATOM     26  C   UNL     1       2.670  -4.226   4.756  0.00  0.00    +0.218 C 
ATOM     27  O   UNL     1       2.684  -3.013   4.744  0.00  0.00    -0.275 OA
ATOM     28  H   UNL     1       2.650  -5.880   3.605  0.00  0.00    +0.149 HD
BRANCH  25  29
ATOM     29  C   UNL     1       2.669  -4.190   2.320  0.00  0.00    +0.109 C 
BRANCH  29  30
ATOM     30  C   UNL     1       2.656  -5.196   1.166  0.00  0.00    +0.054 C 
BRANCH  30  36
ATOM     31  C   UNL     1       0.176  -3.038  -2.607  0.00  0.00    +0.044 C 
ATOM     32  C   UNL     1       1.478  -3.423  -1.952  0.00  0.00    -0.050 A 
ATOM     33  C   UNL     1       2.679  -3.097  -2.554  0.00  0.00    +0.003 A 
ATOM     34  C   UNL     1       3.872  -3.450  -1.953  0.00  0.00    +0.001 A 
ATOM     35  C   UNL     1       3.865  -4.129  -0.749  0.00  0.00    +0.004 A 
ATOM     36  C   UNL     1       2.664  -4.455  -0.146  0.00  0.00    -0.046 A 
ATOM     37  C   UNL     1       1.471  -4.098  -0.745  0.00  0.00    +0.007 A 
ENDBRANCH  30  36
ENDBRANCH  29  30
ENDBRANCH  25  29
ENDBRANCH   1  26
TORSDOF 6
