REMARK  Name = ZINC00622428
REMARK  9 active torsions:
REMARK  status: ('A' for Active; 'I' for Inactive)
REMARK    1  A    between atoms: C_1  and  C_2
REMARK    2  A    between atoms: C_2  and  C_3
REMARK    3  A    between atoms: C_2  and  C_4
REMARK    4  A    between atoms: C_2  and  C_5
REMARK    5  A    between atoms: C_10  and  O_11
REMARK    6  A    between atoms: O_11  and  C_12
REMARK    7  A    between atoms: C_12  and  C_13
REMARK    8  A    between atoms: N_15  and  C_16
REMARK    9  A    between atoms: C_17  and  C_25
REMARK                            x       y       z     vdW  Elec       q    Type
REMARK                         _______ _______ _______ _____ _____    ______ ____
ROOT
ATOM      1  C   UNL     1       3.713  -0.859  -0.040  0.00  0.00    +0.255 C 
ATOM      2  O   UNL     1       4.664  -0.106  -0.044  0.00  0.00    -0.272 OA
ATOM      3  N   UNL     1       3.909  -2.192  -0.049  0.00  0.00    -0.277 N 
ATOM      4  H   UNL     1       3.149  -2.795  -0.045  0.00  0.00    +0.155 HD
ENDROOT
BRANCH   3   5
ATOM      5  C   UNL     1       5.198  -2.703  -0.065  0.00  0.00    +0.084 A 
ATOM      6  C   UNL     1       5.599  -4.032  -0.070  0.00  0.00    +0.068 A 
ATOM      7  C   UNL     1       7.027  -4.303  -0.092  0.00  0.00    -0.023 A 
ATOM      8  C   UNL     1       7.819  -3.209  -0.093  0.00  0.00    -0.004 A 
ATOM      9  S   UNL     1       6.699  -1.838  -0.074  0.00  0.00    -0.077 S 
ATOM     10  C   UNL     1       9.317  -3.179  -0.106  0.00  0.00    +0.043 C 
ATOM     11  C   UNL     1       9.832  -4.579   0.258  0.00  0.00    +0.005 C 
ATOM     12  C   UNL     1       9.076  -5.616  -0.578  0.00  0.00    +0.005 C 
ATOM     13  C   UNL     1       7.623  -5.704  -0.107  0.00  0.00    +0.037 C 
BRANCH   6  14
ATOM     14  C   UNL     1       4.619  -5.122  -0.060  0.00  0.00    +0.244 C 
ATOM     15  O   UNL     1       4.200  -5.574  -1.109  0.00  0.00    -0.270 OA
ATOM     16  N   UNL     1       4.182  -5.624   1.112  0.00  0.00    -0.325 N 
ATOM     17  H   UNL     1       4.516  -5.263   1.949  0.00  0.00    +0.145 HD
ATOM     18  H   UNL     1       3.533  -6.345   1.119  0.00  0.00    +0.145 HD
ENDBRANCH   6  14
ENDBRANCH   3   5
BRANCH   1  19
ATOM     19  C   UNL     1       2.312  -0.304  -0.023  0.00  0.00    +0.324 C 
BRANCH  19  20
ATOM     20  O   UNL     1       2.366   1.124  -0.015  0.00  0.00    -0.482 OA
BRANCH  20  26
ATOM     21  C   UNL     1       1.158   3.173   0.008  0.00  0.00    +0.001 A 
ATOM     22  C   UNL     1      -0.050   3.844   0.023  0.00  0.00    +0.023 A 
ATOM     23  C   UNL     1      -1.237   3.134   0.030  0.00  0.00    +0.018 A 
ATOM     24  C   UNL     1      -1.218   1.751   0.017  0.00  0.00    +0.019 A 
ATOM     25  C   UNL     1      -0.013   1.076   0.008  0.00  0.00    +0.047 A 
ATOM     26  C   UNL     1       1.179   1.786   0.000  0.00  0.00    +0.125 A 
ATOM     27 BR   UNL     1      -2.888   4.055   0.050  0.00  0.00    -0.050 Br
BRANCH  21  29
ATOM     28  C   UNL     1       2.147   5.447   0.011  0.00  0.00    +0.015 C 
ATOM     29  C   UNL     1       2.450   3.947   0.000  0.00  0.00    -0.009 C 
ATOM     30  C   UNL     1       3.270   3.584   1.240  0.00  0.00    +0.015 C 
ATOM     31  C   UNL     1       3.247   3.598  -1.258  0.00  0.00    +0.015 C 
ENDBRANCH  21  29
ENDBRANCH  20  26
ENDBRANCH  19  20
ENDBRANCH   1  19
TORSDOF 6
