REMARK  Name = ZINC60215999
REMARK  7 active torsions:
REMARK  status: ('A' for Active; 'I' for Inactive)
REMARK    1  A    between atoms: C_6  and  S_7
REMARK    2  A    between atoms: S_7  and  N_10
REMARK    3  A    between atoms: N_10  and  C_11
REMARK    4  A    between atoms: N_14  and  C_17
REMARK    5  A    between atoms: C_17  and  C_18
REMARK    6  A    between atoms: N_20  and  C_21
REMARK    7  A    between atoms: C_21  and  C_22
REMARK                            x       y       z     vdW  Elec       q    Type
REMARK                         _______ _______ _______ _____ _____    ______ ____
ROOT
ATOM      1  C   UNL     1      -1.115  -1.980  -2.438  0.00  0.00    +0.073 C 
ATOM      2  C   UNL     1      -1.664  -3.409  -2.459  0.00  0.00    +0.002 C 
ATOM      3  C   UNL     1      -0.837  -4.253  -3.432  0.00  0.00    -0.077 C 
ATOM      4  N   UNL     1      -0.919  -3.675  -4.778  0.00  0.00    +0.385 N 
ATOM      5  C   UNL     1      -0.329  -2.332  -4.781  0.00  0.00    -0.077 C 
ATOM      6  C   UNL     1      -1.137  -1.414  -3.861  0.00  0.00    +0.002 C 
ATOM      7  H   UNL     1      -1.887  -3.618  -5.059  0.00  0.00    -0.081 HD
ENDROOT
BRANCH   1   8
ATOM      8  N   UNL     1      -1.948  -1.147  -1.567  0.00  0.00    -0.187 NA
ATOM      9  H   UNL     1      -2.756  -0.738  -1.915  0.00  0.00    +0.148 HD
BRANCH   8  10
ATOM     10  S   UNL     1      -1.512  -0.905   0.012  0.00  0.00    +0.059 S 
ATOM     11  O   UNL     1      -1.218  -2.186   0.553  0.00  0.00    -0.153 OA
ATOM     12  O   UNL     1      -2.492  -0.046   0.577  0.00  0.00    -0.153 OA
BRANCH  10  18
ATOM     13  C   UNL     1      -0.017   1.378   0.010  0.00  0.00    +0.030 A 
ATOM     14  C   UNL     1       1.171   2.086   0.002  0.00  0.00    +0.022 A 
ATOM     15  C   UNL     1       2.378   1.410  -0.013  0.00  0.00    +0.041 A 
ATOM     16  C   UNL     1       2.396   0.027  -0.021  0.00  0.00    +0.022 A 
ATOM     17  C   UNL     1       1.208  -0.679  -0.013  0.00  0.00    +0.030 A 
ATOM     18  C   UNL     1       0.002  -0.004   0.002  0.00  0.00    +0.105 A 
ATOM     19 CL   UNL     1       3.870   2.298  -0.023  0.00  0.00    -0.084 Cl
ENDBRANCH  10  18
ENDBRANCH   8  10
ENDBRANCH   1   8
BRANCH   4  20
ATOM     20  C   UNL     1      -0.189  -4.532  -5.722  0.00  0.00    +0.019 C 
BRANCH  20  21
ATOM     21  C   UNL     1      -0.375  -4.008  -7.123  0.00  0.00    +0.197 C 
ATOM     22  O   UNL     1      -1.050  -3.019  -7.316  0.00  0.00    -0.278 OA
ATOM     23  N   UNL     1       0.208  -4.639  -8.161  0.00  0.00    -0.313 N 
ATOM     24  H   UNL     1       0.748  -5.430  -8.007  0.00  0.00    +0.149 HD
BRANCH  23  25
ATOM     25  C   UNL     1       0.028  -4.130  -9.523  0.00  0.00    +0.139 C 
BRANCH  25  26
ATOM     26  C   UNL     1       0.777  -5.008 -10.492  0.00  0.00    -0.027 A 
ATOM     27  C   UNL     1       2.094  -4.725 -10.802  0.00  0.00    +0.009 A 
ATOM     28  C   UNL     1       2.786  -5.528 -11.690  0.00  0.00    +0.050 A 
ATOM     29  C   UNL     1       2.160  -6.619 -12.270  0.00  0.00    +0.166 A 
ATOM     30  C   UNL     1       0.834  -6.905 -11.957  0.00  0.00    +0.167 A 
ATOM     31  C   UNL     1       0.148  -6.099 -11.063  0.00  0.00    +0.054 A 
ATOM     32  O   UNL     1       0.451  -8.016 -12.651  0.00  0.00    -0.453 OA
ATOM     33  C   UNL     1       1.425  -8.169 -13.700  0.00  0.00    +0.466 C 
ATOM     34  O   UNL     1       2.609  -7.552 -13.160  0.00  0.00    -0.453 OA
ENDBRANCH  25  26
ENDBRANCH  23  25
ENDBRANCH  20  21
ENDBRANCH   4  20
TORSDOF 7
