REMARK  Name = ZINC60340152
REMARK  8 active torsions:
REMARK  status: ('A' for Active; 'I' for Inactive)
REMARK    1  A    between atoms: C_1  and  C_2
REMARK    2  A    between atoms: C_5  and  N_8
REMARK    3  A    between atoms: C_12  and  C_13
REMARK    4  A    between atoms: C_23  and  S_24
REMARK    5  A    between atoms: S_24  and  C_25
REMARK    6  A    between atoms: C_25  and  C_26
REMARK    7  A    between atoms: C_26  and  C_27
REMARK    8  A    between atoms: C_27  and  C_28
REMARK                            x       y       z     vdW  Elec       q    Type
REMARK                         _______ _______ _______ _____ _____    ______ ____
ROOT
ATOM      1  N   UNL     1       0.102  -4.174  -0.018  0.00  0.00    -0.214 N 
ATOM      2  C   UNL     1      -0.033  -4.959  -1.110  0.00  0.00    +0.275 C 
ATOM      3  O   UNL     1      -0.199  -4.598  -2.261  0.00  0.00    -0.268 OA
ATOM      4  C   UNL     1       0.064  -6.344  -0.614  0.00  0.00    +0.129 C 
ATOM      5  C   UNL     1      -0.014  -7.498  -1.359  0.00  0.00    +0.041 C 
ATOM      6  N   UNL     1       0.249  -6.247   0.737  0.00  0.00    -0.220 NA
ATOM      7  C   UNL     1       0.276  -4.985   1.077  0.00  0.00    +0.168 C 
ENDROOT
BRANCH   5   8
ATOM      8  C   UNL     1      -0.050  -8.802  -0.689  0.00  0.00    -0.019 A 
ATOM      9  C   UNL     1       0.012  -9.982  -1.442  0.00  0.00    +0.012 A 
ATOM     10  C   UNL     1      -0.021 -11.204  -0.809  0.00  0.00    +0.050 A 
ATOM     11  C   UNL     1      -0.115 -11.273   0.575  0.00  0.00    +0.166 A 
ATOM     12  C   UNL     1      -0.177 -10.102   1.333  0.00  0.00    +0.167 A 
ATOM     13  C   UNL     1      -0.139  -8.872   0.708  0.00  0.00    +0.057 A 
ATOM     14  O   UNL     1      -0.265 -10.442   2.652  0.00  0.00    -0.453 OA
ATOM     15  C   UNL     1      -0.668 -11.824   2.667  0.00  0.00    +0.466 C 
ATOM     16  O   UNL     1      -0.164 -12.342   1.422  0.00  0.00    -0.453 OA
ENDBRANCH   5   8
BRANCH   1  21
ATOM     17  C   UNL     1      -0.007   1.500   0.027  0.00  0.00    +0.044 C 
ATOM     18  C   UNL     1       0.021  -0.007   0.016  0.00  0.00    -0.050 A 
ATOM     19  C   UNL     1       1.121  -0.680   0.515  0.00  0.00    +0.005 A 
ATOM     20  C   UNL     1       1.151  -2.061   0.505  0.00  0.00    +0.024 A 
ATOM     21  C   UNL     1       0.075  -2.773  -0.007  0.00  0.00    +0.044 A 
ATOM     22  C   UNL     1      -1.029  -2.094  -0.506  0.00  0.00    +0.024 A 
ATOM     23  C   UNL     1      -1.054  -0.714  -0.489  0.00  0.00    +0.005 A 
ENDBRANCH   1  21
BRANCH   7  24
ATOM     24  S   UNL     1       0.500  -4.401   2.725  0.00  0.00    -0.090 S 
BRANCH  24  25
ATOM     25  C   UNL     1       0.673  -5.915   3.708  0.00  0.00    +0.077 C 
BRANCH  25  26
ATOM     26  C   UNL     1       0.876  -5.548   5.179  0.00  0.00    +0.020 C 
BRANCH  26  27
ATOM     27  C   UNL     1       1.022  -6.826   6.008  0.00  0.00    +0.097 C 
BRANCH  27  28
ATOM     28  C   UNL     1       1.222  -6.464   7.457  0.00  0.00    +0.220 C 
ATOM     29  O   UNL     1       1.247  -5.299   7.793  0.00  0.00    -0.275 OA
ATOM     30  N   UNL     1       1.375  -7.435   8.379  0.00  0.00    -0.240 N 
ATOM     31  C   UNL     1       1.554  -7.111   9.675  0.00  0.00    +0.303 C 
ATOM     32  O   UNL     1       1.579  -5.944  10.012  0.00  0.00    -0.253 OA
ATOM     33  N   UNL     1       1.707  -8.082  10.598  0.00  0.00    -0.313 N 
ATOM     34  H   UNL     1       1.355  -8.367   8.110  0.00  0.00    +0.159 HD
ATOM     35  H   UNL     1       1.687  -9.014  10.328  0.00  0.00    +0.146 HD
ATOM     36  H   UNL     1       1.836  -7.849  11.530  0.00  0.00    +0.146 HD
ENDBRANCH  27  28
ENDBRANCH  26  27
ENDBRANCH  25  26
ENDBRANCH  24  25
ENDBRANCH   7  24
TORSDOF 7
