REMARK  Name = ZINC04006553
REMARK  7 active torsions:
REMARK  status: ('A' for Active; 'I' for Inactive)
REMARK    1  A    between atoms: C_1  and  C_2
REMARK    2  A    between atoms: C_2  and  C_26
REMARK    3  A    between atoms: C_9  and  N_16
REMARK    4  A    between atoms: C_12  and  S_14
REMARK    5  A    between atoms: S_14  and  C_15
REMARK    6  A    between atoms: C_17  and  N_23
REMARK    7  A    between atoms: C_18  and  C_21
REMARK                            x       y       z     vdW  Elec       q    Type
REMARK                         _______ _______ _______ _____ _____    ______ ____
ROOT
ATOM      1  C   UNL     1      -0.019   1.526   0.010  0.00  0.00    +0.023 C 
ATOM      2  C   UNL     1       0.002  -0.004   0.002  0.00  0.00    +0.016 C 
ATOM      3  C   UNL     1      -1.429  -0.537   0.036  0.00  0.00    +0.056 C 
ATOM      4  C   UNL     1      -2.090  -0.247   1.357  0.00  0.00    +0.005 A 
ATOM      5  C   UNL     1      -1.520   0.042   2.540  0.00  0.00    +0.121 A 
ATOM      6  O   UNL     1      -2.491   0.217   3.468  0.00  0.00    -0.443 OA
ATOM      7  C   UNL     1      -3.686   0.068   2.894  0.00  0.00    +0.207 A 
ATOM      8  C   UNL     1      -3.476  -0.233   1.573  0.00  0.00    +0.061 A 
ATOM      9  C   UNL     1      -4.619  -0.491   0.624  0.00  0.00    +0.230 C 
ATOM     10  N   UNL     1      -5.802   0.161   1.218  0.00  0.00    -0.300 N 
ATOM     11  C   UNL     1      -5.969   0.168   2.582  0.00  0.00    +0.136 C 
ATOM     12  N   UNL     1      -4.944   0.157   3.412  0.00  0.00    -0.309 N 
ATOM     13  C   UNL     1      -0.041   0.173   2.831  0.00  0.00    +0.144 C 
ATOM     14  S   UNL     1       0.881  -0.611   1.475  0.00  0.00    -0.146 S 
ATOM     15  C   UNL     1       0.710  -0.501  -1.260  0.00  0.00    +0.023 C 
ATOM     16  H   UNL     1      -5.082   0.211   4.370  0.00  0.00    +0.170 HD
ATOM     17  H   UNL     1      -6.462   0.585   0.646  0.00  0.00    +0.150 HD
ENDROOT
BRANCH   9  18
ATOM     18  N   UNL     1      -4.849  -1.932   0.492  0.00  0.00    -0.224 N 
ATOM     19  C   UNL     1      -4.500  -2.692  -0.567  0.00  0.00    +0.134 A 
ATOM     20  C   UNL     1      -4.898  -3.996  -0.283  0.00  0.00    +0.111 A 
ATOM     21  C   UNL     1      -5.500  -3.976   0.996  0.00  0.00    +0.155 A 
ATOM     22  N   UNL     1      -5.460  -2.753   1.446  0.00  0.00    -0.175 NA
BRANCH  19  23
ATOM     23  N   UNL     1      -3.869  -2.258  -1.716  0.00  0.00    -0.342 N 
ATOM     24  H   UNL     1      -3.633  -1.323  -1.817  0.00  0.00    +0.144 HD
ATOM     25  H   UNL     1      -3.661  -2.889  -2.423  0.00  0.00    +0.144 HD
ENDBRANCH  19  23
BRANCH  20  26
ATOM     26  C   UNL     1      -4.730  -5.140  -1.127  0.00  0.00    +0.104 C 
ATOM     27  N   UNL     1      -4.597  -6.048  -1.797  0.00  0.00    -0.191 NA
ENDBRANCH  20  26
ENDBRANCH   9  18
BRANCH  11  28
ATOM     28  S   UNL     1      -7.602   0.192   3.243  0.00  0.00    -0.096 S 
ATOM     29  C   UNL     1      -7.349   0.194   5.040  0.00  0.00    +0.092 C 
ENDBRANCH  11  28
TORSDOF 4
