REMARK  Name = ZINC63351342
REMARK  12 active torsions:
REMARK  status: ('A' for Active; 'I' for Inactive)
REMARK    1  A    between atoms: C_1  and  O_2
REMARK    2  A    between atoms: O_2  and  C_3
REMARK    3  A    between atoms: C_8  and  C_9
REMARK    4  A    between atoms: C_17  and  O_41
REMARK    5  A    between atoms: N_20  and  C_21
REMARK    6  A    between atoms: C_21  and  C_22
REMARK    7  A    between atoms: N_24  and  C_25
REMARK    8  A    between atoms: C_25  and  C_27
REMARK    9  A    between atoms: C_25  and  C_37
REMARK   10  A    between atoms: C_27  and  C_28
REMARK   11  A    between atoms: C_37  and  O_39
REMARK   12  A    between atoms: O_39  and  C_40
REMARK                            x       y       z     vdW  Elec       q    Type
REMARK                         _______ _______ _______ _____ _____    ______ ____
ROOT
ATOM      1  C   UNL     1       0.052  -2.828   0.005  0.00  0.00    -0.028 C 
ATOM      2  C   UNL     1       0.990  -2.877  -1.202  0.00  0.00    +0.011 C 
ATOM      3  C   UNL     1       1.251  -1.461  -1.713  0.00  0.00    +0.005 C 
ATOM      4  C   UNL     1      -0.068  -0.819  -2.147  0.00  0.00    +0.000 C 
ATOM      5  C   UNL     1      -0.696  -1.657  -3.263  0.00  0.00    +0.003 C 
ATOM      6  C   UNL     1      -0.968  -3.070  -2.745  0.00  0.00    +0.035 C 
ATOM      7  C   UNL     1       0.343  -3.711  -2.311  0.00  0.00    +0.066 C 
ATOM      8  C   UNL     1       0.043  -5.111  -1.764  0.00  0.00    +0.016 C 
ATOM      9  C   UNL     1      -0.861  -4.985  -0.536  0.00  0.00    -0.075 C 
ATOM     10  N   UNL     1      -0.185  -4.191   0.497  0.00  0.00    +0.390 N 
ATOM     11  H   UNL     1       0.697  -4.623   0.728  0.00  0.00    -0.080 HD
ENDROOT
BRANCH   1  17
ATOM     12  C   UNL     1       1.758  -2.506   1.815  0.00  0.00    +0.122 A 
ATOM     13  C   UNL     1       2.339  -1.742   2.816  0.00  0.00    +0.046 A 
ATOM     14  C   UNL     1       1.842  -0.484   3.100  0.00  0.00    +0.004 A 
ATOM     15  C   UNL     1       0.766   0.012   2.387  0.00  0.00    +0.000 A 
ATOM     16  C   UNL     1       0.185  -0.748   1.389  0.00  0.00    +0.005 A 
ATOM     17  C   UNL     1       0.682  -2.003   1.097  0.00  0.00    -0.019 A 
BRANCH  12  19
ATOM     18  C   UNL     1       3.355  -4.196   2.311  0.00  0.00    +0.277 C 
ATOM     19  O   UNL     1       2.245  -3.743   1.533  0.00  0.00    -0.495 OA
ENDBRANCH  12  19
ENDBRANCH   1  17
BRANCH   7  20
ATOM     20  O   UNL     1       1.231  -3.797  -3.428  0.00  0.00    -0.388 OA
ATOM     21  H   UNL     1       0.884  -4.312  -4.168  0.00  0.00    +0.210 HD
ENDBRANCH   7  20
BRANCH  10  22
ATOM     22  C   UNL     1      -1.028  -4.136   1.699  0.00  0.00    +0.019 C 
BRANCH  22  23
ATOM     23  C   UNL     1      -1.172  -5.521   2.276  0.00  0.00    +0.197 C 
ATOM     24  O   UNL     1      -0.626  -6.461   1.738  0.00  0.00    -0.278 OA
ATOM     25  N   UNL     1      -1.907  -5.715   3.388  0.00  0.00    -0.304 N 
ATOM     26  H   UNL     1      -2.344  -4.963   3.818  0.00  0.00    +0.149 HD
BRANCH  25  27
ATOM     27  C   UNL     1      -2.047  -7.061   3.949  0.00  0.00    +0.186 C 
BRANCH  27  28
ATOM     28  C   UNL     1      -0.874  -7.355   4.848  0.00  0.00    +0.328 C 
ATOM     29  O   UNL     1      -0.009  -6.526   5.004  0.00  0.00    -0.249 OA
BRANCH  28  30
ATOM     30  O   UNL     1      -0.788  -8.539   5.474  0.00  0.00    -0.467 OA
ATOM     31  C   UNL     1       0.351  -8.750   6.311  0.00  0.00    +0.280 C 
ENDBRANCH  28  30
ENDBRANCH  27  28
BRANCH  27  32
ATOM     32  C   UNL     1      -3.343  -7.144   4.758  0.00  0.00    +0.067 C 
BRANCH  32  33
ATOM     33  C   UNL     1      -4.523  -6.972   3.837  0.00  0.00    -0.039 C 
ATOM     34  C   UNL     1      -5.252  -7.952   3.258  0.00  0.00    -0.001 A 
ATOM     35  C   UNL     1      -5.168  -9.417   3.309  0.00  0.00    +0.010 A 
ATOM     36  C   UNL     1      -6.060 -10.150   2.605  0.00  0.00    +0.001 A 
ATOM     37  C   UNL     1      -7.060  -9.548   1.829  0.00  0.00    +0.002 A 
ATOM     38  C   UNL     1      -7.200  -8.209   1.731  0.00  0.00    +0.026 A 
ATOM     39  C   UNL     1      -6.317  -7.341   2.431  0.00  0.00    +0.043 A 
ATOM     40  N   UNL     1      -6.249  -6.034   2.496  0.00  0.00    -0.380 N 
ATOM     41  C   UNL     1      -5.135  -5.667   3.378  0.00  0.00    +0.144 C 
ATOM     42  H   UNL     1      -6.838  -5.412   2.041  0.00  0.00    +0.160 HD
ENDBRANCH  32  33
ENDBRANCH  27  32
ENDBRANCH  25  27
ENDBRANCH  22  23
ENDBRANCH  10  22
TORSDOF 10
