REMARK  Name = ZINC20763435
REMARK  8 active torsions:
REMARK  status: ('A' for Active; 'I' for Inactive)
REMARK    1  A    between atoms: C_1  and  C_2
REMARK    2  A    between atoms: C_2  and  C_3
REMARK    3  A    between atoms: C_6  and  C_9
REMARK    4  A    between atoms: C_11  and  C_25
REMARK    5  A    between atoms: C_14  and  C_17
REMARK    6  A    between atoms: C_22  and  O_23
REMARK    7  A    between atoms: C_30  and  O_31
REMARK    8  A    between atoms: O_31  and  C_32
REMARK                            x       y       z     vdW  Elec       q    Type
REMARK                         _______ _______ _______ _____ _____    ______ ____
ROOT
ATOM      1  C   UNL     1       3.184   5.585   1.610  0.00  0.00    +0.040 C 
ATOM      2  N   UNL     1       2.301   5.143   0.797  0.00  0.00    -0.298 NA
ATOM      3  C   UNL     1       2.456   3.933  -0.001  0.00  0.00    +0.084 C 
ATOM      4  N   UNL     1       3.524   3.087   0.543  0.00  0.00    +0.401 N 
ATOM      5  C   UNL     1       4.752   3.877   0.734  0.00  0.00    -0.028 C 
ATOM      6  C   UNL     1       4.498   4.894   1.851  0.00  0.00    +0.044 C 
ATOM      7  H   UNL     1       3.207   2.674   1.513  0.00  0.00    -0.081 HD
ATOM      8  H   UNL     1       3.731   2.263  -0.155  0.00  0.00    -0.081 HD
ENDROOT
BRANCH   5   9
ATOM      9  C   UNL     1       5.889   2.967   1.124  0.00  0.00    -0.018 A 
ATOM     10  C   UNL     1       5.625   1.707   1.623  0.00  0.00    +0.020 A 
ATOM     11  C   UNL     1       6.667   0.871   1.982  0.00  0.00    +0.018 A 
ATOM     12  C   UNL     1       7.976   1.296   1.840  0.00  0.00    +0.019 A 
ATOM     13  C   UNL     1       8.245   2.556   1.342  0.00  0.00    +0.047 A 
ATOM     14  C   UNL     1       7.200   3.393   0.976  0.00  0.00    +0.119 A 
ATOM     15 BR   UNL     1       6.303  -0.854   2.665  0.00  0.00    -0.050 Br
BRANCH  14  16
ATOM     16  O   UNL     1       7.462   4.631   0.479  0.00  0.00    -0.507 OA
ATOM     17  H   UNL     1       8.503   4.968   0.362  0.00  0.00    +0.292 HD
ENDBRANCH  14  16
ENDBRANCH   5   9
BRANCH   1  21
ATOM     18  C   UNL     1       2.367   9.172   3.730  0.00  0.00    -0.048 A 
ATOM     19  C   UNL     1       1.433   8.668   2.843  0.00  0.00    +0.004 A 
ATOM     20  C   UNL     1       1.692   7.503   2.151  0.00  0.00    +0.010 A 
ATOM     21  C   UNL     1       2.900   6.832   2.347  0.00  0.00    -0.004 A 
ATOM     22  C   UNL     1       3.837   7.343   3.248  0.00  0.00    +0.010 A 
ATOM     23  C   UNL     1       3.567   8.512   3.929  0.00  0.00    +0.004 A 
BRANCH  18  25
ATOM     24  C   UNL     1       1.380  10.109   5.803  0.00  0.00    +0.009 C 
ATOM     25  C   UNL     1       2.077  10.445   4.483  0.00  0.00    +0.032 C 
ENDBRANCH  18  25
ENDBRANCH   1  21
BRANCH   3  26
ATOM     26  C   UNL     1       1.160   3.164   0.008  0.00  0.00    +0.001 A 
ATOM     27  C   UNL     1       1.176   1.782   0.000  0.00  0.00    +0.007 A 
ATOM     28  C   UNL     1      -0.013   1.076   0.008  0.00  0.00    +0.000 A 
ATOM     29  C   UNL     1      -1.220   1.750   0.017  0.00  0.00    +0.004 A 
ATOM     30  C   UNL     1      -1.242   3.131   0.031  0.00  0.00    +0.046 A 
ATOM     31  C   UNL     1      -0.050   3.842   0.023  0.00  0.00    +0.123 A 
BRANCH  31  32
ATOM     32  O   UNL     1      -0.069   5.201   0.031  0.00  0.00    -0.495 OA
ATOM     33  C   UNL     1      -1.350   5.832   0.047  0.00  0.00    +0.277 C 
ENDBRANCH  31  32
ENDBRANCH   3  26
TORSDOF 6
