REMARK  Name = ZINC04058924
REMARK  6 active torsions:
REMARK  status: ('A' for Active; 'I' for Inactive)
REMARK    1  A    between atoms: C_5  and  C_7
REMARK    2  A    between atoms: C_7  and  C_9
REMARK    3  A    between atoms: C_7  and  N_20
REMARK    4  A    between atoms: C_18  and  O_19
REMARK    5  A    between atoms: N_20  and  C_21
REMARK    6  A    between atoms: C_24  and  N_27
REMARK                            x       y       z     vdW  Elec       q    Type
REMARK                         _______ _______ _______ _____ _____    ______ ____
ROOT
ATOM      1  C   UNL     1       1.250  -2.168  -0.023  0.00  0.00    +0.153 C 
ENDROOT
BRANCH   1   2
ATOM      2  C   UNL     1       2.180  -2.604  -1.126  0.00  0.00    +0.022 A 
ATOM      3  C   UNL     1       3.525  -2.824  -0.843  0.00  0.00    +0.010 A 
ATOM      4  C   UNL     1       4.391  -3.219  -1.817  0.00  0.00    +0.010 A 
ATOM      5  C   UNL     1       3.924  -3.407  -3.128  0.00  0.00    +0.004 A 
ATOM      6  C   UNL     1       4.788  -3.815  -4.162  0.00  0.00    +0.011 A 
ATOM      7  C   UNL     1       4.265  -3.978  -5.413  0.00  0.00    +0.020 A 
ATOM      8  C   UNL     1       2.910  -3.742  -5.636  0.00  0.00    +0.111 A 
ATOM      9  N   UNL     1       2.108  -3.362  -4.670  0.00  0.00    -0.251 NA
ATOM     10  C   UNL     1       2.557  -3.184  -3.425  0.00  0.00    +0.113 A 
ATOM     11  C   UNL     1       1.689  -2.782  -2.388  0.00  0.00    +0.148 A 
BRANCH  11  12
ATOM     12  O   UNL     1       0.372  -2.567  -2.645  0.00  0.00    -0.504 OA
ATOM     13  H   UNL     1       0.165  -1.659  -2.907  0.00  0.00    +0.292 HD
ENDBRANCH  11  12
ENDBRANCH   1   2
BRANCH   1  18
ATOM     14  C   UNL     1      -0.055   1.368  -0.014  0.00  0.00    +0.003 A 
ATOM     15  C   UNL     1       1.142   2.055   0.115  0.00  0.00    +0.020 A 
ATOM     16  C   UNL     1       2.323   1.342   0.193  0.00  0.00    +0.111 A 
ATOM     17  N   UNL     1       2.319   0.024   0.147  0.00  0.00    -0.258 NA
ATOM     18  C   UNL     1       1.200  -0.662   0.025  0.00  0.00    +0.066 A 
ATOM     19  C   UNL     1      -0.020  -0.017  -0.059  0.00  0.00    +0.025 A 
ENDBRANCH   1  18
BRANCH   1  20
ATOM     20  N   UNL     1       1.740  -2.681   1.259  0.00  0.00    -0.332 N 
ATOM     21  H   UNL     1       2.684  -2.867   1.379  0.00  0.00    +0.147 HD
BRANCH  20  22
ATOM     22  C   UNL     1       0.846  -2.904   2.309  0.00  0.00    +0.028 A 
ATOM     23  C   UNL     1      -0.508  -2.645   2.137  0.00  0.00    +0.025 A 
ATOM     24  C   UNL     1      -1.389  -2.867   3.177  0.00  0.00    +0.034 A 
ATOM     25  C   UNL     1      -0.925  -3.347   4.388  0.00  0.00    +0.126 A 
ATOM     26  C   UNL     1       0.422  -3.606   4.562  0.00  0.00    +0.034 A 
ATOM     27  C   UNL     1       1.308  -3.391   3.525  0.00  0.00    +0.025 A 
BRANCH  25  28
ATOM     28  N   UNL     1      -1.873  -3.583   5.500  0.00  0.00    +0.056 N 
ATOM     29  O   UNL     1      -3.050  -3.357   5.350  0.00  0.00    -0.126 OA
ATOM     30  O   UNL     1      -1.468  -4.003   6.560  0.00  0.00    -0.126 OA
ENDBRANCH  25  28
ENDBRANCH  20  22
ENDBRANCH   1  20
TORSDOF 6
