REMARK  Name = ZINC34870694
REMARK  7 active torsions:
REMARK  status: ('A' for Active; 'I' for Inactive)
REMARK    1  A    between atoms: C_6  and  N_7
REMARK    2  A    between atoms: C_8  and  N_29
REMARK    3  A    between atoms: C_13  and  S_14
REMARK    4  A    between atoms: S_14  and  C_15
REMARK    5  A    between atoms: C_15  and  C_16
REMARK    6  A    between atoms: N_18  and  C_19
REMARK    7  A    between atoms: C_20  and  C_27
REMARK                            x       y       z     vdW  Elec       q    Type
REMARK                         _______ _______ _______ _____ _____    ______ ____
ROOT
ATOM      1  N   UNL     1      -1.202  -0.722  -0.001  0.00  0.00    -0.277 N 
ATOM      2  C   UNL     1      -1.182  -2.090  -0.095  0.00  0.00    +0.108 A 
ATOM      3  C   UNL     1      -2.364  -2.773  -0.074  0.00  0.00    +0.114 A 
ATOM      4  C   UNL     1      -3.567  -2.049   0.045  0.00  0.00    +0.276 A 
ATOM      5  O   UNL     1      -4.638  -2.638   0.067  0.00  0.00    -0.266 OA
ATOM      6  N   UNL     1      -3.533  -0.710   0.134  0.00  0.00    -0.185 NA
ATOM      7  C   UNL     1      -2.389  -0.059   0.117  0.00  0.00    +0.179 A 
ENDROOT
BRANCH   1  13
ATOM      8  C   UNL     1       0.654   0.294   1.168  0.00  0.00    +0.028 A 
ATOM      9  C   UNL     1       1.839   1.002   1.145  0.00  0.00    +0.022 A 
ATOM     10  C   UNL     1       2.376   1.417  -0.061  0.00  0.00    +0.041 A 
ATOM     11  C   UNL     1       1.727   1.124  -1.247  0.00  0.00    +0.022 A 
ATOM     12  C   UNL     1       0.541   0.416  -1.230  0.00  0.00    +0.028 A 
ATOM     13  C   UNL     1       0.001  -0.002  -0.021  0.00  0.00    +0.050 A 
ATOM     14 CL   UNL     1       3.866   2.308  -0.086  0.00  0.00    -0.084 Cl
ENDBRANCH   1  13
BRANCH   2  15
ATOM     15  N   UNL     1       0.011  -2.765  -0.210  0.00  0.00    -0.344 N 
ATOM     16  H   UNL     1       0.850  -2.282  -0.144  0.00  0.00    +0.144 HD
ATOM     17  H   UNL     1       0.014  -3.724  -0.357  0.00  0.00    +0.144 HD
ENDBRANCH   2  15
BRANCH   7  18
ATOM     18  S   UNL     1      -2.391   1.698   0.243  0.00  0.00    -0.078 S 
BRANCH  18  19
ATOM     19  C   UNL     1      -4.149   2.126   0.379  0.00  0.00    +0.173 C 
BRANCH  19  20
ATOM     20  C   UNL     1      -4.294   3.622   0.495  0.00  0.00    +0.228 C 
ATOM     21  O   UNL     1      -3.309   4.329   0.487  0.00  0.00    -0.275 OA
ATOM     22  N   UNL     1      -5.518   4.173   0.608  0.00  0.00    -0.278 N 
ATOM     23  H   UNL     1      -6.306   3.608   0.614  0.00  0.00    +0.155 HD
BRANCH  22  24
ATOM     24  C   UNL     1      -5.652   5.551   0.715  0.00  0.00    +0.090 A 
ATOM     25  C   UNL     1      -6.816   6.284   0.842  0.00  0.00    +0.084 A 
ATOM     26  C   UNL     1      -6.687   7.737   0.937  0.00  0.00    -0.018 A 
ATOM     27  C   UNL     1      -5.417   8.179   0.885  0.00  0.00    -0.004 A 
ATOM     28  S   UNL     1      -4.437   6.707   0.725  0.00  0.00    -0.077 S 
ATOM     29  C   UNL     1      -5.340   9.678   0.982  0.00  0.00    +0.043 C 
ATOM     30  C   UNL     1      -6.775  10.163   0.674  0.00  0.00    +0.010 C 
ATOM     31  C   UNL     1      -7.617   8.939   1.087  0.00  0.00    +0.037 C 
BRANCH  25  32
ATOM     32  C   UNL     1      -8.098   5.646   0.880  0.00  0.00    +0.102 C 
ATOM     33  N   UNL     1      -9.115   5.140   0.910  0.00  0.00    -0.191 NA
ENDBRANCH  25  32
ENDBRANCH  22  24
ENDBRANCH  19  20
ENDBRANCH  18  19
ENDBRANCH   7  18
TORSDOF 7
