REMARK  Name = ZINC22311445
REMARK  10 active torsions:
REMARK  status: ('A' for Active; 'I' for Inactive)
REMARK    1  A    between atoms: C_1  and  C_2
REMARK    2  A    between atoms: C_2  and  N_3
REMARK    3  A    between atoms: C_7  and  S_27
REMARK    4  A    between atoms: C_11  and  S_12
REMARK    5  A    between atoms: S_12  and  C_13
REMARK    6  A    between atoms: C_13  and  C_14
REMARK    7  A    between atoms: C_17  and  C_19
REMARK    8  A    between atoms: C_22  and  O_25
REMARK    9  A    between atoms: O_25  and  C_26
REMARK   10  A    between atoms: S_27  and  N_30
REMARK                            x       y       z     vdW  Elec       q    Type
REMARK                         _______ _______ _______ _____ _____    ______ ____
ROOT
ATOM      1  N   UNL     1      -0.749   3.044   1.275  0.00  0.00    -0.319 N 
ATOM      2  C   UNL     1      -1.731   3.856   0.731  0.00  0.00    +0.070 A 
ATOM      3  C   UNL     1      -2.917   3.609   0.057  0.00  0.00    +0.030 A 
ATOM      4  C   UNL     1      -3.698   4.664  -0.369  0.00  0.00    +0.030 A 
ATOM      5  C   UNL     1      -3.303   5.972  -0.128  0.00  0.00    +0.107 A 
ATOM      6  C   UNL     1      -2.128   6.235   0.540  0.00  0.00    +0.058 A 
ATOM      7  C   UNL     1      -1.327   5.178   0.978  0.00  0.00    +0.092 A 
ATOM      8  N   UNL     1      -0.144   5.117   1.645  0.00  0.00    -0.222 NA
ATOM      9  C   UNL     1       0.195   3.864   1.825  0.00  0.00    +0.170 A 
ENDROOT
BRANCH   5  10
ATOM     10  S   UNL     1      -4.313   7.306  -0.681  0.00  0.00    +0.056 S 
ATOM     11  O   UNL     1      -3.459   8.433  -0.816  0.00  0.00    -0.153 OA
ATOM     12  O   UNL     1      -5.091   6.806  -1.760  0.00  0.00    -0.153 OA
BRANCH  10  13
ATOM     13  N   UNL     1      -5.372   7.658   0.543  0.00  0.00    -0.204 NA
ATOM     14  H   UNL     1      -6.023   8.489   0.236  0.00  0.00    +0.144 HD
ATOM     15  H   UNL     1      -4.809   7.946   1.443  0.00  0.00    +0.144 HD
ENDBRANCH  10  13
ENDBRANCH   5  10
BRANCH   1  17
ATOM     16  C   UNL     1      -0.013   1.086   0.008  0.00  0.00    +0.027 C 
ATOM     17  C   UNL     1      -0.729   1.579   1.267  0.00  0.00    +0.121 C 
ENDBRANCH   1  17
BRANCH   9  18
ATOM     18  S   UNL     1       1.653   3.319   2.652  0.00  0.00    -0.081 S 
BRANCH  18  19
ATOM     19  C   UNL     1       2.382   4.917   3.090  0.00  0.00    +0.133 C 
BRANCH  19  20
ATOM     20  C   UNL     1       3.677   4.693   3.828  0.00  0.00    +0.059 A 
ATOM     21  C   UNL     1       4.845   4.606   3.139  0.00  0.00    +0.071 A 
ATOM     22  S   UNL     1       6.000   4.348   4.481  0.00  0.00    -0.075 S 
ATOM     23  C   UNL     1       4.803   4.385   5.809  0.00  0.00    +0.109 A 
ATOM     24  N   UNL     1       3.678   4.588   5.136  0.00  0.00    -0.243 NA
BRANCH  23  25
ATOM     25  C   UNL     1       5.011   4.236   7.264  0.00  0.00    +0.007 A 
ATOM     26  C   UNL     1       3.924   4.303   8.137  0.00  0.00    +0.014 A 
ATOM     27  C   UNL     1       4.122   4.157   9.494  0.00  0.00    +0.046 A 
ATOM     28  C   UNL     1       5.402   3.956   9.993  0.00  0.00    +0.120 A 
ATOM     29  C   UNL     1       6.487   3.894   9.128  0.00  0.00    +0.046 A 
ATOM     30  C   UNL     1       6.297   4.033   7.770  0.00  0.00    +0.014 A 
BRANCH  28  31
ATOM     31  O   UNL     1       5.594   3.819  11.331  0.00  0.00    -0.495 OA
ATOM     32  C   UNL     1       4.435   3.892  12.163  0.00  0.00    +0.277 C 
ENDBRANCH  28  31
ENDBRANCH  23  25
ENDBRANCH  19  20
ENDBRANCH  18  19
ENDBRANCH   9  18
TORSDOF 8
