REMARK  Name = ZINC32754981
REMARK  11 active torsions:
REMARK  status: ('A' for Active; 'I' for Inactive)
REMARK    1  A    between atoms: C_1  and  C_2
REMARK    2  A    between atoms: C_3  and  C_26
REMARK    3  A    between atoms: C_4  and  C_25
REMARK    4  A    between atoms: C_5  and  S_10
REMARK    5  A    between atoms: C_6  and  C_9
REMARK    6  A    between atoms: C_7  and  C_8
REMARK    7  A    between atoms: S_10  and  N_13
REMARK    8  A    between atoms: N_13  and  C_14
REMARK    9  A    between atoms: C_18  and  N_21
REMARK   10  A    between atoms: C_19  and  C_20
REMARK   11  A    between atoms: C_22  and  C_24
REMARK                            x       y       z     vdW  Elec       q    Type
REMARK                         _______ _______ _______ _____ _____    ______ ____
ROOT
ATOM      1  S   UNL     1       1.042   5.081  -0.909  0.00  0.00    +0.073 S 
ATOM      2  O   UNL     1       1.378   6.460  -0.836  0.00  0.00    -0.150 OA
ATOM      3  O   UNL     1       1.770   4.082  -0.208  0.00  0.00    -0.150 OA
ENDROOT
BRANCH   1   8
ATOM      4  C   UNL     1       1.221   3.568  -6.747  0.00  0.00    +0.044 C 
ATOM      5  C   UNL     1       1.176   3.946  -5.289  0.00  0.00    -0.044 A 
ATOM      6  C   UNL     1       0.541   5.109  -4.895  0.00  0.00    -0.043 A 
ATOM      7  C   UNL     1       0.500   5.456  -3.558  0.00  0.00    -0.020 A 
ATOM      8  C   UNL     1       1.094   4.639  -2.614  0.00  0.00    +0.115 A 
ATOM      9  C   UNL     1       1.733   3.479  -3.008  0.00  0.00    -0.020 A 
ATOM     10  C   UNL     1       1.770   3.130  -4.345  0.00  0.00    -0.043 A 
ATOM     11  C   UNL     1       2.462   1.862  -4.774  0.00  0.00    +0.044 C 
ATOM     12  C   UNL     1       2.386   2.591  -1.979  0.00  0.00    +0.046 C 
ATOM     13  C   UNL     1      -0.192   6.724  -3.129  0.00  0.00    +0.046 C 
ATOM     14  C   UNL     1      -0.107   5.999  -5.925  0.00  0.00    +0.044 C 
ENDBRANCH   1   8
BRANCH   1  15
ATOM     15  N   UNL     1      -0.534   4.951  -0.417  0.00  0.00    -0.216 N 
ATOM     16  H   UNL     1      -1.067   5.836  -0.040  0.00  0.00    +0.174 HD
BRANCH  15  17
ATOM     17  C   UNL     1      -1.186   3.717  -0.481  0.00  0.00    +0.053 A 
ATOM     18  C   UNL     1      -0.486   2.546  -0.216  0.00  0.00    +0.025 A 
ATOM     19  C   UNL     1      -1.131   1.326  -0.279  0.00  0.00    +0.004 A 
ATOM     20  C   UNL     1      -2.472   1.266  -0.605  0.00  0.00    +0.024 A 
ATOM     21  C   UNL     1      -3.175   2.432  -0.877  0.00  0.00    +0.038 A 
ATOM     22  C   UNL     1      -2.533   3.660  -0.809  0.00  0.00    -0.007 A 
ATOM     23  C   UNL     1      -3.295   4.928  -1.097  0.00  0.00    +0.047 C 
BRANCH  21  24
ATOM     24  N   UNL     1      -4.532   2.369  -1.214  0.00  0.00    -0.285 N 
ATOM     25  C   UNL     1      -5.311   1.399  -0.695  0.00  0.00    +0.214 C 
ATOM     26  O   UNL     1      -4.862   0.642   0.139  0.00  0.00    -0.276 OA
ATOM     27  C   UNL     1      -6.740   1.255  -1.152  0.00  0.00    +0.109 C 
ATOM     28  H   UNL     1      -4.963   3.112  -1.901  0.00  0.00    +0.155 HD
ENDBRANCH  21  24
ENDBRANCH  15  17
ENDBRANCH   1  15
TORSDOF 4
