REMARK  Name = ZINC12268306
REMARK  5 active torsions:
REMARK  status: ('A' for Active; 'I' for Inactive)
REMARK    1  A    between atoms: C_1  and  C_2
REMARK    2  A    between atoms: C_15  and  C_17
REMARK    3  A    between atoms: C_17  and  S_18
REMARK    4  A    between atoms: S_18  and  C_19
REMARK    5  A    between atoms: N_22  and  C_24
REMARK                            x       y       z     vdW  Elec       q    Type
REMARK                         _______ _______ _______ _____ _____    ______ ____
ROOT
ATOM      1  C   UNL     1      -0.019   1.526   0.010  0.00  0.00    +0.029 C 
ATOM      2  C   UNL     1       0.002  -0.004   0.002  0.00  0.00    +0.087 C 
ATOM      3  C   UNL     1       0.742  -0.509   1.242  0.00  0.00    +0.118 C 
ATOM      4  C   UNL     1       0.442  -1.968   1.466  0.00  0.00    +0.219 C 
ATOM      5  O   UNL     1       1.277  -2.803   1.191  0.00  0.00    -0.275 OA
ATOM      6  N   UNL     1      -0.751  -2.353   1.972  0.00  0.00    -0.284 N 
ATOM      7  C   UNL     1      -1.759  -1.411   2.211  0.00  0.00    +0.055 A 
ATOM      8  C   UNL     1      -2.430  -1.379   3.422  0.00  0.00    +0.025 A 
ATOM      9  C   UNL     1      -3.440  -0.456   3.624  0.00  0.00    +0.002 A 
ATOM     10  C   UNL     1      -3.783   0.432   2.620  0.00  0.00    +0.002 A 
ATOM     11  C   UNL     1      -3.111   0.412   1.412  0.00  0.00    +0.025 A 
ATOM     12  C   UNL     1      -2.089  -0.501   1.206  0.00  0.00    +0.058 A 
ATOM     13  N   UNL     1      -1.371  -0.509   0.004  0.00  0.00    -0.266 N 
ATOM     14  C   UNL     1      -1.935  -0.972  -1.130  0.00  0.00    +0.230 C 
ATOM     15  O   UNL     1      -1.302  -0.973  -2.165  0.00  0.00    -0.274 OA
ATOM     16  H   UNL     1      -0.910  -3.289   2.170  0.00  0.00    +0.155 HD
ENDROOT
BRANCH  14  17
ATOM     17  C   UNL     1      -3.350  -1.489  -1.111  0.00  0.00    +0.173 C 
BRANCH  17  18
ATOM     18  S   UNL     1      -3.816  -2.036  -2.777  0.00  0.00    -0.075 S 
BRANCH  18  19
ATOM     19  C   UNL     1      -5.474  -2.604  -2.591  0.00  0.00    +0.210 A 
ATOM     20  N   UNL     1      -6.173  -2.604  -1.451  0.00  0.00    -0.209 NA
ATOM     21  C   UNL     1      -7.369  -3.092  -1.665  0.00  0.00    +0.226 A 
ATOM     22  N   UNL     1      -7.462  -3.420  -2.968  0.00  0.00    -0.219 N 
ATOM     23  N   UNL     1      -6.226  -3.092  -3.550  0.00  0.00    -0.138 NA
BRANCH  22  24
ATOM     24  C   UNL     1      -8.573  -3.976  -3.615  0.00  0.00    +0.067 A 
ATOM     25  C   UNL     1      -9.732  -4.247  -2.900  0.00  0.00    +0.028 A 
ATOM     26  C   UNL     1     -10.827  -4.790  -3.542  0.00  0.00    +0.002 A 
ATOM     27  C   UNL     1     -10.767  -5.074  -4.894  0.00  0.00    +0.000 A 
ATOM     28  C   UNL     1      -9.613  -4.809  -5.609  0.00  0.00    +0.002 A 
ATOM     29  C   UNL     1      -8.516  -4.261  -4.973  0.00  0.00    +0.028 A 
ENDBRANCH  22  24
ENDBRANCH  18  19
ENDBRANCH  17  18
ENDBRANCH  14  17
TORSDOF 4
