REMARK  Name = ZINC02785567
REMARK  6 active torsions:
REMARK  status: ('A' for Active; 'I' for Inactive)
REMARK    1  A    between atoms: C_1  and  C_2
REMARK    2  A    between atoms: CA_3  and  C_27
REMARK    3  A    between atoms: CA_7  and  N_11
REMARK    4  A    between atoms: C_12  and  C_14
REMARK    5  A    between atoms: C_16  and  C_20
REMARK    6  A    between atoms: N_18  and  C_19
REMARK                            x       y       z     vdW  Elec       q    Type
REMARK                         _______ _______ _______ _____ _____    ______ ____
ROOT
ATOM      1  N   UNL     1      -4.777   1.929  -2.187  0.00  0.00    -0.296 N 
ATOM      2  C   UNL     1      -5.441   2.642  -3.119  0.00  0.00    +0.264 C 
ATOM      3  O   UNL     1      -5.103   3.784  -3.367  0.00  0.00    -0.268 OA
ATOM      4  H   UNL     1      -5.091   1.047  -1.937  0.00  0.00    +0.150 HD
ENDROOT
BRANCH   1  10
ATOM      5  C   UNL     1       0.137   1.514   2.522  0.00  0.00    +0.042 C 
ATOM      6  C   UNL     1      -0.699   1.550   1.268  0.00  0.00    -0.034 C 
ATOM      7  CA  UNL     1      -1.933   2.001   1.416  0.00  0.00    +0.126 C 
ATOM      8  N   UNL     1      -2.779   2.125   0.301  0.00  0.00    -0.249 N 
ATOM      9  C   UNL     1      -2.621   1.430  -1.017  0.00  0.00    +0.169 C 
ATOM     10  CA  UNL     1      -3.580   2.488  -1.554  0.00  0.00    +0.191 C 
ATOM     11  C   UNL     1      -3.794   2.905  -0.108  0.00  0.00    +0.244 C 
ATOM     12  O   UNL     1      -4.571   3.648   0.453  0.00  0.00    -0.273 OA
ATOM     13  S   UNL     1      -0.870   1.657  -1.477  0.00  0.00    -0.131 S 
ATOM     14  C   UNL     1      -0.024   1.072   0.024  0.00  0.00    +0.103 C 
BRANCH   7  15
ATOM     15  C   UNL     1      -2.425   2.375   2.755  0.00  0.00    +0.401 C 
ATOM     16  O   UNL     1      -3.559   2.789   2.892  0.00  0.00    -0.239 OA
ATOM     17  OXT UNL     1      -1.616   2.257   3.826  0.00  0.00    -0.239 OA
ENDBRANCH   7  15
ENDBRANCH   1  10
BRANCH   2  18
ATOM     18  C   UNL     1      -6.574   2.038  -3.836  0.00  0.00    +0.137 A 
ATOM     19  C   UNL     1      -7.920   2.219  -3.566  0.00  0.00    +0.080 A 
ATOM     20  C   UNL     1      -8.595   1.446  -4.516  0.00  0.00    +0.180 A 
ATOM     21  N   UNL     1      -7.698   0.860  -5.267  0.00  0.00    -0.166 NA
ATOM     22  N   UNL     1      -6.510   1.182  -4.900  0.00  0.00    -0.261 N 
ATOM     23  C   UNL     1      -5.275   0.704  -5.526  0.00  0.00    +0.173 C 
ATOM     24 BR   UNL     1      -8.684   3.287  -2.205  0.00  0.00    -0.046 Br
BRANCH  20  25
ATOM     25  C   UNL     1     -10.090   1.307  -4.647  0.00  0.00    +0.437 C 
ATOM     26  F   UNL     1     -10.385   0.358  -5.631  0.00  0.00    -0.164 F 
ATOM     27  F   UNL     1     -10.628   0.893  -3.424  0.00  0.00    -0.164 F 
ATOM     28  F   UNL     1     -10.643   2.541  -5.006  0.00  0.00    -0.164 F 
ENDBRANCH  20  25
ENDBRANCH   2  18
TORSDOF 4
