REMARK  Name = ZINC17099129
REMARK  6 active torsions:
REMARK  status: ('A' for Active; 'I' for Inactive)
REMARK    1  A    between atoms: C_1  and  C_2
REMARK    2  A    between atoms: C_9  and  N_14
REMARK    3  A    between atoms: C_10  and  C_11
REMARK    4  A    between atoms: C_15  and  C_17
REMARK    5  A    between atoms: C_17  and  N_18
REMARK    6  A    between atoms: C_24  and  C_26
REMARK                            x       y       z     vdW  Elec       q    Type
REMARK                         _______ _______ _______ _____ _____    ______ ____
ROOT
ATOM      1  N   UNL     1       0.684  -5.906   2.406  0.00  0.00    -0.278 N 
ATOM      2  C   UNL     1       1.667  -6.141   3.297  0.00  0.00    +0.232 C 
ATOM      3  O   UNL     1       2.372  -5.230   3.678  0.00  0.00    -0.274 OA
ATOM      4  H   UNL     1       0.121  -6.634   2.101  0.00  0.00    +0.155 HD
ENDROOT
BRANCH   1  12
ATOM      5  C   UNL     1      -0.050   1.436  -0.105  0.00  0.00    +0.008 C 
ATOM      6  C   UNL     1      -0.026  -0.093  -0.095  0.00  0.00    -0.009 C 
ATOM      7  C   UNL     1      -1.460  -0.629  -0.070  0.00  0.00    +0.008 C 
ATOM      8  C   UNL     1      -1.456  -2.141  -0.308  0.00  0.00    +0.037 C 
ATOM      9  C   UNL     1      -0.484  -2.785   0.670  0.00  0.00    -0.023 A 
ATOM     10  C   UNL     1       0.463  -2.058   1.300  0.00  0.00    -0.004 A 
ATOM     11  S   UNL     1       1.325  -3.225   2.312  0.00  0.00    -0.077 S 
ATOM     12  C   UNL     1       0.477  -4.622   1.925  0.00  0.00    +0.084 A 
ATOM     13  C   UNL     1      -0.476  -4.197   1.013  0.00  0.00    +0.068 A 
ATOM     14  C   UNL     1       0.714  -0.588   1.157  0.00  0.00    +0.046 C 
BRANCH  13  15
ATOM     15  C   UNL     1      -1.437  -5.132   0.421  0.00  0.00    +0.244 C 
ATOM     16  O   UNL     1      -1.165  -5.709  -0.616  0.00  0.00    -0.270 OA
ATOM     17  N   UNL     1      -2.622  -5.354   1.024  0.00  0.00    -0.325 N 
ATOM     18  H   UNL     1      -2.839  -4.894   1.850  0.00  0.00    +0.145 HD
ATOM     19  H   UNL     1      -3.258  -5.973   0.631  0.00  0.00    +0.145 HD
ENDBRANCH  13  15
ENDBRANCH   1  12
BRANCH   2  20
ATOM     20  C   UNL     1       1.892  -7.537   3.820  0.00  0.00    +0.181 C 
BRANCH  20  21
ATOM     21  N   UNL     1       3.013  -7.529   4.769  0.00  0.00    -0.291 NA
ATOM     22  C   UNL     1       4.274  -7.194   4.094  0.00  0.00    +0.104 C 
ATOM     23  C   UNL     1       5.379  -7.019   5.140  0.00  0.00    +0.123 C 
ATOM     24  N   UNL     1       5.425  -8.226   5.979  0.00  0.00    -0.297 N 
ATOM     25  C   UNL     1       4.170  -8.704   6.580  0.00  0.00    +0.123 C 
ATOM     26  C   UNL     1       3.112  -8.813   5.477  0.00  0.00    +0.104 C 
ATOM     27  C   UNL     1       6.585  -8.878   6.190  0.00  0.00    +0.245 C 
ATOM     28  O   UNL     1       6.621  -9.822   6.950  0.00  0.00    -0.273 OA
BRANCH  27  29
ATOM     29  C   UNL     1       7.839  -8.433   5.482  0.00  0.00    +0.204 C 
ATOM     30  C   UNL     1       8.342  -7.091   6.071  0.00  0.00    +0.043 C 
ATOM     31  C   UNL     1       9.852  -7.161   5.718  0.00  0.00    +0.031 C 
ATOM     32  C   UNL     1      10.149  -8.671   5.845  0.00  0.00    +0.161 C 
ATOM     33  O   UNL     1       8.903  -9.369   5.717  0.00  0.00    -0.367 OA
ENDBRANCH  27  29
ENDBRANCH  20  21
ENDBRANCH   2  20
TORSDOF 5
