REMARK  Name = ZINC08845590
REMARK  10 active torsions:
REMARK  status: ('A' for Active; 'I' for Inactive)
REMARK    1  A    between atoms: C_1  and  C_2
REMARK    2  A    between atoms: C_4  and  C_35
REMARK    3  A    between atoms: C_5  and  C_9
REMARK    4  A    between atoms: C_6  and  O_8
REMARK    5  A    between atoms: N_17  and  C_29
REMARK    6  A    between atoms: C_18  and  C_20
REMARK    7  A    between atoms: C_23  and  O_28
REMARK    8  A    between atoms: C_24  and  O_26
REMARK    9  A    between atoms: O_26  and  C_27
REMARK   10  A    between atoms: C_29  and  C_30
REMARK                            x       y       z     vdW  Elec       q    Type
REMARK                         _______ _______ _______ _____ _____    ______ ____
ROOT
ATOM      1  C   UNL     1       0.197  -4.487  -0.142  0.00  0.00    +0.102 A 
ATOM      2  C   UNL     1       0.235  -5.231   1.042  0.00  0.00    +0.035 A 
ATOM      3  C   UNL     1       0.184  -6.557   0.656  0.00  0.00    +0.126 A 
ATOM      4  N   UNL     1       0.120  -6.552  -0.709  0.00  0.00    -0.272 N 
ATOM      5  H   UNL     1       0.074  -7.344  -1.267  0.00  0.00    +0.189 HD
ATOM      6  N   UNL     1       0.123  -5.342  -1.143  0.00  0.00    -0.173 NA
ATOM      7  C   UNL     1       0.220  -7.395   1.859  0.00  0.00    +0.266 C 
ATOM      8  O   UNL     1       0.190  -8.611   1.859  0.00  0.00    -0.268 OA
ATOM      9  N   UNL     1       0.290  -6.628   2.962  0.00  0.00    -0.278 N 
ATOM     10  C   UNL     1       0.306  -5.221   2.545  0.00  0.00    +0.142 C 
ENDROOT
BRANCH   1  15
ATOM     11  C   UNL     1       0.320   1.259  -0.570  0.00  0.00    +0.044 C 
ATOM     12  C   UNL     1       0.285  -0.243  -0.456  0.00  0.00    -0.047 A 
ATOM     13  C   UNL     1       1.151  -1.012  -1.215  0.00  0.00    +0.007 A 
ATOM     14  C   UNL     1       1.126  -2.388  -1.117  0.00  0.00    -0.037 A 
ATOM     15  C   UNL     1       0.228  -3.007  -0.251  0.00  0.00    +0.047 A 
ATOM     16  C   UNL     1      -0.645  -2.229   0.514  0.00  0.00    +0.127 A 
ATOM     17  C   UNL     1      -0.606  -0.848   0.410  0.00  0.00    +0.049 A 
ATOM     18  C   UNL     1       2.070  -3.221  -1.945  0.00  0.00    +0.044 C 
BRANCH  16  19
ATOM     19  O   UNL     1      -1.525  -2.824   1.361  0.00  0.00    -0.506 OA
ATOM     20  H   UNL     1      -1.212  -2.886   2.274  0.00  0.00    +0.292 HD
ENDBRANCH  16  19
ENDBRANCH   1  15
BRANCH  10  21
ATOM     21  C   UNL     1       1.581  -4.558   2.999  0.00  0.00    -0.019 A 
ATOM     22  C   UNL     1       2.797  -5.176   2.776  0.00  0.00    +0.009 A 
ATOM     23  C   UNL     1       3.969  -4.572   3.191  0.00  0.00    +0.049 A 
ATOM     24  C   UNL     1       3.927  -3.344   3.832  0.00  0.00    +0.158 A 
ATOM     25  C   UNL     1       2.703  -2.722   4.057  0.00  0.00    +0.162 A 
ATOM     26  C   UNL     1       1.532  -3.331   3.634  0.00  0.00    +0.055 A 
BRANCH  25  27
ATOM     27  O   UNL     1       2.656  -1.517   4.686  0.00  0.00    -0.491 OA
ATOM     28  C   UNL     1       1.365  -0.938   4.882  0.00  0.00    +0.277 C 
ENDBRANCH  25  27
BRANCH  24  29
ATOM     29  O   UNL     1       5.079  -2.749   4.241  0.00  0.00    -0.503 OA
ATOM     30  H   UNL     1       5.478  -2.167   3.580  0.00  0.00    +0.292 HD
ENDBRANCH  24  29
ENDBRANCH  10  21
BRANCH   9  31
ATOM     31  C   UNL     1       0.342  -7.115   4.344  0.00  0.00    +0.183 C 
BRANCH  31  32
ATOM     32  C   UNL     1       1.778  -7.316   4.752  0.00  0.00    +0.122 A 
ATOM     33  C   UNL     1       2.568  -6.394   5.330  0.00  0.00    +0.046 A 
ATOM     34  C   UNL     1       3.826  -7.005   5.539  0.00  0.00    +0.041 A 
ATOM     35  C   UNL     1       3.729  -8.264   5.075  0.00  0.00    +0.195 A 
ATOM     36  O   UNL     1       2.485  -8.449   4.605  0.00  0.00    -0.466 OA
ENDBRANCH  31  32
ENDBRANCH   9  31
TORSDOF 7
