REMARK  Name = ZINC59120007
REMARK  7 active torsions:
REMARK  status: ('A' for Active; 'I' for Inactive)
REMARK    1  A    between atoms: C_6  and  C_7
REMARK    2  A    between atoms: C_7  and  C_9
REMARK    3  A    between atoms: C_7  and  O_25
REMARK    4  A    between atoms: C_9  and  N_10
REMARK    5  A    between atoms: C_11  and  C_13
REMARK    6  A    between atoms: N_15  and  C_16
REMARK    7  A    between atoms: C_19  and  C_23
REMARK                            x       y       z     vdW  Elec       q    Type
REMARK                         _______ _______ _______ _____ _____    ______ ____
ROOT
ATOM      1  N   UNL     1      -2.933  -1.885  -1.424  0.00  0.00    -0.305 N 
ATOM      2  C   UNL     1      -3.432  -2.377  -2.575  0.00  0.00    +0.299 C 
ATOM      3  O   UNL     1      -2.794  -2.279  -3.603  0.00  0.00    -0.265 OA
ATOM      4  H   UNL     1      -3.443  -1.963  -0.602  0.00  0.00    +0.149 HD
ENDROOT
BRANCH   2   5
ATOM      5  C   UNL     1      -4.769  -3.043  -2.587  0.00  0.00    +0.303 C 
ATOM      6  O   UNL     1      -5.407  -3.140  -1.559  0.00  0.00    -0.265 OA
ATOM      7  N   UNL     1      -5.267  -3.534  -3.738  0.00  0.00    -0.278 N 
ATOM      8  H   UNL     1      -4.788  -3.398  -4.571  0.00  0.00    +0.155 HD
BRANCH   7   9
ATOM      9  C   UNL     1      -6.469  -4.240  -3.733  0.00  0.00    +0.035 A 
ATOM     10  C   UNL     1      -7.488  -3.868  -2.860  0.00  0.00    +0.024 A 
ATOM     11  C   UNL     1      -8.677  -4.561  -2.852  0.00  0.00    +0.022 A 
ATOM     12  C   UNL     1      -8.861  -5.641  -3.720  0.00  0.00    +0.070 A 
ATOM     13  C   UNL     1      -7.835  -6.012  -4.596  0.00  0.00    +0.060 A 
ATOM     14  C   UNL     1      -6.649  -5.310  -4.603  0.00  0.00    +0.044 A 
ATOM     15 CL   UNL     1      -8.058  -7.352  -5.677  0.00  0.00    -0.082 Cl
BRANCH  12  16
ATOM     16  C   UNL     1     -10.096  -6.365  -3.713  0.00  0.00    +0.101 C 
ATOM     17  N   UNL     1     -11.076  -6.939  -3.708  0.00  0.00    -0.191 NA
ENDBRANCH  12  16
ENDBRANCH   7   9
ENDBRANCH   2   5
BRANCH   1  18
ATOM     18  C   UNL     1      -1.622  -1.232  -1.412  0.00  0.00    +0.140 C 
BRANCH  18  19
ATOM     19  C   UNL     1      -1.296  -0.768   0.009  0.00  0.00    +0.162 C 
BRANCH  19  25
ATOM     20  C   UNL     1      -0.032   1.393   0.012  0.00  0.00    +0.007 A 
ATOM     21  C   UNL     1       1.151   2.107   0.004  0.00  0.00    +0.020 A 
ATOM     22  C   UNL     1       2.362   1.439  -0.019  0.00  0.00    +0.041 A 
ATOM     23  C   UNL     1       2.389   0.056  -0.033  0.00  0.00    +0.020 A 
ATOM     24  C   UNL     1       1.205  -0.658  -0.024  0.00  0.00    +0.007 A 
ATOM     25  C   UNL     1      -0.005   0.011  -0.001  0.00  0.00    -0.018 A 
ATOM     26 CL   UNL     1       3.848   2.336  -0.030  0.00  0.00    -0.084 Cl
ENDBRANCH  19  25
BRANCH  19  27
ATOM     27  O   UNL     1      -1.158  -1.906   0.862  0.00  0.00    -0.386 OA
ATOM     28  H   UNL     1      -0.459  -2.517   0.593  0.00  0.00    +0.210 HD
ENDBRANCH  19  27
ENDBRANCH  18  19
ENDBRANCH   1  18
TORSDOF 7
