REMARK  Name = ZINC33264481
REMARK  5 active torsions:
REMARK  status: ('A' for Active; 'I' for Inactive)
REMARK    1  A    between atoms: C_1  and  N_2
REMARK    2  A    between atoms: C_9  and  C_12
REMARK    3  A    between atoms: C_16  and  C_18
REMARK    4  A    between atoms: N_20  and  C_21
REMARK    5  A    between atoms: C_21  and  C_22
REMARK                            x       y       z     vdW  Elec       q    Type
REMARK                         _______ _______ _______ _____ _____    ______ ____
ROOT
ATOM      1  C   UNL     1      -0.059   3.846   0.017  0.00  0.00    -0.042 A 
ATOM      2  C   UNL     1      -1.245   3.134   0.027  0.00  0.00    +0.004 A 
ATOM      3  C   UNL     1      -1.229   1.750   0.011  0.00  0.00    +0.001 A 
ATOM      4  C   UNL     1      -0.028   1.072  -0.002  0.00  0.00    +0.013 A 
ATOM      5  C   UNL     1       1.172   1.784  -0.012  0.00  0.00    +0.037 A 
ATOM      6  C   UNL     1       1.149   3.180  -0.002  0.00  0.00    +0.017 A 
ENDROOT
BRANCH   1  15
ATOM      7  C   UNL     1      -0.410  10.286  -3.218  0.00  0.00    +0.129 C 
ATOM      8  N   UNL     1      -0.766   9.440  -2.076  0.00  0.00    -0.302 N 
ATOM      9  C   UNL     1      -0.545   8.111  -2.126  0.00  0.00    +0.302 C 
ATOM     10  O   UNL     1       0.032   7.627  -3.080  0.00  0.00    -0.253 OA
ATOM     11  N   UNL     1      -0.964   7.320  -1.119  0.00  0.00    -0.285 N 
ATOM     12  C   UNL     1      -1.559   7.901   0.092  0.00  0.00    +0.109 C 
ATOM     13  C   UNL     1      -0.805   7.371   1.316  0.00  0.00    +0.020 C 
ATOM     14  C   UNL     1      -0.805   5.841   1.287  0.00  0.00    +0.011 C 
ATOM     15  C   UNL     1      -0.086   5.353   0.028  0.00  0.00    +0.036 C 
ATOM     16  C   UNL     1      -0.833   5.859  -1.210  0.00  0.00    +0.117 C 
ATOM     17  H   UNL     1      -1.214   9.889  -1.177  0.00  0.00    +0.150 HD
ENDBRANCH   1  15
BRANCH   5  18
ATOM     18  C   UNL     1       2.463   1.063  -0.032  0.00  0.00    +0.244 C 
ATOM     19  O   UNL     1       3.507   1.686  -0.040  0.00  0.00    -0.270 OA
ATOM     20  N   UNL     1       2.482  -0.284  -0.041  0.00  0.00    -0.307 N 
ATOM     21  H   UNL     1       1.538  -0.848  -0.033  0.00  0.00    +0.149 HD
BRANCH  20  22
ATOM     22  C   UNL     1       3.761  -0.998  -0.060  0.00  0.00    +0.140 C 
BRANCH  22  23
ATOM     23  C   UNL     1       3.507  -2.484  -0.067  0.00  0.00    -0.025 A 
ATOM     24  C   UNL     1       3.411  -3.173   1.127  0.00  0.00    +0.043 A 
ATOM     25  C   UNL     1       3.172  -4.537   1.123  0.00  0.00    +0.126 A 
ATOM     26  C   UNL     1       3.041  -5.212  -0.078  0.00  0.00    +0.076 A 
ATOM     27  C   UNL     1       3.143  -4.522  -1.274  0.00  0.00    +0.126 A 
ATOM     28  C   UNL     1       3.377  -3.157  -1.267  0.00  0.00    +0.043 A 
ATOM     29  F   UNL     1       3.015  -5.179  -2.447  0.00  0.00    -0.205 F 
ATOM     30  F   UNL     1       3.072  -5.209   2.291  0.00  0.00    -0.205 F 
ENDBRANCH  22  23
ENDBRANCH  20  22
ENDBRANCH   5  18
TORSDOF 4
