REMARK  Name = ZINC36027102
REMARK  7 active torsions:
REMARK  status: ('A' for Active; 'I' for Inactive)
REMARK    1  A    between atoms: C_1  and  C_2
REMARK    2  A    between atoms: N_6  and  C_24
REMARK    3  A    between atoms: N_11  and  S_14
REMARK    4  A    between atoms: S_14  and  C_17
REMARK    5  A    between atoms: C_24  and  C_25
REMARK    6  A    between atoms: C_25  and  O_26
REMARK    7  A    between atoms: O_26  and  C_27
REMARK                            x       y       z     vdW  Elec       q    Type
REMARK                         _______ _______ _______ _____ _____    ______ ____
ROOT
ATOM      1  C   UNL     1      -0.348   1.535  -0.256  0.00  0.00    -0.004 C 
ATOM      2  C   UNL     1      -0.327   0.007  -0.318  0.00  0.00    +0.016 C 
ATOM      3  C   UNL     1      -1.706  -0.551  -0.040  0.00  0.00    +0.200 C 
ATOM      4  O   UNL     1      -2.746  -0.136  -0.505  0.00  0.00    -0.277 OA
ATOM      5  N   UNL     1      -1.583  -1.590   0.813  0.00  0.00    -0.312 N 
ATOM      6  C   UNL     1      -0.169  -1.789   1.141  0.00  0.00    +0.006 C 
ATOM      7  N   UNL     1       0.530  -0.542   0.761  0.00  0.00    +0.401 N 
ATOM      8  C   UNL     1      -0.005  -2.038   2.639  0.00  0.00    +0.023 C 
ATOM      9  C   UNL     1      -0.762  -3.312   3.029  0.00  0.00    +0.109 C 
ATOM     10  N   UNL     1      -0.307  -4.414   2.171  0.00  0.00    -0.177 NA
ATOM     11  C   UNL     1      -0.356  -4.242   0.712  0.00  0.00    +0.109 C 
ATOM     12  C   UNL     1       0.399  -2.960   0.342  0.00  0.00    +0.023 C 
ATOM     13  H   UNL     1       1.456  -0.742   0.414  0.00  0.00    -0.082 HD
ATOM     14  H   UNL     1       0.571   0.096   1.543  0.00  0.00    -0.082 HD
ENDROOT
BRANCH  10  15
ATOM     15  S   UNL     1       0.252  -5.824   2.835  0.00  0.00    +0.061 S 
ATOM     16  O   UNL     1       1.100  -6.422   1.864  0.00  0.00    -0.153 OA
ATOM     17  O   UNL     1       0.700  -5.507   4.145  0.00  0.00    -0.153 OA
BRANCH  15  18
ATOM     18  C   UNL     1      -1.133  -6.897   3.022  0.00  0.00    +0.106 A 
ATOM     19  C   UNL     1      -1.872  -6.873   4.190  0.00  0.00    +0.031 A 
ATOM     20  C   UNL     1      -2.959  -7.714   4.338  0.00  0.00    +0.040 A 
ATOM     21  C   UNL     1      -3.308  -8.580   3.316  0.00  0.00    +0.124 A 
ATOM     22  C   UNL     1      -2.567  -8.603   2.146  0.00  0.00    +0.040 A 
ATOM     23  C   UNL     1      -1.484  -7.758   1.998  0.00  0.00    +0.031 A 
ATOM     24  F   UNL     1      -4.370  -9.402   3.459  0.00  0.00    -0.205 F 
ENDBRANCH  15  18
ENDBRANCH  10  15
BRANCH   5  25
ATOM     25  C   UNL     1      -2.693  -2.394   1.331  0.00  0.00    +0.134 C 
BRANCH  25  26
ATOM     26  C   UNL     1      -3.235  -1.752   2.609  0.00  0.00    +0.178 C 
BRANCH  26  27
ATOM     27  O   UNL     1      -3.830  -0.492   2.294  0.00  0.00    -0.381 OA
ATOM     28  C   UNL     1      -4.354   0.203   3.428  0.00  0.00    +0.194 C 
ENDBRANCH  26  27
ENDBRANCH  25  26
ENDBRANCH   5  25
TORSDOF 5
