REMARK  Name = ZINC13124422
REMARK  4 active torsions:
REMARK  status: ('A' for Active; 'I' for Inactive)
REMARK    1  A    between atoms: C_1  and  C_2
REMARK    2  A    between atoms: C_4  and  C_15
REMARK    3  A    between atoms: C_5  and  C_14
REMARK    4  A    between atoms: N_6  and  C_7
REMARK                            x       y       z     vdW  Elec       q    Type
REMARK                         _______ _______ _______ _____ _____    ______ ____
ROOT
ATOM      1  C   UNL     1       0.041  -3.353  -1.534  0.00  0.00    +0.211 C 
ATOM      2  N   UNL     1      -0.412  -3.005  -2.893  0.00  0.00    -0.293 N 
ATOM      3  C   UNL     1       0.468  -2.452  -3.784  0.00  0.00    +0.183 C 
ATOM      4  N   UNL     1       1.759  -2.728  -3.737  0.00  0.00    -0.183 NA
ATOM      5  C   UNL     1       2.212  -3.529  -2.745  0.00  0.00    +0.236 A 
ATOM      6  N   UNL     1       1.411  -3.865  -1.662  0.00  0.00    -0.285 N 
ATOM      7  C   UNL     1       2.137  -4.684  -0.852  0.00  0.00    +0.072 A 
ATOM      8  C   UNL     1       1.848  -5.333   0.343  0.00  0.00    +0.028 A 
ATOM      9  C   UNL     1       2.852  -6.106   0.902  0.00  0.00    +0.002 A 
ATOM     10  C   UNL     1       4.096  -6.237   0.309  0.00  0.00    +0.002 A 
ATOM     11  C   UNL     1       4.410  -5.602  -0.880  0.00  0.00    +0.030 A 
ATOM     12  C   UNL     1       3.410  -4.816  -1.464  0.00  0.00    +0.091 A 
ATOM     13  N   UNL     1       3.392  -4.083  -2.602  0.00  0.00    -0.210 NA
ATOM     14  N   UNL     1      -0.000  -1.595  -4.744  0.00  0.00    -0.331 N 
ATOM     15  H   UNL     1      -1.332  -3.168  -3.155  0.00  0.00    +0.151 HD
ATOM     16  H   UNL     1      -0.946  -1.386  -4.787  0.00  0.00    +0.145 HD
ATOM     17  H   UNL     1       0.614  -1.198  -5.380  0.00  0.00    +0.145 HD
ENDROOT
BRANCH   1  21
ATOM     18  C   UNL     1      -0.018   1.503   0.010  0.00  0.00    +0.064 C 
ATOM     19  C   UNL     1       0.002  -0.004   0.002  0.00  0.00    +0.021 A 
ATOM     20  C   UNL     1       0.008  -0.789  -1.095  0.00  0.00    +0.030 A 
ATOM     21  C   UNL     1       0.028  -2.128  -0.656  0.00  0.00    +0.014 A 
ATOM     22  C   UNL     1       0.034  -2.113   0.692  0.00  0.00    +0.028 A 
ATOM     23  N   UNL     1       0.024  -0.811   1.104  0.00  0.00    -0.316 N 
ATOM     24  C   UNL     1       0.054  -3.323   1.589  0.00  0.00    +0.064 C 
BRANCH  23  25
ATOM     25  C   UNL     1       0.030  -0.374   2.437  0.00  0.00    +0.065 A 
ATOM     26  C   UNL     1      -1.167  -0.180   3.111  0.00  0.00    +0.027 A 
ATOM     27  C   UNL     1      -1.158   0.249   4.424  0.00  0.00    +0.002 A 
ATOM     28  C   UNL     1       0.043   0.486   5.067  0.00  0.00    +0.002 A 
ATOM     29  C   UNL     1       1.238   0.293   4.399  0.00  0.00    +0.022 A 
ATOM     30  C   UNL     1       1.236  -0.141   3.087  0.00  0.00    +0.065 A 
ATOM     31 CL   UNL     1       2.736  -0.389   2.250  0.00  0.00    -0.081 Cl
ENDBRANCH  23  25
ENDBRANCH   1  21
TORSDOF 2
