REMARK  Name = ZINC39682408
REMARK  9 active torsions:
REMARK  status: ('A' for Active; 'I' for Inactive)
REMARK    1  A    between atoms: C_1  and  C_2
REMARK    2  A    between atoms: C_2  and  C_4
REMARK    3  A    between atoms: C_2  and  O_32
REMARK    4  A    between atoms: C_8  and  C_17
REMARK    5  A    between atoms: N_19  and  C_20
REMARK    6  A    between atoms: C_20  and  C_22
REMARK    7  A    between atoms: C_20  and  C_26
REMARK    8  A    between atoms: C_22  and  C_23
REMARK    9  A    between atoms: O_32  and  C_33
REMARK                            x       y       z     vdW  Elec       q    Type
REMARK                         _______ _______ _______ _____ _____    ______ ____
ROOT
ATOM      1  C   UNL     1       0.210   0.672   0.471  0.00  0.00    +0.256 C 
ATOM      2  O   UNL     1       1.330   0.373   0.117  0.00  0.00    -0.272 OA
ATOM      3  N   UNL     1      -0.078   0.771   1.784  0.00  0.00    -0.297 N 
ATOM      4  C   UNL     1      -1.378   1.115   2.406  0.00  0.00    +0.121 C 
ATOM      5  C   UNL     1      -1.480   0.187   3.637  0.00  0.00    +0.100 C 
ATOM      6  C   UNL     1      -0.025  -0.173   3.979  0.00  0.00    -0.004 C 
ATOM      7  C   UNL     1       0.834   0.553   2.933  0.00  0.00    +0.115 C 
ATOM      8  C   UNL     1       0.186  -1.680   3.872  0.00  0.00    -0.010 C 
ATOM      9  C   UNL     1       1.625  -2.019   4.272  0.00  0.00    -0.082 C 
ATOM     10  N   UNL     1       1.872  -1.566   5.646  0.00  0.00    +0.379 N 
ATOM     11  C   UNL     1       1.758  -0.104   5.721  0.00  0.00    -0.082 C 
ATOM     12  C   UNL     1       0.325   0.315   5.382  0.00  0.00    -0.010 C 
ATOM     13  H   UNL     1       1.195  -1.987   6.265  0.00  0.00    -0.086 HD
ATOM     14  H   UNL     1       2.800  -1.844   5.929  0.00  0.00    -0.086 HD
ENDROOT
BRANCH   5  15
ATOM     15  C   UNL     1      -2.264  -1.054   3.295  0.00  0.00    +0.219 C 
ATOM     16  O   UNL     1      -2.177  -1.540   2.187  0.00  0.00    -0.275 OA
ATOM     17  N   UNL     1      -3.060  -1.625   4.221  0.00  0.00    -0.308 N 
ATOM     18  H   UNL     1      -3.187  -1.196   5.081  0.00  0.00    +0.149 HD
BRANCH  17  19
ATOM     19  C   UNL     1      -3.733  -2.892   3.926  0.00  0.00    +0.114 C 
BRANCH  19  20
ATOM     20  C   UNL     1      -4.981  -2.624   3.124  0.00  0.00    -0.027 A 
ATOM     21  C   UNL     1      -5.776  -1.535   3.428  0.00  0.00    +0.005 A 
ATOM     22  C   UNL     1      -6.921  -1.289   2.692  0.00  0.00    +0.000 A 
ATOM     23  C   UNL     1      -7.269  -2.132   1.653  0.00  0.00    +0.000 A 
ATOM     24  C   UNL     1      -6.473  -3.220   1.350  0.00  0.00    +0.000 A 
ATOM     25  C   UNL     1      -5.327  -3.464   2.083  0.00  0.00    +0.005 A 
ENDBRANCH  19  20
BRANCH  19  26
ATOM     26  C   UNL     1      -4.109  -3.587   5.237  0.00  0.00    +0.152 C 
BRANCH  26  27
ATOM     27  C   UNL     1      -2.855  -3.982   5.973  0.00  0.00    +0.358 C 
ATOM     28  O   UNL     1      -1.762  -3.701   5.511  0.00  0.00    -0.246 OA
ATOM     29  O   UNL     1      -2.933  -4.581   7.032  0.00  0.00    -0.246 OA
ENDBRANCH  26  27
ENDBRANCH  19  26
ENDBRANCH  17  19
ENDBRANCH   5  15
BRANCH   1  31
ATOM     30  C   UNL     1      -1.293   2.400  -0.481  0.00  0.00    +0.062 C 
ATOM     31  C   UNL     1      -0.861   0.934  -0.556  0.00  0.00    +0.256 C 
BRANCH  31  32
ATOM     32  O   UNL     1      -0.348   0.655  -1.860  0.00  0.00    -0.480 OA
BRANCH  32  33
ATOM     33  C   UNL     1      -1.251   0.332  -2.823  0.00  0.00    +0.122 A 
ATOM     34  C   UNL     1      -0.816  -0.068  -4.078  0.00  0.00    +0.045 A 
ATOM     35  C   UNL     1      -1.736  -0.396  -5.055  0.00  0.00    +0.004 A 
ATOM     36  C   UNL     1      -3.090  -0.325  -4.782  0.00  0.00    +0.000 A 
ATOM     37  C   UNL     1      -3.526   0.074  -3.532  0.00  0.00    +0.004 A 
ATOM     38  C   UNL     1      -2.610   0.397  -2.550  0.00  0.00    +0.045 A 
ENDBRANCH  32  33
ENDBRANCH  31  32
ENDBRANCH   1  31
TORSDOF 8
