REMARK  Name = ZINC04515767
REMARK  8 active torsions:
REMARK  status: ('A' for Active; 'I' for Inactive)
REMARK    1  A    between atoms: C_1  and  C_2
REMARK    2  A    between atoms: C_6  and  C_26
REMARK    3  A    between atoms: C_7  and  N_8
REMARK    4  A    between atoms: C_9  and  C_11
REMARK    5  A    between atoms: C_11  and  N_12
REMARK    6  A    between atoms: C_20  and  C_22
REMARK    7  A    between atoms: C_26  and  C_27
REMARK    8  A    between atoms: C_26  and  C_28
REMARK                            x       y       z     vdW  Elec       q    Type
REMARK                         _______ _______ _______ _____ _____    ______ ____
ROOT
ATOM      1  C   UNL     1      -0.017   2.188   3.628  0.00  0.00    +0.214 C 
ENDROOT
BRANCH   1   2
ATOM      2  N   UNL     1      -0.557   3.533   3.410  0.00  0.00    -0.215 N 
ATOM      3  C   UNL     1      -1.828   3.893   3.682  0.00  0.00    +0.247 C 
ATOM      4  O   UNL     1      -2.708   3.193   4.136  0.00  0.00    -0.273 OA
ATOM      5  C   UNL     1      -1.924   5.353   3.303  0.00  0.00    +0.115 C 
ATOM      6  C   UNL     1      -2.275   6.197   4.524  0.00  0.00    +0.035 C 
ATOM      7  C   UNL     1      -2.340   7.673   4.125  0.00  0.00    +0.003 C 
ATOM      8  C   UNL     1      -3.396   7.860   3.035  0.00  0.00    +0.000 C 
ATOM      9  C   UNL     1      -3.018   7.027   1.808  0.00  0.00    +0.006 C 
ATOM     10  C   UNL     1      -2.956   5.548   2.197  0.00  0.00    +0.018 C 
ATOM     11  C   UNL     1      -2.558   4.716   0.976  0.00  0.00    +0.010 C 
ATOM     12  N   UNL     1      -0.579   5.684   2.817  0.00  0.00    -0.285 N 
ATOM     13  C   UNL     1       0.152   4.558   2.922  0.00  0.00    +0.310 C 
ATOM     14  O   UNL     1       1.323   4.480   2.607  0.00  0.00    -0.252 OA
ATOM     15  H   UNL     1      -0.276   6.544   2.487  0.00  0.00    +0.151 HD
ENDBRANCH   1   2
BRANCH   1  17
ATOM     16  N   UNL     1       0.203   0.079   2.354  0.00  0.00    -0.284 N 
ATOM     17  C   UNL     1      -0.218   1.359   2.386  0.00  0.00    +0.235 C 
ATOM     18  O   UNL     1      -0.759   1.843   1.414  0.00  0.00    -0.274 OA
ATOM     19  H   UNL     1       0.566  -0.332   3.155  0.00  0.00    +0.155 HD
BRANCH  16  26
ATOM     20  C   UNL     1      -2.383  -0.571   1.361  0.00  0.00    +0.045 C 
ATOM     21  C   UNL     1      -1.125  -0.996   0.648  0.00  0.00    -0.029 A 
ATOM     22  C   UNL     1      -1.207  -1.728  -0.521  0.00  0.00    +0.005 A 
ATOM     23  C   UNL     1      -0.054  -2.113  -1.179  0.00  0.00    +0.001 A 
ATOM     24  C   UNL     1       1.185  -1.778  -0.663  0.00  0.00    +0.006 A 
ATOM     25  C   UNL     1       1.273  -1.051   0.507  0.00  0.00    -0.023 A 
ATOM     26  C   UNL     1       0.117  -0.657   1.168  0.00  0.00    +0.040 A 
BRANCH  25  27
ATOM     27  C   UNL     1       2.623  -0.686   1.068  0.00  0.00    +0.015 C 
ATOM     28  C   UNL     1       3.415  -1.961   1.365  0.00  0.00    +0.012 C 
ATOM     29  C   UNL     1       3.387   0.163   0.049  0.00  0.00    +0.012 C 
ENDBRANCH  25  27
ENDBRANCH  16  26
ENDBRANCH   1  17
TORSDOF 4
