REMARK  Name = ZINC44424682
REMARK  4 active torsions:
REMARK  status: ('A' for Active; 'I' for Inactive)
REMARK    1  A    between atoms: C_1  and  C_2
REMARK    2  A    between atoms: C_4  and  N_9
REMARK    3  A    between atoms: C_11  and  C_16
REMARK    4  A    between atoms: C_18  and  C_21
REMARK                            x       y       z     vdW  Elec       q    Type
REMARK                         _______ _______ _______ _____ _____    ______ ____
ROOT
ATOM      1  C   UNL     1      -0.117  -5.745  -4.529  0.00  0.00    +0.177 A 
ATOM      2  N   UNL     1       0.526  -6.822  -4.984  0.00  0.00    -0.190 NA
ATOM      3  C   UNL     1      -0.342  -7.738  -5.359  0.00  0.00    +0.275 A 
ATOM      4  O   UNL     1      -1.578  -7.251  -5.144  0.00  0.00    -0.331 OA
ATOM      5  N   UNL     1      -1.401  -5.953  -4.597  0.00  0.00    -0.060 NA
ENDROOT
BRANCH   3   6
ATOM      6  C   UNL     1      -0.018  -9.061  -5.915  0.00  0.00    +0.106 A 
ATOM      7  C   UNL     1       1.236  -9.542  -6.122  0.00  0.00    +0.041 A 
ATOM      8  C   UNL     1       1.113 -10.844  -6.667  0.00  0.00    +0.000 A 
ATOM      9  C   UNL     1       2.044 -11.808  -7.075  0.00  0.00    +0.010 A 
ATOM     10  C   UNL     1       1.611 -13.002  -7.574  0.00  0.00    +0.001 A 
ATOM     11  C   UNL     1       0.253 -13.272  -7.682  0.00  0.00    +0.002 A 
ATOM     12  C   UNL     1      -0.682 -12.341  -7.287  0.00  0.00    +0.026 A 
ATOM     13  C   UNL     1      -0.264 -11.116  -6.775  0.00  0.00    +0.047 A 
ATOM     14  N   UNL     1      -0.939 -10.013  -6.303  0.00  0.00    -0.350 N 
ATOM     15  H   UNL     1      -1.903  -9.919  -6.255  0.00  0.00    +0.166 HD
ENDBRANCH   3   6
BRANCH   1  18
ATOM     16  N   UNL     1       0.028  -2.771  -2.420  0.00  0.00    -0.271 N 
ATOM     17  C   UNL     1       0.147  -4.229  -2.540  0.00  0.00    +0.125 C 
ATOM     18  C   UNL     1       0.539  -4.491  -4.011  0.00  0.00    +0.087 C 
ATOM     19  C   UNL     1      -0.028  -3.237  -4.717  0.00  0.00    +0.109 C 
ATOM     20  C   UNL     1      -0.084  -2.189  -3.627  0.00  0.00    +0.221 C 
ATOM     21  O   UNL     1      -0.207  -0.998  -3.815  0.00  0.00    -0.275 OA
BRANCH  16  25
ATOM     22  C   UNL     1       0.014   1.503   0.010  0.00  0.00    +0.045 C 
ATOM     23  C   UNL     1       0.018  -0.004   0.002  0.00  0.00    -0.030 A 
ATOM     24  C   UNL     1       0.021  -0.687  -1.198  0.00  0.00    +0.028 A 
ATOM     25  C   UNL     1       0.025  -2.076  -1.205  0.00  0.00    +0.037 A 
ATOM     26  C   UNL     1       0.024  -2.774  -0.005  0.00  0.00    +0.025 A 
ATOM     27  C   UNL     1       0.020  -2.086   1.193  0.00  0.00    +0.022 A 
ATOM     28  C   UNL     1       0.023  -0.702   1.197  0.00  0.00    +0.044 A 
ATOM     29 CL   UNL     1       0.026   0.160   2.704  0.00  0.00    -0.083 Cl
ENDBRANCH  16  25
ENDBRANCH   1  18
TORSDOF 3
