REMARK  Name = ZINC15134067
REMARK  5 active torsions:
REMARK  status: ('A' for Active; 'I' for Inactive)
REMARK    1  A    between atoms: C_1  and  C_2
REMARK    2  A    between atoms: C_5  and  N_8
REMARK    3  A    between atoms: C_12  and  N_13
REMARK    4  A    between atoms: N_13  and  C_14
REMARK    5  A    between atoms: C_24  and  C_26
REMARK                            x       y       z     vdW  Elec       q    Type
REMARK                         _______ _______ _______ _____ _____    ______ ____
ROOT
ATOM      1  N   UNL     1       0.614  -4.119  -0.062  0.00  0.00    -0.156 N 
ATOM      2  C   UNL     1       0.163  -4.873   0.961  0.00  0.00    +0.273 C 
ATOM      3  O   UNL     1      -0.173  -4.484   2.067  0.00  0.00    -0.268 OA
ATOM      4  C   UNL     1       0.158  -6.258   0.473  0.00  0.00    +0.075 C 
ATOM      5  C   UNL     1      -0.226  -7.395   1.165  0.00  0.00    +0.087 C 
ATOM      6  C   UNL     1       0.650  -6.175  -0.910  0.00  0.00    +0.070 C 
ATOM      7  N   UNL     1       0.891  -4.925  -1.166  0.00  0.00    -0.176 NA
ATOM      8  C   UNL     1       0.837  -7.330  -1.860  0.00  0.00    +0.068 C 
ENDROOT
BRANCH   1  13
ATOM      9  C   UNL     1       1.264   1.516   0.094  0.00  0.00    +0.044 C 
ATOM     10  C   UNL     1       1.092   0.019   0.052  0.00  0.00    -0.050 A 
ATOM     11  C   UNL     1       1.400  -0.679  -1.101  0.00  0.00    +0.005 A 
ATOM     12  C   UNL     1       1.243  -2.051  -1.141  0.00  0.00    +0.026 A 
ATOM     13  C   UNL     1       0.775  -2.728  -0.023  0.00  0.00    +0.060 A 
ATOM     14  C   UNL     1       0.466  -2.024   1.133  0.00  0.00    +0.026 A 
ATOM     15  C   UNL     1       0.630  -0.653   1.169  0.00  0.00    +0.005 A 
ENDBRANCH   1  13
BRANCH   5  16
ATOM     16  N   UNL     1      -0.287  -8.583   0.529  0.00  0.00    -0.319 N 
ATOM     17  H   UNL     1      -0.147  -8.628  -0.430  0.00  0.00    +0.152 HD
BRANCH  16  18
ATOM     18  C   UNL     1      -0.552  -9.747   1.250  0.00  0.00    +0.039 A 
ATOM     19  C   UNL     1      -0.757  -9.690   2.612  0.00  0.00    +0.024 A 
ATOM     20  C   UNL     1      -1.022 -10.845   3.340  0.00  0.00    +0.002 A 
ATOM     21  C   UNL     1      -1.085 -12.062   2.731  0.00  0.00    +0.008 A 
ATOM     22  C   UNL     1      -0.881 -12.164   1.345  0.00  0.00    -0.016 A 
ATOM     23  C   UNL     1      -0.617 -10.994   0.591  0.00  0.00    +0.003 A 
ATOM     24  C   UNL     1      -0.419 -11.096  -0.795  0.00  0.00    +0.010 A 
ATOM     25  C   UNL     1      -0.489 -12.316  -1.397  0.00  0.00    +0.001 A 
ATOM     26  C   UNL     1      -0.754 -13.466  -0.658  0.00  0.00    +0.001 A 
ATOM     27  C   UNL     1      -0.939 -13.406   0.690  0.00  0.00    +0.008 A 
ENDBRANCH  16  18
ENDBRANCH   5  16
TORSDOF 3
