REMARK  Name = ZINC06369023
REMARK  9 active torsions:
REMARK  status: ('A' for Active; 'I' for Inactive)
REMARK    1  A    between atoms: C_1  and  C_2
REMARK    2  A    between atoms: N_11  and  C_15
REMARK    3  A    between atoms: C_15  and  C_16
REMARK    4  A    between atoms: C_16  and  O_18
REMARK    5  A    between atoms: O_18  and  C_19
REMARK    6  A    between atoms: C_19  and  C_21
REMARK    7  A    between atoms: C_19  and  C_22
REMARK    8  A    between atoms: N_24  and  C_25
REMARK    9  A    between atoms: C_25  and  C_31
REMARK                            x       y       z     vdW  Elec       q    Type
REMARK                         _______ _______ _______ _____ _____    ______ ____
ROOT
ATOM      1  C   UNL     1      -0.014   1.204   0.009  0.00  0.00    +0.326 C 
ATOM      2  O   UNL     1       0.002  -0.004   0.002  0.00  0.00    -0.249 OA
ENDROOT
BRANCH   1   3
ATOM      3  C   UNL     1      -1.329   1.940   0.019  0.00  0.00    +0.238 C 
BRANCH   3  13
ATOM      4  C   UNL     1      -2.422  -2.345   0.585  0.00  0.00    +0.010 C 
ATOM      5  C   UNL     1      -3.784  -1.898   1.119  0.00  0.00    +0.018 C 
ATOM      6  C   UNL     1      -4.871  -2.841   0.595  0.00  0.00    +0.006 C 
ATOM      7  C   UNL     1      -6.236  -2.382   1.112  0.00  0.00    +0.000 C 
ATOM      8  C   UNL     1      -6.520  -0.964   0.613  0.00  0.00    +0.003 C 
ATOM      9  C   UNL     1      -5.441  -0.013   1.137  0.00  0.00    +0.035 C 
ATOM     10  C   UNL     1      -4.072  -0.476   0.650  0.00  0.00    +0.115 C 
ATOM     11  C   UNL     1      -2.994   0.466   1.135  0.00  0.00    +0.247 C 
ATOM     12  O   UNL     1      -2.699   0.715   2.284  0.00  0.00    -0.273 OA
ATOM     13  N   UNL     1      -2.430   0.973   0.019  0.00  0.00    -0.213 N 
ATOM     14  C   UNL     1      -3.004   0.486  -1.088  0.00  0.00    +0.310 C 
ATOM     15  O   UNL     1      -2.672   0.798  -2.215  0.00  0.00    -0.252 OA
ATOM     16  N   UNL     1      -3.990  -0.390  -0.814  0.00  0.00    -0.285 N 
ATOM     17  H   UNL     1      -4.539  -0.866  -1.456  0.00  0.00    +0.151 HD
ENDBRANCH   3  13
ENDBRANCH   1   3
BRANCH   1  18
ATOM     18  O   UNL     1       1.139   1.891   0.001  0.00  0.00    -0.451 OA
BRANCH  18  19
ATOM     19  C   UNL     1       2.367   1.117  -0.015  0.00  0.00    +0.259 C 
ATOM     20  C   UNL     1       2.785   0.853  -1.462  0.00  0.00    +0.062 C 
BRANCH  19  21
ATOM     21  C   UNL     1       3.455   1.886   0.690  0.00  0.00    +0.255 C 
ATOM     22  O   UNL     1       3.218   2.979   1.159  0.00  0.00    -0.272 OA
ATOM     23  N   UNL     1       4.691   1.359   0.798  0.00  0.00    -0.294 N 
ATOM     24  H   UNL     1       4.880   0.485   0.423  0.00  0.00    +0.150 HD
BRANCH  23  25
ATOM     25  C   UNL     1       5.748   2.107   1.483  0.00  0.00    +0.121 C 
ATOM     26  C   UNL     1       5.976   3.440   0.766  0.00  0.00    +0.041 C 
ATOM     27  C   UNL     1       7.080   4.221   1.481  0.00  0.00    +0.003 C 
ATOM     28  C   UNL     1       8.375   3.405   1.465  0.00  0.00    +0.000 C 
ATOM     29  C   UNL     1       8.147   2.073   2.181  0.00  0.00    +0.003 C 
ATOM     30  C   UNL     1       7.043   1.292   1.466  0.00  0.00    +0.041 C 
BRANCH  25  31
ATOM     31  C   UNL     1       5.346   2.361   2.876  0.00  0.00    +0.088 C 
ATOM     32  N   UNL     1       5.036   2.558   3.951  0.00  0.00    -0.194 NA
ENDBRANCH  25  31
ENDBRANCH  23  25
ENDBRANCH  19  21
ENDBRANCH  18  19
ENDBRANCH   1  18
TORSDOF 7
