REMARK  Name = ZINC01471903
REMARK  9 active torsions:
REMARK  status: ('A' for Active; 'I' for Inactive)
REMARK    1  A    between atoms: C_1  and  C_2
REMARK    2  A    between atoms: N_8  and  C_9
REMARK    3  A    between atoms: C_9  and  C_10
REMARK    4  A    between atoms: C_16  and  C_24
REMARK    5  A    between atoms: C_18  and  C_22
REMARK    6  A    between atoms: C_19  and  N_21
REMARK    7  A    between atoms: C_27  and  C_30
REMARK    8  A    between atoms: C_30  and  C_31
REMARK    9  A    between atoms: C_30  and  C_32
REMARK                            x       y       z     vdW  Elec       q    Type
REMARK                         _______ _______ _______ _____ _____    ______ ____
ROOT
ATOM      1  C   UNL     1       3.610  -3.950  -1.308  0.00  0.00    +0.064 C 
ATOM      2  C   UNL     1       2.160  -3.631  -1.048  0.00  0.00    +0.023 A 
ATOM      3  C   UNL     1       1.809  -2.381  -0.677  0.00  0.00    +0.068 A 
ATOM      4  C   UNL     1       0.454  -2.077  -0.433  0.00  0.00    +0.141 A 
ATOM      5  C   UNL     1      -0.490  -3.071  -0.580  0.00  0.00    +0.072 A 
ATOM      6  C   UNL     1      -0.080  -4.353  -0.967  0.00  0.00    +0.259 A 
ATOM      7  O   UNL     1      -0.905  -5.244  -1.101  0.00  0.00    -0.267 OA
ATOM      8  N   UNL     1       1.223  -4.605  -1.192  0.00  0.00    -0.308 N 
ATOM      9  C   UNL     1      -1.947  -2.791  -0.329  0.00  0.00    +0.103 C 
ATOM     10  C   UNL     1      -2.196  -1.309  -0.319  0.00  0.00    +0.098 C 
ATOM     11  C   UNL     1      -1.177  -0.426  -0.193  0.00  0.00    +0.199 C 
ATOM     12  O   UNL     1       0.100  -0.828  -0.063  0.00  0.00    -0.441 OA
ENDROOT
BRANCH   9  13
ATOM     13  C   UNL     1      -2.343  -3.369   1.005  0.00  0.00    -0.034 A 
ATOM     14  C   UNL     1      -1.711  -2.943   2.158  0.00  0.00    +0.005 A 
ATOM     15  C   UNL     1      -2.079  -3.469   3.383  0.00  0.00    +0.004 A 
ATOM     16  C   UNL     1      -3.071  -4.430   3.453  0.00  0.00    -0.045 A 
ATOM     17  C   UNL     1      -3.699  -4.859   2.299  0.00  0.00    +0.004 A 
ATOM     18  C   UNL     1      -3.336  -4.329   1.075  0.00  0.00    +0.005 A 
BRANCH  16  19
ATOM     19  C   UNL     1      -3.467  -5.008   4.787  0.00  0.00    +0.013 C 
ATOM     20  C   UNL     1      -2.254  -5.682   5.431  0.00  0.00    +0.012 C 
ATOM     21  C   UNL     1      -3.971  -3.888   5.698  0.00  0.00    +0.012 C 
ENDBRANCH  16  19
ENDBRANCH   9  13
BRANCH  11  22
ATOM     22  N   UNL     1      -1.455   0.918  -0.193  0.00  0.00    -0.328 N 
ATOM     23  H   UNL     1      -0.736   1.562  -0.100  0.00  0.00    +0.145 HD
ATOM     24  H   UNL     1      -2.371   1.223  -0.290  0.00  0.00    +0.145 HD
ENDBRANCH  11  22
BRANCH  10  25
ATOM     25  C   UNL     1      -3.536  -0.820  -0.448  0.00  0.00    +0.101 C 
ATOM     26  N   UNL     1      -4.599  -0.433  -0.551  0.00  0.00    -0.191 NA
ENDBRANCH  10  25
BRANCH   8  27
ATOM     27  C   UNL     1       1.638  -5.950  -1.598  0.00  0.00    +0.160 C 
BRANCH  27  28
ATOM     28  C   UNL     1       1.833  -6.806  -0.373  0.00  0.00    -0.028 A 
ATOM     29  C   UNL     1       3.096  -6.963   0.167  0.00  0.00    +0.005 A 
ATOM     30  C   UNL     1       3.274  -7.745   1.293  0.00  0.00    +0.000 A 
ATOM     31  C   UNL     1       2.190  -8.377   1.874  0.00  0.00    +0.000 A 
ATOM     32  C   UNL     1       0.928  -8.225   1.331  0.00  0.00    +0.000 A 
ATOM     33  C   UNL     1       0.750  -7.439   0.207  0.00  0.00    +0.005 A 
ENDBRANCH  27  28
ENDBRANCH   8  27
TORSDOF 6
