REMARK  Name = ZINC32091627
REMARK  5 active torsions:
REMARK  status: ('A' for Active; 'I' for Inactive)
REMARK    1  A    between atoms: C_1  and  C_2
REMARK    2  A    between atoms: C_2  and  C_3
REMARK    3  A    between atoms: C_2  and  C_4
REMARK    4  A    between atoms: C_4  and  N_5
REMARK    5  A    between atoms: N_23  and  C_24
REMARK                            x       y       z     vdW  Elec       q    Type
REMARK                         _______ _______ _______ _____ _____    ______ ____
ROOT
ATOM      1  N   UNL     1      -0.008  -0.140   2.444  0.00  0.00    -0.270 N 
ATOM      2  C   UNL     1       0.172   1.047   3.134  0.00  0.00    +0.041 A 
ATOM      3  C   UNL     1       1.046   2.102   2.867  0.00  0.00    +0.026 A 
ATOM      4  C   UNL     1       1.018   3.184   3.732  0.00  0.00    +0.040 A 
ATOM      5  C   UNL     1       0.165   3.229   4.819  0.00  0.00    +0.124 A 
ATOM      6  C   UNL     1      -0.712   2.183   5.095  0.00  0.00    +0.045 A 
ATOM      7  C   UNL     1      -0.689   1.104   4.237  0.00  0.00    -0.003 A 
ATOM      8  C   UNL     1      -1.474  -0.168   4.221  0.00  0.00    +0.112 C 
ATOM      9  C   UNL     1      -0.961  -0.912   3.007  0.00  0.00    +0.235 C 
ATOM     10  O   UNL     1      -1.334  -1.998   2.615  0.00  0.00    -0.274 OA
ATOM     11  C   UNL     1      -2.969   0.107   4.071  0.00  0.00    +0.122 C 
ATOM     12  C   UNL     1      -3.589   0.483   5.388  0.00  0.00    +0.220 C 
ATOM     13  O   UNL     1      -4.456   1.330   5.407  0.00  0.00    -0.275 OA
ATOM     14  N   UNL     1      -3.211  -0.092   6.549  0.00  0.00    -0.270 N 
ATOM     15  C   UNL     1      -2.082  -0.910   6.547  0.00  0.00    +0.133 A 
ATOM     16  C   UNL     1      -1.239  -0.975   5.467  0.00  0.00    +0.032 A 
ATOM     17  C   UNL     1      -0.224  -1.869   5.771  0.00  0.00    +0.141 A 
ATOM     18  N   UNL     1      -0.426  -2.327   6.985  0.00  0.00    -0.173 NA
ATOM     19  N   UNL     1      -1.588  -1.729   7.498  0.00  0.00    -0.218 N 
ATOM     20  F   UNL     1       0.181   4.310   5.629  0.00  0.00    -0.205 F 
ATOM     21  H   UNL     1      -3.712   0.061   7.365  0.00  0.00    +0.156 HD
ENDROOT
BRANCH  19  22
ATOM     22  C   UNL     1      -2.137  -1.944   8.770  0.00  0.00    +0.068 A 
ATOM     23  C   UNL     1      -2.764  -0.903   9.442  0.00  0.00    +0.030 A 
ATOM     24  C   UNL     1      -3.304  -1.117  10.695  0.00  0.00    +0.040 A 
ATOM     25  C   UNL     1      -3.220  -2.369  11.282  0.00  0.00    +0.124 A 
ATOM     26  C   UNL     1      -2.595  -3.408  10.613  0.00  0.00    +0.040 A 
ATOM     27  C   UNL     1      -2.058  -3.200   9.358  0.00  0.00    +0.030 A 
ATOM     28  F   UNL     1      -3.748  -2.576  12.508  0.00  0.00    -0.205 F 
ENDBRANCH  19  22
BRANCH   1  29
ATOM     29  C   UNL     1       0.742  -0.511   1.242  0.00  0.00    +0.116 C 
BRANCH  29  31
ATOM     30  C   UNL     1      -0.019   1.526   0.010  0.00  0.00    +0.009 C 
ATOM     31  C   UNL     1       0.002  -0.004   0.002  0.00  0.00    +0.001 C 
ATOM     32  C   UNL     1       0.718  -0.497  -1.257  0.00  0.00    +0.009 C 
ENDBRANCH  29  31
ENDBRANCH   1  29
TORSDOF 3
