REMARK  Name = ZINC39858253
REMARK  6 active torsions:
REMARK  status: ('A' for Active; 'I' for Inactive)
REMARK    1  A    between atoms: C_1  and  C_2
REMARK    2  A    between atoms: C_2  and  C_4
REMARK    3  A    between atoms: C_2  and  O_17
REMARK    4  A    between atoms: N_6  and  C_7
REMARK    5  A    between atoms: C_9  and  N_14
REMARK    6  A    between atoms: O_17  and  C_18
REMARK                            x       y       z     vdW  Elec       q    Type
REMARK                         _______ _______ _______ _____ _____    ______ ____
ROOT
ATOM      1  C   UNL     1       0.630  -0.496  -1.332  0.00  0.00    +0.258 C 
ATOM      2  O   UNL     1       1.663  -1.117  -1.194  0.00  0.00    -0.271 OA
ATOM      3  N   UNL     1       0.143  -0.263  -2.567  0.00  0.00    -0.281 N 
ATOM      4  H   UNL     1      -0.636   0.302  -2.682  0.00  0.00    +0.155 HD
ENDROOT
BRANCH   3   5
ATOM      5  C   UNL     1       0.763  -0.837  -3.683  0.00  0.00    +0.054 A 
ATOM      6  C   UNL     1       1.342  -2.095  -3.587  0.00  0.00    +0.057 A 
ATOM      7  C   UNL     1       1.953  -2.659  -4.690  0.00  0.00    +0.128 A 
ATOM      8  C   UNL     1       1.988  -1.972  -5.890  0.00  0.00    +0.034 A 
ATOM      9  C   UNL     1       1.412  -0.719  -5.990  0.00  0.00    +0.024 A 
ATOM     10  C   UNL     1       0.795  -0.151  -4.891  0.00  0.00    +0.062 A 
ATOM     11 CL   UNL     1       0.066   1.419  -5.019  0.00  0.00    -0.082 Cl
BRANCH   7  12
ATOM     12  N   UNL     1       2.571  -4.000  -4.588  0.00  0.00    +0.056 N 
ATOM     13  O   UNL     1       2.542  -4.601  -3.540  0.00  0.00    -0.126 OA
ATOM     14  O   UNL     1       3.106  -4.494  -5.553  0.00  0.00    -0.126 OA
ENDBRANCH   7  12
ENDBRANCH   3   5
BRANCH   1  16
ATOM     15  C   UNL     1      -0.107   1.545  -0.132  0.00  0.00    +0.062 C 
ATOM     16  C   UNL     1      -0.109   0.015  -0.122  0.00  0.00    +0.256 C 
BRANCH  16  17
ATOM     17  O   UNL     1       0.536  -0.454   1.064  0.00  0.00    -0.480 OA
BRANCH  17  18
ATOM     18  C   UNL     1      -0.227  -0.551   2.184  0.00  0.00    +0.122 A 
ATOM     19  C   UNL     1      -1.540  -0.103   2.171  0.00  0.00    +0.047 A 
ATOM     20  C   UNL     1      -2.314  -0.203   3.311  0.00  0.00    +0.019 A 
ATOM     21  C   UNL     1      -1.780  -0.748   4.465  0.00  0.00    +0.018 A 
ATOM     22  C   UNL     1      -0.471  -1.195   4.480  0.00  0.00    +0.019 A 
ATOM     23  C   UNL     1       0.304  -1.103   3.341  0.00  0.00    +0.047 A 
ATOM     24 BR   UNL     1      -2.842  -0.883   6.024  0.00  0.00    -0.050 Br
ENDBRANCH  17  18
ENDBRANCH  16  17
ENDBRANCH   1  16
TORSDOF 5
