REMARK  Name = ZINC58513719
REMARK  5 active torsions:
REMARK  status: ('A' for Active; 'I' for Inactive)
REMARK    1  A    between atoms: C_1  and  C_2
REMARK    2  A    between atoms: C_4  and  C_24
REMARK    3  A    between atoms: C_6  and  C_8
REMARK    4  A    between atoms: C_8  and  C_12
REMARK    5  A    between atoms: C_12  and  N_14
REMARK                            x       y       z     vdW  Elec       q    Type
REMARK                         _______ _______ _______ _____ _____    ______ ____
ROOT
ATOM      1  C   UNL     1       1.113  -3.916   2.527  0.00  0.00    +0.250 C 
ATOM      2  O   UNL     1       1.878  -3.981   3.471  0.00  0.00    -0.273 OA
ENDROOT
BRANCH   1   3
ATOM      3  N   UNL     1       1.211  -4.787   1.532  0.00  0.00    -0.145 NA
ATOM      4  C   UNL     1       2.150  -5.737   1.566  0.00  0.00    +0.222 A 
ATOM      5  N   UNL     1       3.053  -5.927   2.547  0.00  0.00    -0.246 N 
ATOM      6  N   UNL     1       3.846  -7.025   2.188  0.00  0.00    -0.153 NA
ATOM      7  C   UNL     1       3.425  -7.473   1.027  0.00  0.00    +0.160 A 
ATOM      8  N   UNL     1       2.363  -6.692   0.617  0.00  0.00    -0.271 N 
ATOM      9  C   UNL     1       1.733  -6.958  -0.573  0.00  0.00    +0.096 A 
ATOM     10  C   UNL     1       2.137  -7.979  -1.351  0.00  0.00    +0.018 A 
ATOM     11  C   UNL     1       3.216  -8.796  -0.957  0.00  0.00    +0.005 A 
ATOM     12  C   UNL     1       3.859  -8.547   0.210  0.00  0.00    +0.048 A 
ATOM     13  H   UNL     1       3.139  -5.399   3.356  0.00  0.00    +0.192 HD
ENDBRANCH   1   3
BRANCH   1  14
ATOM     14  C   UNL     1       0.054  -2.844   2.489  0.00  0.00    +0.074 C 
ATOM     15  C   UNL     1      -1.335  -3.332   2.935  0.00  0.00    +0.021 C 
ATOM     16  C   UNL     1      -0.923  -2.948   4.366  0.00  0.00    +0.003 C 
ATOM     17  C   UNL     1       0.048  -1.939   3.732  0.00  0.00    +0.021 C 
BRANCH  14  23
ATOM     18  C   UNL     1      -0.018   1.503   0.010  0.00  0.00    +0.044 C 
ATOM     19  C   UNL     1       0.002  -0.004   0.002  0.00  0.00    -0.050 A 
ATOM     20  C   UNL     1       0.006  -0.689  -1.199  0.00  0.00    +0.006 A 
ATOM     21  C   UNL     1       0.025  -2.071  -1.206  0.00  0.00    -0.050 A 
ATOM     22  C   UNL     1       0.040  -2.768  -0.013  0.00  0.00    +0.008 A 
ATOM     23  C   UNL     1       0.037  -2.084   1.188  0.00  0.00    -0.032 A 
ATOM     24  C   UNL     1       0.023  -0.702   1.195  0.00  0.00    +0.008 A 
ATOM     25  C   UNL     1       0.027  -2.817  -2.516  0.00  0.00    +0.044 C 
ENDBRANCH  14  23
ENDBRANCH   1  14
TORSDOF 3
