REMARK  Name = ZINC39684609
REMARK  13 active torsions:
REMARK  status: ('A' for Active; 'I' for Inactive)
REMARK    1  A    between atoms: C_1  and  C_2
REMARK    2  A    between atoms: C_4  and  C_11
REMARK    3  A    between atoms: N_5  and  C_7
REMARK    4  A    between atoms: C_7  and  C_8
REMARK    5  A    between atoms: C_7  and  C_9
REMARK    6  A    between atoms: C_7  and  C_10
REMARK    7  A    between atoms: C_15  and  C_24
REMARK    8  A    between atoms: N_26  and  C_27
REMARK    9  A    between atoms: C_27  and  C_29
REMARK   10  A    between atoms: C_27  and  C_30
REMARK   11  A    between atoms: C_30  and  C_31
REMARK   12  A    between atoms: C_30  and  C_32
REMARK   13  A    between atoms: C_30  and  C_33
REMARK                            x       y       z     vdW  Elec       q    Type
REMARK                         _______ _______ _______ _____ _____    ______ ____
ROOT
ATOM      1  C   UNL     1      -0.605  -4.089  -1.327  0.00  0.00    +0.265 C 
ATOM      2  O   UNL     1      -0.869  -3.934  -2.504  0.00  0.00    -0.268 OA
ATOM      3  N   UNL     1      -0.737  -5.305  -0.761  0.00  0.00    -0.295 N 
ATOM      4  C   UNL     1      -0.594  -5.661   0.670  0.00  0.00    +0.121 C 
ATOM      5  C   UNL     1      -1.710  -6.699   0.927  0.00  0.00    +0.100 C 
ATOM      6  C   UNL     1      -2.008  -7.305  -0.454  0.00  0.00    -0.004 C 
ATOM      7  C   UNL     1      -1.063  -6.588  -1.430  0.00  0.00    +0.115 C 
ATOM      8  C   UNL     1      -1.722  -8.803  -0.447  0.00  0.00    -0.010 C 
ATOM      9  C   UNL     1      -2.081  -9.394  -1.813  0.00  0.00    -0.082 C 
ATOM     10  N   UNL     1      -3.500  -9.148  -2.097  0.00  0.00    +0.379 N 
ATOM     11  C   UNL     1      -3.748  -7.704  -2.195  0.00  0.00    -0.082 C 
ATOM     12  C   UNL     1      -3.459  -7.042  -0.844  0.00  0.00    -0.010 C 
ATOM     13  H   UNL     1      -3.749  -9.590  -2.969  0.00  0.00    -0.086 HD
ATOM     14  H   UNL     1      -4.062  -9.535  -1.354  0.00  0.00    -0.086 HD
ENDROOT
BRANCH   1  18
ATOM     15  C   UNL     1       1.210  -1.179   2.409  0.00  0.00    +0.067 C 
ATOM     16  C   UNL     1       0.648  -1.665   1.098  0.00  0.00    +0.061 A 
ATOM     17  C   UNL     1       0.341  -2.989   0.776  0.00  0.00    +0.057 A 
ATOM     18  C   UNL     1      -0.142  -2.948  -0.520  0.00  0.00    +0.124 A 
ATOM     19  N   UNL     1      -0.102  -1.637  -0.902  0.00  0.00    -0.254 N 
ATOM     20  N   UNL     1       0.356  -0.922   0.062  0.00  0.00    -0.175 NA
BRANCH  19  21
ATOM     21  C   UNL     1      -0.523  -1.124  -2.208  0.00  0.00    +0.056 C 
ATOM     22  C   UNL     1      -1.964  -1.557  -2.485  0.00  0.00    +0.036 C 
ATOM     23  C   UNL     1      -0.440   0.404  -2.207  0.00  0.00    +0.036 C 
ATOM     24  C   UNL     1       0.396  -1.684  -3.296  0.00  0.00    +0.036 C 
ENDBRANCH  19  21
ENDBRANCH   1  18
BRANCH   5  25
ATOM     25  C   UNL     1      -1.226  -7.764   1.877  0.00  0.00    +0.218 C 
ATOM     26  O   UNL     1      -0.043  -8.020   1.950  0.00  0.00    -0.275 OA
ATOM     27  N   UNL     1      -2.109  -8.432   2.646  0.00  0.00    -0.312 N 
ATOM     28  H   UNL     1      -3.061  -8.282   2.534  0.00  0.00    +0.149 HD
BRANCH  27  29
ATOM     29  C   UNL     1      -1.631  -9.385   3.651  0.00  0.00    +0.075 C 
ATOM     30  C   UNL     1      -1.398 -10.746   2.993  0.00  0.00    +0.028 C 
BRANCH  29  31
ATOM     31  C   UNL     1      -2.679  -9.527   4.758  0.00  0.00    -0.020 C 
ATOM     32  C   UNL     1      -3.990 -10.035   4.156  0.00  0.00    +0.012 C 
ATOM     33  C   UNL     1      -2.179 -10.522   5.807  0.00  0.00    +0.012 C 
ATOM     34  C   UNL     1      -2.912  -8.166   5.416  0.00  0.00    +0.012 C 
ENDBRANCH  29  31
ENDBRANCH  27  29
ENDBRANCH   5  25
TORSDOF 5
