REMARK  Name = ZINC63698352
REMARK  5 active torsions:
REMARK  status: ('A' for Active; 'I' for Inactive)
REMARK    1  A    between atoms: C_1  and  C_2
REMARK    2  A    between atoms: C_9  and  N_12
REMARK    3  A    between atoms: C_13  and  C_15
REMARK    4  A    between atoms: N_18  and  S_21
REMARK    5  A    between atoms: S_21  and  C_24
REMARK                            x       y       z     vdW  Elec       q    Type
REMARK                         _______ _______ _______ _____ _____    ______ ____
ROOT
ATOM      1  C   UNL     1       2.668  -7.165   2.945  0.00  0.00    +0.078 C 
ATOM      2  C   UNL     1       3.875  -6.226   3.005  0.00  0.00    +0.030 C 
ATOM      3  C   UNL     1       5.151  -7.053   3.195  0.00  0.00    +0.110 C 
ATOM      4  N   UNL     1       4.989  -7.904   4.382  0.00  0.00    -0.177 NA
ATOM      5  C   UNL     1       3.813  -8.780   4.469  0.00  0.00    +0.110 C 
ATOM      6  C   UNL     1       2.552  -7.934   4.263  0.00  0.00    +0.030 C 
ENDROOT
BRANCH   1   8
ATOM      7  N   UNL     1       1.291  -5.596   1.619  0.00  0.00    -0.288 N 
ATOM      8  C   UNL     1       1.415  -6.358   2.724  0.00  0.00    +0.218 C 
ATOM      9  O   UNL     1       0.518  -6.394   3.539  0.00  0.00    -0.275 OA
ATOM     10  H   UNL     1       2.008  -5.567   0.967  0.00  0.00    +0.151 HD
BRANCH   7  19
ATOM     11  C   UNL     1      -0.018   1.503   0.010  0.00  0.00    +0.044 C 
ATOM     12  C   UNL     1       0.002  -0.004   0.002  0.00  0.00    -0.049 A 
ATOM     13  C   UNL     1       0.006  -0.700  -1.193  0.00  0.00    +0.005 A 
ATOM     14  C   UNL     1       0.025  -2.075  -1.215  0.00  0.00    +0.024 A 
ATOM     15  C   UNL     1       0.040  -2.822  -0.023  0.00  0.00    +0.043 A 
ATOM     16  C   UNL     1       0.035  -2.090   1.168  0.00  0.00    +0.032 A 
ATOM     17  C   UNL     1       0.023  -0.714   1.191  0.00  0.00    +0.020 A 
ATOM     18  S   UNL     1       0.057  -3.310   2.462  0.00  0.00    -0.082 S 
ATOM     19  C   UNL     1       0.072  -4.811   1.404  0.00  0.00    +0.224 C 
ATOM     20  N   UNL     1       0.059  -4.213   0.062  0.00  0.00    -0.316 N 
ATOM     21  H   UNL     1       0.062  -4.766  -0.735  0.00  0.00    +0.149 HD
ENDBRANCH   7  19
ENDBRANCH   1   8
BRANCH   4  22
ATOM     22  S   UNL     1       6.113  -7.878   5.598  0.00  0.00    +0.061 S 
ATOM     23  O   UNL     1       6.010  -9.124   6.274  0.00  0.00    -0.153 OA
ATOM     24  O   UNL     1       7.328  -7.423   5.019  0.00  0.00    -0.153 OA
BRANCH  22  25
ATOM     25  C   UNL     1       5.608  -6.640   6.747  0.00  0.00    +0.106 A 
ATOM     26  C   UNL     1       6.044  -5.332   6.584  0.00  0.00    +0.030 A 
ATOM     27  C   UNL     1       5.662  -4.348   7.470  0.00  0.00    +0.028 A 
ATOM     28  C   UNL     1       4.830  -4.666   8.538  0.00  0.00    +0.049 A 
ATOM     29  C   UNL     1       4.389  -5.993   8.699  0.00  0.00    +0.000 A 
ATOM     30  C   UNL     1       4.786  -6.975   7.785  0.00  0.00    +0.038 A 
ATOM     31  C   UNL     1       3.514  -6.319   9.827  0.00  0.00    +0.015 A 
ATOM     32  C   UNL     1       3.158  -5.325  10.678  0.00  0.00    +0.071 A 
ATOM     33  C   UNL     1       3.627  -4.010  10.472  0.00  0.00    +0.249 A 
ATOM     34  O   UNL     1       3.295  -3.132  11.249  0.00  0.00    -0.268 OA
ATOM     35  N   UNL     1       4.432  -3.702   9.439  0.00  0.00    -0.322 N 
ATOM     36  H   UNL     1       4.737  -2.788   9.327  0.00  0.00    +0.169 HD
ENDBRANCH  22  25
ENDBRANCH   4  22
TORSDOF 4
