REMARK  Name = ZINC05173996
REMARK  4 active torsions:
REMARK  status: ('A' for Active; 'I' for Inactive)
REMARK    1  A    between atoms: C_1  and  C_2
REMARK    2  A    between atoms: C_2  and  C_18
REMARK    3  A    between atoms: N_5  and  C_9
REMARK    4  A    between atoms: C_9  and  C_10
REMARK                            x       y       z     vdW  Elec       q    Type
REMARK                         _______ _______ _______ _____ _____    ______ ____
ROOT
ATOM      1  C   UNL     1       2.935   0.806  -1.455  0.00  0.00    +0.047 C 
ATOM      2  C   UNL     1       2.466   1.033  -0.017  0.00  0.00    +0.135 C 
ATOM      3  C   UNL     1       3.515   1.784   0.779  0.00  0.00    +0.251 C 
ATOM      4  O   UNL     1       3.943   2.897   0.558  0.00  0.00    -0.272 OA
ATOM      5  N   UNL     1       3.873   0.958   1.781  0.00  0.00    -0.215 N 
ATOM      6  C   UNL     1       3.204  -0.200   1.730  0.00  0.00    +0.310 C 
ATOM      7  O   UNL     1       3.355  -1.104   2.528  0.00  0.00    -0.252 OA
ATOM      8  N   UNL     1       2.343  -0.250   0.697  0.00  0.00    -0.281 N 
ATOM      9  H   UNL     1       1.757  -0.988   0.467  0.00  0.00    +0.152 HD
ENDROOT
BRANCH   2  10
ATOM     10  C   UNL     1       1.155   1.776   0.001  0.00  0.00    -0.015 A 
ATOM     11  C   UNL     1       1.155   3.170   0.008  0.00  0.00    +0.007 A 
ATOM     12  C   UNL     1      -0.011   3.871   0.023  0.00  0.00    +0.009 A 
ATOM     13  C   UNL     1      -1.236   3.183   0.031  0.00  0.00    -0.018 A 
ATOM     14  C   UNL     1      -2.460   3.873   0.047  0.00  0.00    +0.008 A 
ATOM     15  C   UNL     1      -3.627   3.172   0.055  0.00  0.00    +0.001 A 
ATOM     16  C   UNL     1      -3.628   1.779   0.048  0.00  0.00    +0.001 A 
ATOM     17  C   UNL     1      -2.462   1.077   0.032  0.00  0.00    +0.008 A 
ATOM     18  C   UNL     1      -1.237   1.766   0.018  0.00  0.00    -0.018 A 
ATOM     19  C   UNL     1      -0.013   1.076   0.008  0.00  0.00    +0.014 A 
ENDBRANCH   2  10
BRANCH   5  20
ATOM     20  C   UNL     1       4.874   1.285   2.800  0.00  0.00    +0.214 C 
BRANCH  20  21
ATOM     21  C   UNL     1       6.235   0.844   2.328  0.00  0.00    +0.237 C 
ATOM     22  O   UNL     1       6.357   0.308   1.246  0.00  0.00    -0.274 OA
ATOM     23  N   UNL     1       7.316   1.044   3.107  0.00  0.00    -0.264 N 
ATOM     24  C   UNL     1       8.565   0.639   2.674  0.00  0.00    +0.156 C 
ATOM     25  N   UNL     1       9.687   0.763   3.306  0.00  0.00    -0.262 NA
ATOM     26  C   UNL     1      10.938   0.299   2.750  0.00  0.00    +0.155 C 
ATOM     27  C   UNL     1      10.769  -0.341   1.354  0.00  0.00    +0.100 C 
ATOM     28  S   UNL     1       8.957  -0.167   1.133  0.00  0.00    -0.089 S 
ATOM     29  H   UNL     1       7.218   1.472   3.971  0.00  0.00    +0.157 HD
ENDBRANCH  20  21
ENDBRANCH   5  20
TORSDOF 3
