REMARK  Name = ZINC25177169
REMARK  9 active torsions:
REMARK  status: ('A' for Active; 'I' for Inactive)
REMARK    1  A    between atoms: C_1  and  C_2
REMARK    2  A    between atoms: C_2  and  N_3
REMARK    3  A    between atoms: C_4  and  C_6
REMARK    4  A    between atoms: C_6  and  C_8
REMARK    5  A    between atoms: C_6  and  N_9
REMARK    6  A    between atoms: C_10  and  C_12
REMARK    7  A    between atoms: C_21  and  N_22
REMARK    8  A    between atoms: N_22  and  S_23
REMARK    9  A    between atoms: S_23  and  C_26
REMARK                            x       y       z     vdW  Elec       q    Type
REMARK                         _______ _______ _______ _____ _____    ______ ____
ROOT
ATOM      1  C   UNL     1       2.256   1.102  -0.844  0.00  0.00    +0.062 A 
ATOM      2  C   UNL     1       3.416   1.825  -1.065  0.00  0.00    +0.023 A 
ATOM      3  C   UNL     1       3.489   3.164  -0.657  0.00  0.00    -0.017 A 
ATOM      4  C   UNL     1       4.654   3.924  -0.869  0.00  0.00    +0.008 A 
ATOM      5  C   UNL     1       4.696   5.221  -0.462  0.00  0.00    +0.001 A 
ATOM      6  C   UNL     1       3.600   5.813   0.163  0.00  0.00    +0.001 A 
ATOM      7  C   UNL     1       2.456   5.111   0.386  0.00  0.00    +0.008 A 
ATOM      8  C   UNL     1       2.373   3.767  -0.019  0.00  0.00    -0.016 A 
ATOM      9  C   UNL     1       1.203   3.020   0.193  0.00  0.00    +0.036 A 
ATOM     10  C   UNL     1       1.147   1.705  -0.209  0.00  0.00    +0.087 A 
ENDROOT
BRANCH   1  12
ATOM     11  N   UNL     1       3.232  -0.887  -1.879  0.00  0.00    -0.300 N 
ATOM     12  C   UNL     1       2.177  -0.307  -1.273  0.00  0.00    +0.247 C 
ATOM     13  O   UNL     1       1.160  -0.946  -1.081  0.00  0.00    -0.270 OA
ATOM     14  H   UNL     1       4.152  -0.310  -2.053  0.00  0.00    +0.150 HD
BRANCH  11  15
ATOM     15  C   UNL     1       3.154  -2.287  -2.306  0.00  0.00    +0.156 C 
ATOM     16  C   UNL     1       2.504  -2.362  -3.689  0.00  0.00    +0.038 C 
BRANCH  15  18
ATOM     17  N   UNL     1       4.716  -4.154  -2.741  0.00  0.00    -0.314 N 
ATOM     18  C   UNL     1       4.541  -2.870  -2.370  0.00  0.00    +0.233 C 
ATOM     19  O   UNL     1       5.501  -2.185  -2.087  0.00  0.00    -0.274 OA
ATOM     20  H   UNL     1       3.845  -4.776  -2.998  0.00  0.00    +0.149 HD
BRANCH  17  22
ATOM     21  C   UNL     1       5.983  -6.183  -3.249  0.00  0.00    +0.024 C 
ATOM     22  C   UNL     1       6.065  -4.722  -2.804  0.00  0.00    +0.101 C 
ENDBRANCH  17  22
ENDBRANCH  15  18
ENDBRANCH  11  15
ENDBRANCH   1  12
BRANCH  10  23
ATOM     23  N   UNL     1      -0.011   0.966   0.007  0.00  0.00    -0.097 NA
BRANCH  23  24
ATOM     24  S   UNL     1      -1.493   1.694  -0.117  0.00  0.00    +0.098 S 
ATOM     25  O   UNL     1      -2.464   0.665   0.020  0.00  0.00    -0.148 OA
ATOM     26  O   UNL     1      -1.460   2.829   0.738  0.00  0.00    -0.148 OA
BRANCH  24  27
ATOM     27  C   UNL     1      -1.637   2.306  -1.762  0.00  0.00    +0.148 A 
ATOM     28  C   UNL     1      -2.131   1.688  -2.863  0.00  0.00    +0.037 A 
ATOM     29  C   UNL     1      -2.145   2.370  -4.065  0.00  0.00    +0.010 A 
ATOM     30  C   UNL     1      -1.666   3.637  -4.108  0.00  0.00    +0.047 A 
ATOM     31  S   UNL     1      -1.177   3.905  -2.412  0.00  0.00    -0.077 S 
ENDBRANCH  24  27
ENDBRANCH  23  24
ENDBRANCH  10  23
TORSDOF 7
