REMARK  Name = ZINC11855699
REMARK  6 active torsions:
REMARK  status: ('A' for Active; 'I' for Inactive)
REMARK    1  A    between atoms: C_1  and  C_2
REMARK    2  A    between atoms: C_2  and  C_3
REMARK    3  A    between atoms: C_2  and  C_4
REMARK    4  A    between atoms: C_2  and  C_5
REMARK    5  A    between atoms: N_7  and  C_8
REMARK    6  A    between atoms: C_10  and  C_24
REMARK                            x       y       z     vdW  Elec       q    Type
REMARK                         _______ _______ _______ _____ _____    ______ ____
ROOT
ATOM      1  C   UNL     1      -1.137  -2.087   0.002  0.00  0.00    +0.132 A 
ATOM      2  C   UNL     1      -0.031  -2.872  -0.019  0.00  0.00    +0.074 A 
ATOM      3  C   UNL     1      -0.457  -4.218  -0.018  0.00  0.00    +0.102 A 
ATOM      4  N   UNL     1      -1.774  -4.232  -0.005  0.00  0.00    -0.162 NA
ATOM      5  N   UNL     1      -2.229  -2.908   0.008  0.00  0.00    -0.185 N 
ATOM      6  C   UNL     1      -3.549  -2.503   0.023  0.00  0.00    +0.234 A 
ATOM      7  N   UNL     1      -4.534  -3.440   0.022  0.00  0.00    -0.291 N 
ATOM      8  H   UNL     1      -4.310  -4.383   0.010  0.00  0.00    +0.172 HD
ATOM      9  C   UNL     1      -5.827  -3.050   0.043  0.00  0.00    +0.256 A 
ATOM     10  O   UNL     1      -6.725  -3.875   0.047  0.00  0.00    -0.267 OA
ATOM     11  C   UNL     1      -6.119  -1.672   0.053  0.00  0.00    +0.038 A 
ATOM     12  C   UNL     1      -5.090  -0.778   0.049  0.00  0.00    +0.053 A 
ATOM     13  N   UNL     1      -3.830  -1.219   0.034  0.00  0.00    -0.217 NA
ATOM     14  C   UNL     1      -5.634   0.635   0.062  0.00  0.00    +0.056 C 
ATOM     15  C   UNL     1      -7.113   0.501  -0.361  0.00  0.00    +0.011 C 
ATOM     16  C   UNL     1      -7.444  -0.944   0.070  0.00  0.00    +0.043 C 
ENDROOT
BRANCH   3  17
ATOM     17  C   UNL     1       0.423  -5.405  -0.033  0.00  0.00    +0.039 A 
ATOM     18  C   UNL     1       0.083  -6.731  -0.037  0.00  0.00    +0.018 A 
ATOM     19  C   UNL     1       1.088  -7.673  -0.053  0.00  0.00    +0.008 A 
ATOM     20  C   UNL     1       2.382  -7.260  -0.064  0.00  0.00    +0.046 A 
ATOM     21  S   UNL     1       2.207  -5.484  -0.060  0.00  0.00    -0.095 S 
ENDBRANCH   3  17
BRANCH   1  24
ATOM     22  C   UNL     1       0.002  -0.004   0.002  0.00  0.00    +0.224 C 
ATOM     23  O   UNL     1       1.060  -0.596  -0.011  0.00  0.00    -0.275 OA
ATOM     24  N   UNL     1      -1.156  -0.694   0.009  0.00  0.00    -0.270 N 
ATOM     25  H   UNL     1      -2.002  -0.220   0.020  0.00  0.00    +0.156 HD
BRANCH  22  27
ATOM     26  C   UNL     1       1.417   2.032  -0.001  0.00  0.00    +0.020 C 
ATOM     27  C   UNL     1      -0.018   1.503   0.010  0.00  0.00    +0.039 C 
ATOM     28  C   UNL     1      -0.758   2.010  -1.229  0.00  0.00    +0.020 C 
ATOM     29  C   UNL     1      -0.735   1.996   1.269  0.00  0.00    +0.020 C 
ENDBRANCH  22  27
ENDBRANCH   1  24
TORSDOF 3
