REMARK  Name = ZINC38818458
REMARK  5 active torsions:
REMARK  status: ('A' for Active; 'I' for Inactive)
REMARK    1  A    between atoms: C_1  and  C_2
REMARK    2  A    between atoms: N_16  and  C_19
REMARK    3  A    between atoms: C_19  and  C_20
REMARK    4  A    between atoms: N_22  and  N_23
REMARK    5  A    between atoms: C_24  and  C_25
REMARK                            x       y       z     vdW  Elec       q    Type
REMARK                         _______ _______ _______ _____ _____    ______ ____
ROOT
ATOM      1  C   UNL     1       1.667  -7.238  -1.852  0.00  0.00    +0.212 C 
ENDROOT
BRANCH   1  14
ATOM      2  C   UNL     1       0.352   1.912  -0.703  0.00  0.00    +0.008 C 
ATOM      3  C   UNL     1       0.287   0.383  -0.672  0.00  0.00    -0.009 C 
ATOM      4  C   UNL     1       1.079  -0.190  -1.853  0.00  0.00    +0.008 C 
ATOM      5  C   UNL     1       0.814  -1.691  -1.963  0.00  0.00    +0.032 C 
ATOM      6  C   UNL     1       1.074  -2.350  -0.614  0.00  0.00    -0.045 C 
ATOM      7  C   UNL     1       1.126  -1.612   0.512  0.00  0.00    -0.012 C 
ATOM      8  C   UNL     1       0.913  -0.135   0.629  0.00  0.00    +0.045 C 
ATOM      9  S   UNL     1       1.530  -2.727   1.849  0.00  0.00    -0.102 S 
ATOM     10  C   UNL     1       2.160  -4.115   0.813  0.00  0.00    +0.184 C 
ATOM     11  C   UNL     1       1.256  -3.790  -0.404  0.00  0.00    +0.137 C 
ATOM     12  C   UNL     1       1.339  -4.832  -1.429  0.00  0.00    +0.231 C 
ATOM     13  O   UNL     1       1.307  -4.585  -2.616  0.00  0.00    -0.274 OA
ATOM     14  N   UNL     1       1.455  -6.110  -0.942  0.00  0.00    -0.253 N 
ATOM     15  C   UNL     1       1.369  -6.312   0.419  0.00  0.00    +0.186 C 
ATOM     16  N   UNL     1       1.703  -5.414   1.306  0.00  0.00    -0.261 NA
ENDBRANCH   1  14
BRANCH   1  17
ATOM     17  C   UNL     1       3.145  -7.454  -2.050  0.00  0.00    +0.250 C 
ATOM     18  O   UNL     1       3.943  -6.735  -1.487  0.00  0.00    -0.272 OA
ATOM     19  N   UNL     1       3.580  -8.445  -2.853  0.00  0.00    -0.206 N 
ATOM     20  H   UNL     1       2.942  -9.019  -3.304  0.00  0.00    +0.177 HD
BRANCH  19  21
ATOM     21  N   UNL     1       4.955  -8.645  -3.037  0.00  0.00    -0.188 NA
ATOM     22  C   UNL     1       5.380  -9.673  -3.728  0.00  0.00    +0.136 C 
BRANCH  22  23
ATOM     23  C   UNL     1       4.459 -10.541  -4.332  0.00  0.00    +0.000 C 
ATOM     24  C   UNL     1       4.742 -11.679  -5.083  0.00  0.00    +0.004 A 
ATOM     25  C   UNL     1       5.956 -12.295  -5.461  0.00  0.00    +0.010 A 
ATOM     26  C   UNL     1       5.931 -13.423  -6.215  0.00  0.00    +0.001 A 
ATOM     27  C   UNL     1       4.728 -13.999  -6.633  0.00  0.00    +0.002 A 
ATOM     28  C   UNL     1       3.527 -13.463  -6.308  0.00  0.00    +0.026 A 
ATOM     29  C   UNL     1       3.471 -12.282  -5.521  0.00  0.00    +0.043 A 
ATOM     30  N   UNL     1       2.451 -11.577  -5.079  0.00  0.00    -0.380 N 
ATOM     31  C   UNL     1       2.950 -10.440  -4.299  0.00  0.00    +0.150 C 
ATOM     32  H   UNL     1       1.516 -11.780  -5.241  0.00  0.00    +0.160 HD
ENDBRANCH  22  23
ENDBRANCH  19  21
ENDBRANCH   1  17
TORSDOF 4
