REMARK  Name = ZINC65183051
REMARK  7 active torsions:
REMARK  status: ('A' for Active; 'I' for Inactive)
REMARK    1  A    between atoms: C_1  and  C_2
REMARK    2  A    between atoms: C_5  and  C_7
REMARK    3  A    between atoms: N_9  and  C_10
REMARK    4  A    between atoms: N_9  and  C_11
REMARK    5  A    between atoms: C_11  and  C_12
REMARK    6  A    between atoms: C_12  and  C_13
REMARK    7  A    between atoms: C_16  and  C_19
REMARK                            x       y       z     vdW  Elec       q    Type
REMARK                         _______ _______ _______ _____ _____    ______ ____
ROOT
ATOM      1  C   UNL     1       3.329  -6.992  -2.381  0.00  0.00    +0.139 C 
ATOM      2  N   UNL     1       3.822  -7.829  -1.543  0.00  0.00    -0.072 NA
ATOM      3  O   UNL     1       4.243  -9.012  -2.195  0.00  0.00    -0.367 OA
ATOM      4  C   UNL     1       3.953  -8.830  -3.590  0.00  0.00    +0.318 C 
ATOM      5  N   UNL     1       3.348  -7.490  -3.663  0.00  0.00    -0.291 N 
ATOM      6  H   UNL     1       3.027  -7.044  -4.462  0.00  0.00    +0.151 HD
ENDROOT
BRANCH   4   7
ATOM      7  C   UNL     1       5.239  -8.890  -4.417  0.00  0.00    +0.165 C 
ATOM      8  C   UNL     1       6.230  -7.865  -3.913  0.00  0.00    +0.012 C 
ATOM      9  C   UNL     1       7.317  -8.562  -3.510  0.00  0.00    -0.002 A 
ATOM     10  C   UNL     1       8.603  -8.152  -2.932  0.00  0.00    +0.029 A 
ATOM     11  C   UNL     1       9.516  -9.101  -2.623  0.00  0.00    +0.042 A 
ATOM     12  C   UNL     1       9.264 -10.464  -2.840  0.00  0.00    +0.022 A 
ATOM     13  C   UNL     1       8.107 -10.917  -3.366  0.00  0.00    +0.027 A 
ATOM     14  C   UNL     1       7.077 -10.006  -3.729  0.00  0.00    +0.043 A 
ATOM     15  N   UNL     1       5.887 -10.196  -4.249  0.00  0.00    -0.373 N 
ATOM     16 CL   UNL     1      11.038  -8.621  -1.940  0.00  0.00    -0.084 Cl
ATOM     17  H   UNL     1       5.500 -11.054  -4.483  0.00  0.00    +0.160 HD
ENDBRANCH   4   7
BRANCH   1  18
ATOM     18  C   UNL     1       2.789  -5.636  -2.007  0.00  0.00    +0.094 C 
BRANCH  18  19
ATOM     19  C   UNL     1       2.933  -5.428  -0.498  0.00  0.00    +0.115 C 
BRANCH  19  22
ATOM     20  C   UNL     1       1.110  -3.969   0.198  0.00  0.00    +0.253 C 
ATOM     21  O   UNL     1       0.380  -4.942   0.226  0.00  0.00    -0.269 OA
ATOM     22  N   UNL     1       2.409  -4.109  -0.134  0.00  0.00    -0.300 N 
ATOM     23  C   UNL     1       3.296  -2.943  -0.132  0.00  0.00    +0.132 C 
BRANCH  20  28
ATOM     24  C   UNL     1       0.160   1.373   1.383  0.00  0.00    +0.051 C 
ATOM     25  C   UNL     1       0.143  -0.104   1.088  0.00  0.00    -0.013 A 
ATOM     26  C   UNL     1      -0.930  -0.932   1.043  0.00  0.00    +0.011 A 
ATOM     27  C   UNL     1      -0.737  -2.261   0.753  0.00  0.00    +0.021 A 
ATOM     28  C   UNL     1       0.577  -2.643   0.526  0.00  0.00    +0.074 A 
ATOM     29  S   UNL     1       1.447  -1.101   0.731  0.00  0.00    -0.089 S 
ENDBRANCH  20  28
ENDBRANCH  19  22
ENDBRANCH  18  19
ENDBRANCH   1  18
TORSDOF 5
