REMARK  Name = ZINC13571071
REMARK  5 active torsions:
REMARK  status: ('A' for Active; 'I' for Inactive)
REMARK    1  A    between atoms: C_1  and  C_2
REMARK    2  A    between atoms: C_2  and  C_28
REMARK    3  A    between atoms: C_6  and  C_17
REMARK    4  A    between atoms: C_11  and  O_16
REMARK    5  A    between atoms: C_12  and  O_15
REMARK                            x       y       z     vdW  Elec       q    Type
REMARK                         _______ _______ _______ _____ _____    ______ ____
ROOT
ATOM      1  C   UNL     1      -0.019   1.526   0.010  0.00  0.00    +0.031 C 
ATOM      2  C   UNL     1       0.002  -0.004   0.002  0.00  0.00    +0.034 C 
ATOM      3  C   UNL     1       0.757  -0.507  -1.236  0.00  0.00    +0.096 C 
ATOM      4  C   UNL     1       2.179   0.057  -1.207  0.00  0.00    +0.187 C 
ATOM      5  C   UNL     1       3.012  -0.616  -2.306  0.00  0.00    +0.084 C 
ATOM      6  C   UNL     1       2.284  -0.436  -3.640  0.00  0.00    +0.061 C 
ATOM      7  C   UNL     1       1.871   1.005  -3.805  0.00  0.00    +0.006 A 
ATOM      8  C   UNL     1       1.544   1.463  -5.071  0.00  0.00    +0.011 A 
ATOM      9  C   UNL     1       1.158   2.775  -5.263  0.00  0.00    +0.050 A 
ATOM     10  C   UNL     1       1.096   3.643  -4.184  0.00  0.00    +0.162 A 
ATOM     11  C   UNL     1       1.424   3.190  -2.914  0.00  0.00    +0.201 A 
ATOM     12  C   UNL     1       1.815   1.866  -2.724  0.00  0.00    +0.172 A 
ATOM     13  O   UNL     1       2.140   1.461  -1.467  0.00  0.00    -0.463 OA
ATOM     14  N   UNL     1       2.798  -0.188   0.092  0.00  0.00    -0.330 N 
ATOM     15  C   UNL     1       2.077  -0.430   1.217  0.00  0.00    +0.142 C 
ATOM     16  N   UNL     1       0.712  -0.499   1.191  0.00  0.00    -0.320 N 
ATOM     17  S   UNL     1       2.872  -0.649   2.658  0.00  0.00    -0.016 SA
ATOM     18  C   UNL     1      -1.430  -0.542  -0.008  0.00  0.00    +0.031 C 
ATOM     19  H   UNL     1       0.221  -0.867   1.942  0.00  0.00    +0.148 HD
ATOM     20  H   UNL     1       3.766  -0.176   0.154  0.00  0.00    +0.165 HD
ENDROOT
BRANCH   6  21
ATOM     21  C   UNL     1       3.203  -0.826  -4.769  0.00  0.00    -0.004 A 
ATOM     22  C   UNL     1       4.402  -0.161  -4.946  0.00  0.00    +0.007 A 
ATOM     23  C   UNL     1       5.245  -0.518  -5.981  0.00  0.00    +0.000 A 
ATOM     24  C   UNL     1       4.890  -1.540  -6.842  0.00  0.00    +0.003 A 
ATOM     25  C   UNL     1       3.692  -2.206  -6.668  0.00  0.00    +0.038 A 
ATOM     26  C   UNL     1       2.849  -1.853  -5.627  0.00  0.00    +0.127 A 
ATOM     27  F   UNL     1       1.680  -2.507  -5.453  0.00  0.00    -0.205 F 
ENDBRANCH   6  21
BRANCH  11  28
ATOM     28  O   UNL     1       1.364   4.040  -1.853  0.00  0.00    -0.501 OA
ATOM     29  H   UNL     1       0.505   4.057  -1.410  0.00  0.00    +0.292 HD
ENDBRANCH  11  28
BRANCH  10  30
ATOM     30  O   UNL     1       0.714   4.935  -4.369  0.00  0.00    -0.503 OA
ATOM     31  H   UNL     1      -0.239   5.080  -4.287  0.00  0.00    +0.292 HD
ENDBRANCH  10  30
TORSDOF 3
