REMARK  Name = ZINC11911221
REMARK  9 active torsions:
REMARK  status: ('A' for Active; 'I' for Inactive)
REMARK    1  A    between atoms: C_1  and  C_2
REMARK    2  A    between atoms: C_2  and  C_4
REMARK    3  A    between atoms: C_2  and  N_9
REMARK    4  A    between atoms: C_10  and  C_12
REMARK    5  A    between atoms: C_13  and  O_36
REMARK    6  A    between atoms: C_23  and  C_24
REMARK    7  A    between atoms: C_23  and  N_65
REMARK    8  A    between atoms: C_29  and  C_30
REMARK    9  A    between atoms: O_36  and  C_37
REMARK                            x       y       z     vdW  Elec       q    Type
REMARK                         _______ _______ _______ _____ _____    ______ ____
ROOT
ATOM      1  C   UNL     1       2.552   2.753  -4.140  0.00  0.00    +0.098 A 
ATOM      2  C   UNL     1       2.757   3.962  -4.939  0.00  0.00    +0.139 A 
ATOM      3  C   UNL     1       1.769   4.925  -4.915  0.00  0.00    +0.116 A 
ATOM      4  C   UNL     1       0.623   4.700  -4.151  0.00  0.00    +0.255 A 
ATOM      5  O   UNL     1      -0.245   5.557  -4.122  0.00  0.00    -0.268 OA
ATOM      6  N   UNL     1       0.442   3.562  -3.440  0.00  0.00    -0.313 N 
ATOM      7  C   UNL     1       1.386   2.613  -3.401  0.00  0.00    +0.036 A 
ATOM      8  C   UNL     1       1.267   1.368  -2.555  0.00  0.00    +0.036 C 
ATOM      9  C   UNL     1      -0.193   0.957  -2.371  0.00  0.00    -0.072 C 
ATOM     10  C   UNL     1      -0.619   3.061  -1.265  0.00  0.00    -0.056 C 
ATOM     11  C   UNL     1      -0.836   3.432  -2.733  0.00  0.00    +0.106 C 
ATOM     12  N   UNL     1      -0.729   1.595  -1.151  0.00  0.00    +0.384 N 
ATOM     13  H   UNL     1      -1.719   1.341  -1.049  0.00  0.00    -0.081 HD
ENDROOT
BRANCH   1  15
ATOM     14  N   UNL     1       4.429   1.602  -3.081  0.00  0.00    -0.302 N 
ATOM     15  C   UNL     1       3.575   1.694  -4.119  0.00  0.00    +0.250 C 
ATOM     16  O   UNL     1       3.650   0.902  -5.039  0.00  0.00    -0.270 OA
ATOM     17  H   UNL     1       4.324   2.186  -2.313  0.00  0.00    +0.150 HD
BRANCH  14  19
ATOM     18  C   UNL     1       5.000  -0.730  -2.615  0.00  0.00    +0.036 C 
ATOM     19  C   UNL     1       5.517   0.622  -3.111  0.00  0.00    +0.136 C 
BRANCH  19  20
ATOM     20  C   UNL     1       6.639   1.088  -2.220  0.00  0.00    +0.125 A 
ATOM     21  C   UNL     1       7.953   0.985  -2.489  0.00  0.00    +0.046 A 
ATOM     22  C   UNL     1       8.642   1.544  -1.389  0.00  0.00    +0.041 A 
ATOM     23  C   UNL     1       7.708   1.956  -0.512  0.00  0.00    +0.195 A 
ATOM     24  O   UNL     1       6.497   1.682  -1.024  0.00  0.00    -0.466 OA
ENDBRANCH  19  20
ENDBRANCH  14  19
ENDBRANCH   1  15
BRANCH   2  25
ATOM     25  O   UNL     1       3.879   4.129  -5.677  0.00  0.00    -0.494 OA
ATOM     26  C   UNL     1       3.989   5.342  -6.424  0.00  0.00    +0.277 C 
ENDBRANCH   2  25
BRANCH  12  27
ATOM     27  C   UNL     1       0.014   1.122   0.036  0.00  0.00    -0.039 C 
BRANCH  27  28
ATOM     28  C   UNL     1      -0.682   1.618   1.277  0.00  0.00    -0.019 A 
ATOM     29  C   UNL     1      -0.311   2.678   2.028  0.00  0.00    +0.107 A 
ATOM     30  N   UNL     1      -1.188   2.795   3.048  0.00  0.00    -0.284 N 
ATOM     31  H   UNL     1      -1.165   3.491   3.765  0.00  0.00    +0.188 HD
ATOM     32  N   UNL     1      -2.137   1.772   2.926  0.00  0.00    -0.174 NA
ATOM     33  C   UNL     1      -1.839   1.063   1.857  0.00  0.00    +0.094 A 
BRANCH  33  34
ATOM     34  C   UNL     1      -2.589  -0.115   1.354  0.00  0.00    +0.002 A 
ATOM     35  C   UNL     1      -2.700  -0.341  -0.016  0.00  0.00    +0.010 A 
ATOM     36  C   UNL     1      -3.393  -1.441  -0.478  0.00  0.00    +0.001 A 
ATOM     37  C   UNL     1      -3.986  -2.313   0.416  0.00  0.00    +0.000 A 
ATOM     38  C   UNL     1      -3.884  -2.091   1.778  0.00  0.00    +0.001 A 
ATOM     39  C   UNL     1      -3.189  -0.997   2.251  0.00  0.00    +0.010 A 
ENDBRANCH  33  34
ENDBRANCH  27  28
ENDBRANCH  12  27
TORSDOF 7
