REMARK  Name = ZINC20484698
REMARK  4 active torsions:
REMARK  status: ('A' for Active; 'I' for Inactive)
REMARK    1  A    between atoms: C_1  and  C_2
REMARK    2  A    between atoms: C_2  and  C_4
REMARK    3  A    between atoms: C_2  and  N_14
REMARK    4  A    between atoms: C_15  and  C_17
REMARK                            x       y       z     vdW  Elec       q    Type
REMARK                         _______ _______ _______ _____ _____    ______ ____
ROOT
ATOM      1  N   UNL     1      -4.647  -0.149   0.915  0.00  0.00    -0.303 N 
ATOM      2  C   UNL     1      -5.643  -0.864   1.476  0.00  0.00    +0.267 C 
ATOM      3  O   UNL     1      -5.749  -2.050   1.236  0.00  0.00    -0.268 OA
ATOM      4  H   UNL     1      -4.552   0.925   1.132  0.00  0.00    +0.150 HD
ENDROOT
BRANCH   2   5
ATOM      5  C   UNL     1      -6.611  -0.202   2.385  0.00  0.00    +0.175 A 
ATOM      6  C   UNL     1      -7.691  -0.797   3.041  0.00  0.00    +0.069 A 
ATOM      7  C   UNL     1      -8.264   0.237   3.756  0.00  0.00    +0.178 A 
ATOM      8  O   UNL     1      -7.543   1.317   3.500  0.00  0.00    -0.353 OA
ATOM      9  N   UNL     1      -6.623   1.068   2.743  0.00  0.00    -0.073 NA
ATOM     10  C   UNL     1      -9.448  -0.044   4.584  0.00  0.00    +0.062 A 
ATOM     11  C   UNL     1     -10.252   0.954   5.112  0.00  0.00    +0.015 A 
ATOM     12  C   UNL     1     -11.373   0.610   5.845  0.00  0.00    +0.001 A 
ATOM     13  C   UNL     1     -11.687  -0.724   6.046  0.00  0.00    +0.004 A 
ATOM     14  C   UNL     1     -10.886  -1.724   5.531  0.00  0.00    +0.046 A 
ATOM     15  C   UNL     1      -9.752  -1.403   4.801  0.00  0.00    +0.132 A 
ATOM     16  O   UNL     1      -8.950  -2.378   4.310  0.00  0.00    -0.486 OA
ATOM     17  C   UNL     1      -8.246  -2.187   3.078  0.00  0.00    +0.270 C 
ENDBRANCH   2   5
BRANCH   1  19
ATOM     18  C   UNL     1      -4.266  -0.838  -1.400  0.00  0.00    +0.033 C 
ATOM     19  C   UNL     1      -3.692  -0.803   0.018  0.00  0.00    +0.101 C 
BRANCH  19  20
ATOM     20  C   UNL     1      -2.397  -0.033   0.016  0.00  0.00    -0.024 A 
ATOM     21  C   UNL     1      -2.415   1.349   0.026  0.00  0.00    +0.009 A 
ATOM     22  C   UNL     1      -1.229   2.059   0.019  0.00  0.00    +0.050 A 
ATOM     23  C   UNL     1      -0.017   1.385   0.010  0.00  0.00    +0.162 A 
ATOM     24  C   UNL     1       0.002  -0.004   0.002  0.00  0.00    +0.162 A 
ATOM     25  C   UNL     1      -1.192  -0.710   0.004  0.00  0.00    +0.055 A 
ATOM     26  O   UNL     1       1.181  -0.685  -0.007  0.00  0.00    -0.485 OA
ATOM     27  C   UNL     1       2.347   0.053  -0.387  0.00  0.00    +0.270 C 
ATOM     28  C   UNL     1       2.334   1.392   0.364  0.00  0.00    +0.270 C 
ATOM     29  O   UNL     1       1.143   2.098   0.002  0.00  0.00    -0.485 OA
ENDBRANCH  19  20
ENDBRANCH   1  19
TORSDOF 3
