REMARK  Name = ZINC53363316
REMARK  7 active torsions:
REMARK  status: ('A' for Active; 'I' for Inactive)
REMARK    1  A    between atoms: C_1  and  C_2
REMARK    2  A    between atoms: C_5  and  C_8
REMARK    3  A    between atoms: C_11  and  C_24
REMARK    4  A    between atoms: C_14  and  C_16
REMARK    5  A    between atoms: C_20  and  O_22
REMARK    6  A    between atoms: O_22  and  C_23
REMARK    7  A    between atoms: C_29  and  O_30
REMARK                            x       y       z     vdW  Elec       q    Type
REMARK                         _______ _______ _______ _____ _____    ______ ____
ROOT
ATOM      1  C   UNL     1       0.059  -4.275  -0.021  0.00  0.00    +0.204 C 
ATOM      2  N   UNL     1      -0.608  -4.774   1.187  0.00  0.00    -0.284 NA
ATOM      3  C   UNL     1      -2.053  -4.494   1.122  0.00  0.00    +0.095 C 
ATOM      4  C   UNL     1      -2.656  -5.348   0.002  0.00  0.00    +0.079 C 
ATOM      5  C   UNL     1      -1.806  -5.227  -1.233  0.00  0.00    +0.047 C 
ATOM      6  N   UNL     1      -0.617  -4.758  -1.219  0.00  0.00    -0.264 NA
ATOM      7  H   UNL     1      -0.436  -5.760   1.314  0.00  0.00    +0.125 HD
ENDROOT
BRANCH   1  12
ATOM      8  C   UNL     1      -0.018   1.503   0.010  0.00  0.00    +0.044 C 
ATOM      9  C   UNL     1       0.002  -0.004   0.002  0.00  0.00    -0.050 A 
ATOM     10  C   UNL     1       0.006  -0.689  -1.199  0.00  0.00    +0.004 A 
ATOM     11  C   UNL     1       0.025  -2.071  -1.206  0.00  0.00    +0.007 A 
ATOM     12  C   UNL     1       0.040  -2.768  -0.013  0.00  0.00    -0.009 A 
ATOM     13  C   UNL     1       0.037  -2.084   1.188  0.00  0.00    +0.007 A 
ATOM     14  C   UNL     1       0.023  -0.702   1.195  0.00  0.00    +0.004 A 
ENDBRANCH   1  12
BRANCH   3  15
ATOM     15  C   UNL     1      -2.699  -4.848   2.436  0.00  0.00    +0.012 A 
ATOM     16  C   UNL     1      -2.062  -5.708   3.310  0.00  0.00    +0.024 A 
ATOM     17  C   UNL     1      -2.655  -6.034   4.517  0.00  0.00    +0.018 A 
ATOM     18  C   UNL     1      -3.887  -5.500   4.851  0.00  0.00    +0.019 A 
ATOM     19  C   UNL     1      -4.527  -4.639   3.980  0.00  0.00    +0.047 A 
ATOM     20  C   UNL     1      -3.932  -4.307   2.772  0.00  0.00    +0.122 A 
ATOM     21 BR   UNL     1      -1.781  -7.212   5.711  0.00  0.00    -0.050 Br
BRANCH  20  22
ATOM     22  O   UNL     1      -4.557  -3.457   1.916  0.00  0.00    -0.506 OA
ATOM     23  H   UNL     1      -5.144  -3.896   1.284  0.00  0.00    +0.292 HD
ENDBRANCH  20  22
ENDBRANCH   3  15
BRANCH   5  24
ATOM     24  C   UNL     1      -2.373  -5.671  -2.522  0.00  0.00    -0.001 A 
ATOM     25  C   UNL     1      -3.671  -6.183  -2.579  0.00  0.00    +0.010 A 
ATOM     26  C   UNL     1      -4.196  -6.597  -3.785  0.00  0.00    +0.004 A 
ATOM     27  C   UNL     1      -3.442  -6.505  -4.941  0.00  0.00    +0.045 A 
ATOM     28  C   UNL     1      -2.151  -5.997  -4.895  0.00  0.00    +0.121 A 
ATOM     29  C   UNL     1      -1.615  -5.574  -3.690  0.00  0.00    +0.055 A 
BRANCH  28  30
ATOM     30  O   UNL     1      -1.415  -5.910  -6.034  0.00  0.00    -0.495 OA
ATOM     31  C   UNL     1      -2.033  -6.360  -7.242  0.00  0.00    +0.277 C 
ENDBRANCH  28  30
ENDBRANCH   5  24
TORSDOF 5
