REMARK  Name = ZINC58198349
REMARK  10 active torsions:
REMARK  status: ('A' for Active; 'I' for Inactive)
REMARK    1  A    between atoms: C_1  and  C_2
REMARK    2  A    between atoms: C_9  and  C_11
REMARK    3  A    between atoms: C_18  and  C_20
REMARK    4  A    between atoms: C_20  and  C_21
REMARK    5  A    between atoms: C_21  and  C_22
REMARK    6  A    between atoms: C_23  and  C_32
REMARK    7  A    between atoms: N_25  and  C_28
REMARK    8  A    between atoms: C_26  and  C_27
REMARK    9  A    between atoms: C_28  and  C_29
REMARK   10  A    between atoms: C_29  and  C_30
REMARK                            x       y       z     vdW  Elec       q    Type
REMARK                         _______ _______ _______ _____ _____    ______ ____
ROOT
ATOM      1  C   UNL     1       0.090  -5.594   2.249  0.00  0.00    +0.072 C 
ATOM      2  C   UNL     1      -1.339  -6.006   2.608  0.00  0.00    +0.014 C 
ATOM      3  C   UNL     1      -1.321  -7.374   3.293  0.00  0.00    +0.020 C 
ATOM      4  C   UNL     1      -0.505  -7.283   4.586  0.00  0.00    +0.108 C 
ATOM      5  N   UNL     1       0.826  -6.749   4.269  0.00  0.00    -0.301 N 
ATOM      6  C   UNL     1       0.923  -5.482   3.531  0.00  0.00    +0.119 C 
ATOM      7  C   UNL     1       1.939  -7.409   4.648  0.00  0.00    +0.216 C 
ATOM      8  O   UNL     1       3.032  -6.957   4.380  0.00  0.00    -0.276 OA
ENDROOT
BRANCH   1  17
ATOM      9  C   UNL     1      -0.018   1.503   0.010  0.00  0.00    +0.044 C 
ATOM     10  C   UNL     1       0.002  -0.004   0.002  0.00  0.00    -0.048 A 
ATOM     11  C   UNL     1       0.006  -0.687  -1.206  0.00  0.00    +0.005 A 
ATOM     12  C   UNL     1       0.024  -2.052  -1.235  0.00  0.00    +0.030 A 
ATOM     13  C   UNL     1       0.040  -2.774  -0.039  0.00  0.00    +0.089 A 
ATOM     14  C   UNL     1       0.037  -2.083   1.185  0.00  0.00    +0.066 A 
ATOM     15  C   UNL     1       0.023  -0.695   1.195  0.00  0.00    +0.031 A 
ATOM     16  N   UNL     1       0.055  -3.051   2.169  0.00  0.00    -0.342 N 
ATOM     17  C   UNL     1       0.068  -4.261   1.546  0.00  0.00    +0.113 A 
ATOM     18  N   UNL     1       0.059  -4.099   0.255  0.00  0.00    -0.232 NA
ATOM     19  H   UNL     1       0.058  -2.898   3.127  0.00  0.00    +0.167 HD
ENDBRANCH   1  17
BRANCH   7  20
ATOM     20  C   UNL     1       1.824  -8.707   5.404  0.00  0.00    +0.101 C 
BRANCH  20  21
ATOM     21  C   UNL     1       3.224  -9.244   5.710  0.00  0.00    +0.048 C 
BRANCH  21  22
ATOM     22  C   UNL     1       3.109 -10.542   6.467  0.00  0.00    -0.004 A 
ATOM     23  C   UNL     1       3.045 -10.681   7.857  0.00  0.00    +0.063 A 
ATOM     24  N   UNL     1       2.950 -11.956   8.136  0.00  0.00    -0.176 NA
ATOM     25  N   UNL     1       2.951 -12.669   6.931  0.00  0.00    -0.267 N 
ATOM     26  C   UNL     1       3.044 -11.779   5.921  0.00  0.00    +0.040 A 
ATOM     27  C   UNL     1       3.074 -12.103   4.450  0.00  0.00    +0.065 C 
ATOM     28  C   UNL     1       3.080  -9.557   8.861  0.00  0.00    +0.068 C 
BRANCH  25  29
ATOM     29  C   UNL     1       2.861 -14.125   6.790  0.00  0.00    +0.158 C 
BRANCH  29  30
ATOM     30  C   UNL     1       1.391 -14.537   6.684  0.00  0.00    +0.141 C 
BRANCH  30  31
ATOM     31  C   UNL     1       1.301 -15.999   6.543  0.00  0.00    +0.064 C 
ATOM     32  N   UNL     1       1.231 -17.128   6.434  0.00  0.00    -0.197 NA
ENDBRANCH  30  31
ENDBRANCH  29  30
ENDBRANCH  25  29
ENDBRANCH  21  22
ENDBRANCH  20  21
ENDBRANCH   7  20
TORSDOF 7
