REMARK  Name = ZINC67645010
REMARK  8 active torsions:
REMARK  status: ('A' for Active; 'I' for Inactive)
REMARK    1  A    between atoms: C_1  and  N_2
REMARK    2  A    between atoms: N_2  and  C_3
REMARK    3  A    between atoms: N_2  and  C_4
REMARK    4  A    between atoms: C_4  and  C_5
REMARK    5  A    between atoms: C_5  and  C_6
REMARK    6  A    between atoms: N_14  and  C_15
REMARK    7  A    between atoms: N_20  and  S_22
REMARK    8  A    between atoms: S_22  and  C_25
REMARK                            x       y       z     vdW  Elec       q    Type
REMARK                         _______ _______ _______ _____ _____    ______ ____
ROOT
ATOM      1  C   UNL     1      -3.512  -0.636  -1.276  0.00  0.00    -0.010 C 
ATOM      2  C   UNL     1      -4.301   0.050  -0.158  0.00  0.00    +0.022 C 
ATOM      3  C   UNL     1      -5.727  -0.509  -0.127  0.00  0.00    +0.109 C 
ATOM      4  N   UNL     1      -6.321  -0.362  -1.463  0.00  0.00    -0.286 N 
ATOM      5  C   UNL     1      -5.599  -0.906  -2.621  0.00  0.00    +0.109 C 
ATOM      6  C   UNL     1      -4.175  -0.343  -2.624  0.00  0.00    +0.022 C 
ATOM      7  C   UNL     1      -7.506   0.260  -1.623  0.00  0.00    +0.302 C 
ATOM      8  O   UNL     1      -8.138   0.625  -0.650  0.00  0.00    -0.253 OA
ATOM      9  N   UNL     1      -7.991   0.478  -2.861  0.00  0.00    -0.295 N 
ATOM     10  H   UNL     1      -7.525   0.123  -3.634  0.00  0.00    +0.151 HD
ENDROOT
BRANCH   9  11
ATOM     11  C   UNL     1      -9.223   1.251  -3.040  0.00  0.00    +0.090 C 
ATOM     12  C   UNL     1     -10.433   0.326  -2.890  0.00  0.00    +0.025 C 
ATOM     13  C   UNL     1     -11.721   1.138  -3.044  0.00  0.00    +0.019 C 
ATOM     14  C   UNL     1     -11.761   1.764  -4.442  0.00  0.00    +0.109 C 
ATOM     15  N   UNL     1     -10.530   2.539  -4.649  0.00  0.00    -0.180 NA
ATOM     16  C   UNL     1      -9.235   1.879  -4.438  0.00  0.00    +0.131 C 
BRANCH  15  17
ATOM     17  S   UNL     1     -10.601   4.128  -5.111  0.00  0.00    +0.029 S 
ATOM     18  O   UNL     1      -9.374   4.363  -5.789  0.00  0.00    -0.158 OA
ATOM     19  O   UNL     1     -11.841   4.252  -5.793  0.00  0.00    -0.158 OA
ATOM     20  C   UNL     1     -10.646   5.064  -3.558  0.00  0.00    +0.215 C 
ENDBRANCH  15  17
ENDBRANCH   9  11
BRANCH   1  21
ATOM     21  C   UNL     1      -2.078  -0.105  -1.287  0.00  0.00    -0.015 C 
BRANCH  21  22
ATOM     22  C   UNL     1      -1.375  -0.506   0.012  0.00  0.00    -0.079 C 
BRANCH  22  24
ATOM     23  C   UNL     1      -0.019   1.472   0.009  0.00  0.00    -0.097 C 
ATOM     24  N   UNL     1       0.003   0.004   0.001  0.00  0.00    +0.376 N 
ATOM     25  C   UNL     1       0.714  -0.482   1.191  0.00  0.00    -0.097 C 
ATOM     26  H   UNL     1       0.475  -0.321  -0.829  0.00  0.00    -0.083 HD
ENDBRANCH  22  24
ENDBRANCH  21  22
ENDBRANCH   1  21
TORSDOF 5
