REMARK  Name = ZINC29385871
REMARK  7 active torsions:
REMARK  status: ('A' for Active; 'I' for Inactive)
REMARK    1  A    between atoms: C_1  and  C_2
REMARK    2  A    between atoms: C_5  and  C_8
REMARK    3  A    between atoms: C_8  and  N_9
REMARK    4  A    between atoms: C_16  and  C_18
REMARK    5  A    between atoms: C_18  and  S_19
REMARK    6  A    between atoms: S_19  and  C_20
REMARK    7  A    between atoms: C_20  and  C_21
REMARK                            x       y       z     vdW  Elec       q    Type
REMARK                         _______ _______ _______ _____ _____    ______ ____
ROOT
ATOM      1  N   UNL     1       1.520  -4.758  -0.031  0.00  0.00    -0.331 N 
ATOM      2  C   UNL     1       2.222  -4.744  -1.190  0.00  0.00    +0.088 A 
ATOM      3  C   UNL     1       3.577  -4.726  -1.179  0.00  0.00    +0.018 A 
ATOM      4  C   UNL     1       4.268  -4.723   0.037  0.00  0.00    +0.005 A 
ATOM      5  C   UNL     1       3.565  -4.737   1.210  0.00  0.00    +0.042 A 
ATOM      6  C   UNL     1       2.165  -4.750   1.170  0.00  0.00    +0.105 A 
ATOM      7  N   UNL     1       1.460  -4.758   2.311  0.00  0.00    -0.271 N 
ATOM      8  C   UNL     1       2.054  -5.069   3.454  0.00  0.00    +0.228 C 
ATOM      9  O   UNL     1       3.206  -5.460   3.454  0.00  0.00    -0.275 OA
ATOM     10  H   UNL     1       0.516  -4.537   2.300  0.00  0.00    +0.156 HD
ENDROOT
BRANCH   1  11
ATOM     11  C   UNL     1       0.056  -4.777  -0.069  0.00  0.00    +0.158 C 
BRANCH  11  16
ATOM     12  C   UNL     1      -1.944   0.644  -0.119  0.00  0.00    +0.044 C 
ATOM     13  C   UNL     1      -1.422  -0.770  -0.106  0.00  0.00    -0.050 A 
ATOM     14  C   UNL     1      -1.151  -1.418  -1.297  0.00  0.00    +0.004 A 
ATOM     15  C   UNL     1      -0.673  -2.715  -1.285  0.00  0.00    +0.005 A 
ATOM     16  C   UNL     1      -0.465  -3.363  -0.082  0.00  0.00    -0.028 A 
ATOM     17  C   UNL     1      -0.735  -2.715   1.109  0.00  0.00    +0.005 A 
ATOM     18  C   UNL     1      -1.209  -1.417   1.097  0.00  0.00    +0.004 A 
ENDBRANCH  11  16
ENDBRANCH   1  11
BRANCH   8  19
ATOM     19  C   UNL     1       1.302  -4.938   4.753  0.00  0.00    +0.165 C 
BRANCH  19  20
ATOM     20  S   UNL     1       2.378  -5.435   6.127  0.00  0.00    -0.144 S 
BRANCH  20  21
ATOM     21  C   UNL     1       1.338  -5.222   7.598  0.00  0.00    +0.143 C 
BRANCH  21  22
ATOM     22  C   UNL     1       2.122  -5.606   8.827  0.00  0.00    +0.121 A 
ATOM     23  N   UNL     1       1.529  -5.527  10.046  0.00  0.00    -0.310 N 
ATOM     24  H   UNL     1       0.609  -5.226  10.109  0.00  0.00    +0.170 HD
ATOM     25  C   UNL     1       2.193  -5.860  11.170  0.00  0.00    +0.260 A 
ATOM     26  O   UNL     1       1.648  -5.785  12.258  0.00  0.00    -0.267 OA
ATOM     27  C   UNL     1       3.551  -6.305  11.062  0.00  0.00    +0.075 A 
ATOM     28  C   UNL     1       4.458  -6.716  12.143  0.00  0.00    -0.023 A 
ATOM     29  C   UNL     1       5.697  -7.095  11.785  0.00  0.00    -0.004 A 
ATOM     30  S   UNL     1       5.733  -6.934  10.015  0.00  0.00    -0.073 S 
ATOM     31  C   UNL     1       4.076  -6.354   9.764  0.00  0.00    +0.116 A 
ATOM     32  N   UNL     1       3.356  -6.013   8.698  0.00  0.00    -0.226 NA
ATOM     33  C   UNL     1       6.537  -7.487  12.971  0.00  0.00    +0.043 C 
ATOM     34  C   UNL     1       5.791  -6.894  14.187  0.00  0.00    +0.010 C 
ATOM     35  C   UNL     1       4.342  -6.831  13.666  0.00  0.00    +0.037 C 
ENDBRANCH  21  22
ENDBRANCH  20  21
ENDBRANCH  19  20
ENDBRANCH   8  19
TORSDOF 6
