REMARK  Name = ZINC04163693
REMARK  6 active torsions:
REMARK  status: ('A' for Active; 'I' for Inactive)
REMARK    1  A    between atoms: C_1  and  C_2
REMARK    2  A    between atoms: C_5  and  C_8
REMARK    3  A    between atoms: C_8  and  C_10
REMARK    4  A    between atoms: C_12  and  C_24
REMARK    5  A    between atoms: C_18  and  C_19
REMARK    6  A    between atoms: C_18  and  O_23
REMARK                            x       y       z     vdW  Elec       q    Type
REMARK                         _______ _______ _______ _____ _____    ______ ____
ROOT
ATOM      1  C   UNL     1       0.491  -5.167   1.682  0.00  0.00    +0.144 C 
ATOM      2  C   UNL     1       1.093  -6.486   1.188  0.00  0.00    +0.120 C 
ATOM      3  N   UNL     1       0.350  -6.942   0.012  0.00  0.00    -0.292 N 
ATOM      4  C   UNL     1      -0.945  -6.637  -0.157  0.00  0.00    +0.302 C 
ATOM      5  O   UNL     1      -1.518  -7.051  -1.147  0.00  0.00    -0.253 OA
ATOM      6  N   UNL     1      -1.634  -5.895   0.723  0.00  0.00    -0.264 N 
ATOM      7  C   UNL     1      -1.005  -5.375   1.943  0.00  0.00    +0.243 C 
ATOM      8  H   UNL     1       0.804  -7.476  -0.659  0.00  0.00    +0.151 HD
ATOM      9  H   UNL     1      -2.567  -5.696   0.549  0.00  0.00    +0.153 HD
ENDROOT
BRANCH   2  10
ATOM     10  C   UNL     1       2.539  -6.275   0.821  0.00  0.00    -0.026 A 
ATOM     11  C   UNL     1       2.870  -5.795  -0.432  0.00  0.00    +0.008 A 
ATOM     12  C   UNL     1       4.196  -5.600  -0.770  0.00  0.00    +0.038 A 
ATOM     13  C   UNL     1       5.193  -5.885   0.148  0.00  0.00    +0.123 A 
ATOM     14  C   UNL     1       4.859  -6.365   1.403  0.00  0.00    +0.038 A 
ATOM     15  C   UNL     1       3.533  -6.555   1.740  0.00  0.00    +0.008 A 
ATOM     16  F   UNL     1       6.489  -5.695  -0.181  0.00  0.00    -0.205 F 
ENDBRANCH   2  10
BRANCH   7  17
ATOM     17  C   UNL     1      -1.647  -4.041   2.329  0.00  0.00    +0.436 C 
ATOM     18  F   UNL     1      -1.598  -3.167   1.238  0.00  0.00    -0.166 F 
ATOM     19  F   UNL     1      -2.980  -4.255   2.696  0.00  0.00    -0.166 F 
ATOM     20  F   UNL     1      -0.951  -3.482   3.406  0.00  0.00    -0.166 F 
ENDBRANCH   7  17
BRANCH   1  21
ATOM     21  C   UNL     1       0.677  -4.101   0.632  0.00  0.00    +0.173 C 
ATOM     22  O   UNL     1       0.127  -4.206  -0.443  0.00  0.00    -0.292 OA
BRANCH  21  27
ATOM     23  C   UNL     1       3.997   0.462   1.727  0.00  0.00    +0.044 C 
ATOM     24  C   UNL     1       3.127  -0.734   1.440  0.00  0.00    -0.050 A 
ATOM     25  C   UNL     1       2.593  -0.909   0.175  0.00  0.00    +0.004 A 
ATOM     26  C   UNL     1       1.796  -2.001  -0.095  0.00  0.00    +0.011 A 
ATOM     27  C   UNL     1       1.528  -2.933   0.912  0.00  0.00    +0.018 A 
ATOM     28  C   UNL     1       2.071  -2.749   2.188  0.00  0.00    +0.011 A 
ATOM     29  C   UNL     1       2.871  -1.655   2.441  0.00  0.00    +0.004 A 
ENDBRANCH  21  27
ENDBRANCH   1  21
BRANCH   7  30
ATOM     30  O   UNL     1      -1.177  -6.315   3.006  0.00  0.00    -0.364 OA
ATOM     31  H   UNL     1      -2.102  -6.495   3.225  0.00  0.00    +0.212 HD
ENDBRANCH   7  30
TORSDOF 5
