REMARK  Name = ZINC41584810
REMARK  5 active torsions:
REMARK  status: ('A' for Active; 'I' for Inactive)
REMARK    1  A    between atoms: C_4  and  C_7
REMARK    2  A    between atoms: C_13  and  O_39
REMARK    3  A    between atoms: C_14  and  C_22
REMARK    4  A    between atoms: C_17  and  C_18
REMARK    5  A    between atoms: C_22  and  N_23
REMARK                            x       y       z     vdW  Elec       q    Type
REMARK                         _______ _______ _______ _____ _____    ______ ____
ROOT
ATOM      1  C   UNL     1       3.726  -0.640  -0.017  0.00  0.00    +0.076 A 
ATOM      2  C   UNL     1       4.589  -0.619  -1.213  0.00  0.00    +0.201 A 
ATOM      3  O   UNL     1       4.428   0.189  -2.112  0.00  0.00    -0.286 OA
ATOM      4  C   UNL     1       5.659  -1.633  -1.256  0.00  0.00    +0.065 A 
ATOM      5  C   UNL     1       6.373  -1.889  -2.426  0.00  0.00    +0.019 A 
ATOM      6  C   UNL     1       7.353  -2.841  -2.426  0.00  0.00    +0.046 A 
ATOM      7  C   UNL     1       7.638  -3.556  -1.265  0.00  0.00    +0.122 A 
ATOM      8  C   UNL     1       6.939  -3.311  -0.095  0.00  0.00    +0.020 A 
ATOM      9  C   UNL     1       5.942  -2.344  -0.076  0.00  0.00    +0.144 A 
ATOM     10  O   UNL     1       5.261  -2.083   1.056  0.00  0.00    -0.450 OA
ATOM     11  C   UNL     1       4.126  -1.382   1.049  0.00  0.00    +0.219 A 
ENDROOT
BRANCH   1  15
ATOM     12  C   UNL     1       0.099   1.575   0.101  0.00  0.00    +0.000 A 
ATOM     13  C   UNL     1       0.167   0.403  -0.631  0.00  0.00    +0.001 A 
ATOM     14  C   UNL     1       1.342  -0.320  -0.673  0.00  0.00    +0.009 A 
ATOM     15  C   UNL     1       2.461   0.133   0.024  0.00  0.00    -0.011 A 
ATOM     16  C   UNL     1       2.386   1.314   0.760  0.00  0.00    +0.009 A 
ATOM     17  C   UNL     1       1.206   2.029   0.795  0.00  0.00    +0.001 A 
ENDBRANCH   1  15
BRANCH  11  18
ATOM     18  C   UNL     1       3.246  -1.421   2.272  0.00  0.00    +0.451 C 
ATOM     19  F   UNL     1       2.033  -0.781   1.995  0.00  0.00    -0.163 F 
ATOM     20  F   UNL     1       3.001  -2.751   2.629  0.00  0.00    -0.163 F 
ATOM     21  F   UNL     1       3.888  -0.765   3.329  0.00  0.00    -0.163 F 
ENDBRANCH  11  18
BRANCH   7  22
ATOM     22  O   UNL     1       8.612  -4.502  -1.280  0.00  0.00    -0.506 OA
ATOM     23  H   UNL     1       9.491  -4.166  -1.056  0.00  0.00    +0.292 HD
ENDBRANCH   7  22
BRANCH   8  24
ATOM     24  C   UNL     1       7.259  -4.092   1.153  0.00  0.00    -0.036 C 
BRANCH  24  25
ATOM     25  N   UNL     1       8.297  -3.388   1.918  0.00  0.00    +0.383 N 
ATOM     26  C   UNL     1       8.516  -4.079   3.192  0.00  0.00    -0.073 C 
ATOM     27  C   UNL     1       9.589  -3.384   4.017  0.00  0.00    -0.007 C 
ATOM     28  C   UNL     1      10.895  -3.273   3.225  0.00  0.00    +0.011 C 
ATOM     29  C   UNL     1      10.578  -2.534   1.919  0.00  0.00    +0.020 C 
ATOM     30  C   UNL     1       9.546  -3.367   1.142  0.00  0.00    -0.069 C 
ATOM     31  C   UNL     1       9.948  -1.199   2.248  0.00  0.00    +0.023 A 
ATOM     32  C   UNL     1      10.132  -0.183   1.363  0.00  0.00    +0.022 A 
ATOM     33  C   UNL     1       9.524   1.060   1.573  0.00  0.00    +0.007 A 
ATOM     34  C   UNL     1       8.724   1.226   2.665  0.00  0.00    +0.070 A 
ATOM     35  C   UNL     1       8.553   0.157   3.555  0.00  0.00    +0.251 A 
ATOM     36  O   UNL     1       7.790   0.275   4.501  0.00  0.00    -0.268 OA
ATOM     37  N   UNL     1       9.224  -1.007   3.375  0.00  0.00    -0.312 N 
ATOM     38  C   UNL     1       9.155  -1.993   4.450  0.00  0.00    +0.126 C 
ATOM     39  H   UNL     1       7.998  -2.442   2.098  0.00  0.00    -0.081 HD
ENDBRANCH  24  25
ENDBRANCH   8  24
TORSDOF 5
