REMARK  Name = ZINC13181742
REMARK  7 active torsions:
REMARK  status: ('A' for Active; 'I' for Inactive)
REMARK    1  A    between atoms: C_1  and  C_2
REMARK    2  A    between atoms: C_5  and  C_8
REMARK    3  A    between atoms: C_8  and  C_10
REMARK    4  A    between atoms: C_8  and  N_13
REMARK    5  A    between atoms: C_10  and  C_11
REMARK    6  A    between atoms: C_14  and  C_16
REMARK    7  A    between atoms: C_17  and  C_18
REMARK                            x       y       z     vdW  Elec       q    Type
REMARK                         _______ _______ _______ _____ _____    ______ ____
ROOT
ATOM      1  N   UNL     1      -3.364   1.600   1.052  0.00  0.00    -0.304 N 
ATOM      2  C   UNL     1      -4.400   0.916   1.576  0.00  0.00    +0.237 C 
ATOM      3  O   UNL     1      -4.582  -0.246   1.264  0.00  0.00    -0.271 OA
ATOM      4  H   UNL     1      -3.176   2.503   1.353  0.00  0.00    +0.150 HD
ENDROOT
BRANCH   2   5
ATOM      5  C   UNL     1      -5.305   1.571   2.520  0.00  0.00    +0.068 C 
ATOM      6  C   UNL     1      -6.343   0.886   3.045  0.00  0.00    +0.013 C 
BRANCH   6   7
ATOM      7  C   UNL     1      -7.253   1.544   3.994  0.00  0.00    -0.020 A 
ATOM      8  C   UNL     1      -8.333   0.838   4.535  0.00  0.00    +0.057 A 
ATOM      9  C   UNL     1      -9.184   1.458   5.431  0.00  0.00    +0.164 A 
ATOM     10  C   UNL     1      -8.971   2.788   5.787  0.00  0.00    +0.180 A 
ATOM     11  C   UNL     1      -7.901   3.492   5.244  0.00  0.00    +0.087 A 
ATOM     12  C   UNL     1      -7.046   2.880   4.354  0.00  0.00    +0.031 A 
ATOM     13 CL   UNL     1      -7.642   5.150   5.691  0.00  0.00    -0.080 Cl
ATOM     14  O   UNL     1      -9.799   3.413   6.667  0.00  0.00    -0.483 OA
ATOM     15  C   UNL     1     -11.070   2.799   6.902  0.00  0.00    +0.270 C 
ATOM     16  C   UNL     1     -10.845   1.297   7.125  0.00  0.00    +0.270 C 
ATOM     17  O   UNL     1     -10.229   0.758   5.950  0.00  0.00    -0.485 OA
ENDBRANCH   6   7
ENDBRANCH   2   5
BRANCH   1  18
ATOM     18  C   UNL     1      -2.520   0.979   0.027  0.00  0.00    +0.114 C 
BRANCH  18  23
ATOM     19  C   UNL     1       1.780  -1.930   2.565  0.00  0.00    +0.044 C 
ATOM     20  C   UNL     1       0.657  -1.173   1.905  0.00  0.00    -0.050 A 
ATOM     21  C   UNL     1       0.022  -1.704   0.797  0.00  0.00    +0.004 A 
ATOM     22  C   UNL     1      -1.008  -1.009   0.192  0.00  0.00    +0.006 A 
ATOM     23  C   UNL     1      -1.401   0.219   0.691  0.00  0.00    -0.027 A 
ATOM     24  C   UNL     1      -0.770   0.747   1.802  0.00  0.00    +0.006 A 
ATOM     25  C   UNL     1       0.261   0.053   2.407  0.00  0.00    +0.004 A 
ENDBRANCH  18  23
BRANCH  18  26
ATOM     26  C   UNL     1      -1.933   2.065  -0.876  0.00  0.00    +0.152 C 
BRANCH  26  27
ATOM     27  C   UNL     1      -3.043   2.734  -1.645  0.00  0.00    +0.358 C 
ATOM     28  O   UNL     1      -4.173   2.313  -1.563  0.00  0.00    -0.246 OA
ATOM     29  O   UNL     1      -2.778   3.797  -2.421  0.00  0.00    -0.246 OA
ENDBRANCH  26  27
ENDBRANCH  18  26
ENDBRANCH   1  18
TORSDOF 6
