REMARK  Name = ZINC55149063
REMARK  5 active torsions:
REMARK  status: ('A' for Active; 'I' for Inactive)
REMARK    1  A    between atoms: C_4  and  C_7
REMARK    2  A    between atoms: C_7  and  C_9
REMARK    3  A    between atoms: C_7  and  N_12
REMARK    4  A    between atoms: C_13  and  C_15
REMARK    5  A    between atoms: C_16  and  C_17
REMARK                            x       y       z     vdW  Elec       q    Type
REMARK                         _______ _______ _______ _____ _____    ______ ____
ROOT
ATOM      1  N   UNL     1       3.611  -1.865  -0.930  0.00  0.00    -0.297 N 
ATOM      2  C   UNL     1       4.721  -2.370  -1.504  0.00  0.00    +0.238 C 
ATOM      3  O   UNL     1       5.807  -1.865  -1.280  0.00  0.00    -0.271 OA
ATOM      4  H   UNL     1       2.747  -2.267  -1.108  0.00  0.00    +0.150 HD
ENDROOT
BRANCH   2   5
ATOM      5  C   UNL     1       4.625  -3.483  -2.362  0.00  0.00    +0.069 C 
ATOM      6  C   UNL     1       5.747  -3.995  -2.942  0.00  0.00    +0.034 C 
BRANCH   6   7
ATOM      7  C   UNL     1       5.651  -5.107  -3.800  0.00  0.00    +0.085 A 
ATOM      8  C   UNL     1       4.988  -6.295  -3.540  0.00  0.00    +0.156 A 
ATOM      9  N   UNL     1       5.134  -7.085  -4.598  0.00  0.00    -0.209 NA
ATOM     10  C   UNL     1       5.847  -6.472  -5.510  0.00  0.00    +0.179 A 
ATOM     11  N   UNL     1       6.205  -5.223  -5.088  0.00  0.00    -0.292 N 
ATOM     12  C   UNL     1       6.955  -4.460  -5.952  0.00  0.00    +0.101 A 
ATOM     13  C   UNL     1       7.306  -4.932  -7.149  0.00  0.00    +0.067 A 
ATOM     14  S   UNL     1       6.578  -6.562  -7.129  0.00  0.00    -0.058 S 
ATOM     15 CL   UNL     1       4.120  -6.684  -2.088  0.00  0.00    -0.060 Cl
ENDBRANCH   6   7
ENDBRANCH   2   5
BRANCH   1  16
ATOM     16  C   UNL     1       3.711  -0.707  -0.038  0.00  0.00    +0.189 C 
BRANCH  16  20
ATOM     17  C   UNL     1      -0.017   1.378   0.010  0.00  0.00    +0.000 A 
ATOM     18  C   UNL     1       1.171   2.086   0.002  0.00  0.00    +0.000 A 
ATOM     19  C   UNL     1       2.377   1.411  -0.013  0.00  0.00    +0.006 A 
ATOM     20  C   UNL     1       2.396   0.029  -0.020  0.00  0.00    -0.018 A 
ATOM     21  C   UNL     1       1.208  -0.679  -0.012  0.00  0.00    +0.006 A 
ATOM     22  C   UNL     1       0.002  -0.004   0.002  0.00  0.00    +0.000 A 
ENDBRANCH  16  20
BRANCH  16  23
ATOM     23  C   UNL     1       4.044  -1.175   1.356  0.00  0.00    +0.235 C 
ATOM     24  O   UNL     1       4.184  -2.358   1.581  0.00  0.00    -0.274 OA
ATOM     25  N   UNL     1       4.186  -0.278   2.352  0.00  0.00    -0.328 N 
ATOM     26  H   UNL     1       4.074   0.669   2.172  0.00  0.00    +0.145 HD
ATOM     27  H   UNL     1       4.400  -0.579   3.249  0.00  0.00    +0.145 HD
ENDBRANCH  16  23
ENDBRANCH   1  16
TORSDOF 5
