REMARK  Name = ZINC06785114
REMARK  4 active torsions:
REMARK  status: ('A' for Active; 'I' for Inactive)
REMARK    1  A    between atoms: C_4  and  O_27
REMARK    2  A    between atoms: C_5  and  C_7
REMARK    3  A    between atoms: C_9  and  C_20
REMARK    4  A    between atoms: C_11  and  C_14
REMARK                            x       y       z     vdW  Elec       q    Type
REMARK                         _______ _______ _______ _____ _____    ______ ____
ROOT
ATOM      1  C   UNL     1       5.544   1.881  -1.525  0.00  0.00    +0.044 C 
ATOM      2  N   UNL     1       4.696   1.397  -0.698  0.00  0.00    -0.298 NA
ATOM      3  C   UNL     1       3.672   2.183  -0.021  0.00  0.00    +0.081 C 
ATOM      4  C   UNL     1       4.756   4.148  -0.904  0.00  0.00    -0.013 C 
ATOM      5  C   UNL     1       5.578   3.335  -1.909  0.00  0.00    +0.046 C 
ATOM      6  N   UNL     1       3.462   3.467  -0.707  0.00  0.00    +0.402 N 
ATOM      7  H   UNL     1       2.848   4.061  -0.137  0.00  0.00    -0.081 HD
ATOM      8  H   UNL     1       3.023   3.298  -1.619  0.00  0.00    -0.081 HD
ENDROOT
BRANCH   3   9
ATOM      9  C   UNL     1       2.377   1.411  -0.013  0.00  0.00    -0.040 A 
ATOM     10  C   UNL     1       1.171   2.086   0.002  0.00  0.00    +0.005 A 
ATOM     11  C   UNL     1      -0.017   1.379   0.010  0.00  0.00    +0.020 A 
ATOM     12  C   UNL     1       0.002  -0.004   0.002  0.00  0.00    +0.041 A 
ATOM     13  C   UNL     1       1.210  -0.679  -0.013  0.00  0.00    +0.020 A 
ATOM     14  C   UNL     1       2.397   0.029  -0.021  0.00  0.00    +0.005 A 
ATOM     15 CL   UNL     1      -1.489  -0.893   0.012  0.00  0.00    -0.084 Cl
ENDBRANCH   3   9
BRANCH   1  20
ATOM     16  C   UNL     1       8.398   0.607  -3.601  0.00  0.00    +0.001 A 
ATOM     17  C   UNL     1       8.396  -0.739  -3.270  0.00  0.00    +0.004 A 
ATOM     18  C   UNL     1       7.471  -1.236  -2.373  0.00  0.00    +0.046 A 
ATOM     19  C   UNL     1       6.535  -0.390  -1.798  0.00  0.00    +0.126 A 
ATOM     20  C   UNL     1       6.534   0.972  -2.130  0.00  0.00    +0.037 A 
ATOM     21  C   UNL     1       7.472   1.461  -3.042  0.00  0.00    +0.013 A 
BRANCH  19  22
ATOM     22  O   UNL     1       5.625  -0.877  -0.918  0.00  0.00    -0.506 OA
ATOM     23  H   UNL     1       4.804  -1.182  -1.329  0.00  0.00    +0.292 HD
ENDBRANCH  19  22
ENDBRANCH   1  20
BRANCH   4  24
ATOM     24  C   UNL     1       4.520   5.535  -1.444  0.00  0.00    +0.028 A 
ATOM     25  C   UNL     1       3.227   6.006  -1.574  0.00  0.00    +0.021 A 
ATOM     26  C   UNL     1       3.020   7.283  -2.071  0.00  0.00    +0.003 A 
ATOM     27  C   UNL     1       4.127   8.042  -2.422  0.00  0.00    +0.020 A 
ATOM     28  C   UNL     1       5.390   7.504  -2.265  0.00  0.00    +0.111 A 
ATOM     29  N   UNL     1       5.549   6.286  -1.783  0.00  0.00    -0.262 NA
ENDBRANCH   4  24
TORSDOF 4
