REMARK  Name = ZINC39656459
REMARK  9 active torsions:
REMARK  status: ('A' for Active; 'I' for Inactive)
REMARK    1  A    between atoms: C_1  and  C_2
REMARK    2  A    between atoms: C_2  and  S_3
REMARK    3  A    between atoms: S_3  and  C_4
REMARK    4  A    between atoms: C_4  and  C_5
REMARK    5  A    between atoms: C_5  and  N_6
REMARK    6  A    between atoms: C_7  and  C_9
REMARK    7  A    between atoms: C_20  and  C_22
REMARK    8  A    between atoms: C_23  and  C_35
REMARK    9  A    between atoms: C_26  and  C_27
REMARK                            x       y       z     vdW  Elec       q    Type
REMARK                         _______ _______ _______ _____ _____    ______ ____
ROOT
ATOM      1  C   UNL     1      -2.924  -6.133  -0.160  0.00  0.00    +0.100 C 
ATOM      2  C   UNL     1      -2.520  -6.818  -1.485  0.00  0.00    +0.121 C 
ATOM      3  N   UNL     1      -3.424  -7.987  -1.593  0.00  0.00    -0.296 N 
ATOM      4  C   UNL     1      -4.732  -7.489  -1.104  0.00  0.00    +0.115 C 
ATOM      5  C   UNL     1      -4.377  -6.575   0.086  0.00  0.00    -0.004 C 
ATOM      6  C   UNL     1      -4.478  -7.351   1.395  0.00  0.00    -0.010 C 
ATOM      7  C   UNL     1      -5.940  -7.731   1.646  0.00  0.00    -0.082 C 
ATOM      8  N   UNL     1      -6.759  -6.515   1.710  0.00  0.00    +0.379 N 
ATOM      9  C   UNL     1      -6.730  -5.823   0.416  0.00  0.00    -0.082 C 
ATOM     10  C   UNL     1      -5.302  -5.362   0.113  0.00  0.00    -0.010 C 
ATOM     11  C   UNL     1      -3.124  -9.224  -2.036  0.00  0.00    +0.252 C 
ATOM     12  O   UNL     1      -3.984 -10.084  -2.065  0.00  0.00    -0.270 OA
ATOM     13  H   UNL     1      -7.711  -6.763   1.936  0.00  0.00    -0.086 HD
ATOM     14  H   UNL     1      -6.396  -5.903   2.425  0.00  0.00    -0.086 HD
ENDROOT
BRANCH  11  15
ATOM     15  C   UNL     1      -1.756  -9.535  -2.484  0.00  0.00    +0.106 A 
ATOM     16  C   UNL     1      -0.737 -10.012  -1.714  0.00  0.00    +0.147 A 
ATOM     17  O   UNL     1       0.340 -10.162  -2.491  0.00  0.00    -0.359 OA
ATOM     18  N   UNL     1       0.025  -9.774  -3.813  0.00  0.00    -0.077 NA
ATOM     19  C   UNL     1      -1.228  -9.396  -3.850  0.00  0.00    +0.130 A 
ATOM     20  C   UNL     1      -0.811 -10.317  -0.241  0.00  0.00    +0.090 C 
BRANCH  19  21
ATOM     21  C   UNL     1      -1.971  -8.917  -5.040  0.00  0.00    +0.058 A 
ATOM     22  C   UNL     1      -3.204  -9.482  -5.371  0.00  0.00    +0.134 A 
ATOM     23  C   UNL     1      -3.892  -9.029  -6.481  0.00  0.00    +0.039 A 
ATOM     24  C   UNL     1      -3.361  -8.020  -7.263  0.00  0.00    +0.004 A 
ATOM     25  C   UNL     1      -2.139  -7.457  -6.940  0.00  0.00    +0.021 A 
ATOM     26  C   UNL     1      -1.444  -7.896  -5.830  0.00  0.00    +0.053 A 
ATOM     27 CL   UNL     1       0.085  -7.182  -5.423  0.00  0.00    -0.083 Cl
ATOM     28  F   UNL     1      -3.724 -10.468  -4.608  0.00  0.00    -0.205 F 
ENDBRANCH  19  21
ENDBRANCH  11  15
BRANCH   1  30
ATOM     29  N   UNL     1      -2.590  -3.869   0.779  0.00  0.00    -0.314 N 
ATOM     30  C   UNL     1      -2.849  -4.634  -0.300  0.00  0.00    +0.218 C 
ATOM     31  O   UNL     1      -3.022  -4.117  -1.383  0.00  0.00    -0.275 OA
ATOM     32  H   UNL     1      -2.451  -4.283   1.645  0.00  0.00    +0.149 HD
BRANCH  29  33
ATOM     33  C   UNL     1      -2.516  -2.412   0.643  0.00  0.00    +0.115 C 
BRANCH  33  34
ATOM     34  C   UNL     1      -2.212  -1.788   2.006  0.00  0.00    +0.088 C 
BRANCH  34  35
ATOM     35  S   UNL     1      -2.121   0.016   1.838  0.00  0.00    -0.159 S 
BRANCH  35  37
ATOM     36  C   UNL     1      -1.654   2.123   3.519  0.00  0.00    +0.015 C 
ATOM     37  C   UNL     1      -1.759   0.596   3.518  0.00  0.00    +0.066 C 
ENDBRANCH  35  37
ENDBRANCH  34  35
ENDBRANCH  33  34
ENDBRANCH  29  33
ENDBRANCH   1  30
TORSDOF 7
