REMARK  Name = ZINC60165515
REMARK  7 active torsions:
REMARK  status: ('A' for Active; 'I' for Inactive)
REMARK    1  A    between atoms: C_1  and  C_2
REMARK    2  A    between atoms: C_2  and  C_3
REMARK    3  A    between atoms: C_3  and  C_29
REMARK    4  A    between atoms: N_6  and  C_10
REMARK    5  A    between atoms: C_10  and  C_11
REMARK    6  A    between atoms: C_17  and  C_20
REMARK    7  A    between atoms: N_22  and  C_23
REMARK                            x       y       z     vdW  Elec       q    Type
REMARK                         _______ _______ _______ _____ _____    ______ ____
ROOT
ATOM      1  C   UNL     1       4.250   0.572  -3.732  0.00  0.00    +0.234 C 
ATOM      2  O   UNL     1       3.851  -0.544  -3.988  0.00  0.00    -0.274 OA
ATOM      3  N   UNL     1       5.416   1.006  -4.250  0.00  0.00    -0.299 N 
ATOM      4  C   UNL     1       5.916   2.354  -3.944  0.00  0.00    +0.108 C 
ATOM      5  C   UNL     1       6.206   3.082  -5.260  0.00  0.00    +0.020 C 
ATOM      6  C   UNL     1       7.159   2.236  -6.107  0.00  0.00    +0.016 C 
ATOM      7  C   UNL     1       6.500   0.894  -6.434  0.00  0.00    +0.092 C 
ATOM      8  C   UNL     1       6.215   0.139  -5.127  0.00  0.00    +0.120 C 
ENDROOT
BRANCH   7   9
ATOM      9  C   UNL     1       7.425   0.075  -7.296  0.00  0.00    +0.218 C 
ATOM     10  O   UNL     1       8.507   0.520  -7.618  0.00  0.00    -0.275 OA
ATOM     11  N   UNL     1       7.052  -1.152  -7.709  0.00  0.00    -0.312 N 
ATOM     12  H   UNL     1       6.187  -1.508  -7.451  0.00  0.00    +0.149 HD
BRANCH  11  13
ATOM     13  C   UNL     1       7.952  -1.948  -8.547  0.00  0.00    +0.073 C 
ATOM     14  C   UNL     1       7.762  -1.557 -10.014  0.00  0.00    +0.022 C 
ATOM     15  C   UNL     1       8.702  -2.389 -10.889  0.00  0.00    +0.002 C 
ATOM     16  C   UNL     1       8.382  -3.875 -10.712  0.00  0.00    +0.000 C 
ATOM     17  C   UNL     1       8.572  -4.266  -9.245  0.00  0.00    +0.002 C 
ATOM     18  C   UNL     1       7.632  -3.434  -8.370  0.00  0.00    +0.022 C 
ENDBRANCH  11  13
ENDBRANCH   7   9
BRANCH   1  19
ATOM     19  C   UNL     1       3.442   1.474  -2.834  0.00  0.00    +0.213 C 
BRANCH  19  23
ATOM     20  C   UNL     1       0.718  -0.497  -1.257  0.00  0.00    +0.138 C 
ATOM     21  C   UNL     1       2.144   0.016  -1.295  0.00  0.00    +0.251 C 
ATOM     22  O   UNL     1       3.025  -0.210  -0.494  0.00  0.00    -0.272 OA
ATOM     23  N   UNL     1       2.228   0.775  -2.405  0.00  0.00    -0.215 N 
ATOM     24  C   UNL     1       1.066   0.812  -3.067  0.00  0.00    +0.310 C 
ATOM     25  O   UNL     1       0.895   1.432  -4.099  0.00  0.00    -0.252 OA
ATOM     26  N   UNL     1       0.107   0.087  -2.463  0.00  0.00    -0.281 N 
ATOM     27  H   UNL     1      -0.807  -0.029  -2.764  0.00  0.00    +0.152 HD
BRANCH  20  28
ATOM     28  C   UNL     1       0.691  -2.003  -1.325  0.00  0.00    -0.015 A 
ATOM     29  C   UNL     1       0.664  -2.747  -0.160  0.00  0.00    +0.006 A 
ATOM     30  C   UNL     1       0.639  -4.128  -0.222  0.00  0.00    +0.000 A 
ATOM     31  C   UNL     1       0.641  -4.764  -1.449  0.00  0.00    +0.000 A 
ATOM     32  C   UNL     1       0.667  -4.020  -2.614  0.00  0.00    +0.000 A 
ATOM     33  C   UNL     1       0.688  -2.639  -2.552  0.00  0.00    +0.006 A 
ENDBRANCH  20  28
BRANCH  20  35
ATOM     34  C   UNL     1      -0.019   1.526   0.010  0.00  0.00    +0.007 C 
ATOM     35  C   UNL     1       0.002  -0.004   0.002  0.00  0.00    +0.037 C 
ENDBRANCH  20  35
ENDBRANCH  19  23
ENDBRANCH   1  19
TORSDOF 6
