REMARK  Name = ZINC01148983
REMARK  9 active torsions:
REMARK  status: ('A' for Active; 'I' for Inactive)
REMARK    1  A    between atoms: C_1  and  C_2
REMARK    2  A    between atoms: C_3  and  C_30
REMARK    3  A    between atoms: C_4  and  C_20
REMARK    4  A    between atoms: C_10  and  C_15
REMARK    5  A    between atoms: C_22  and  O_28
REMARK    6  A    between atoms: C_23  and  O_27
REMARK    7  A    between atoms: O_28  and  C_29
REMARK    8  A    between atoms: C_30  and  O_32
REMARK    9  A    between atoms: O_32  and  C_33
REMARK                            x       y       z     vdW  Elec       q    Type
REMARK                         _______ _______ _______ _____ _____    ______ ____
ROOT
ATOM      1  C   UNL     1       4.617   8.397   3.784  0.00  0.00    +0.061 C 
ATOM      2  C   UNL     1       4.453   7.694   2.461  0.00  0.00    +0.016 C 
ATOM      3  C   UNL     1       4.982   8.231   1.348  0.00  0.00    +0.065 C 
ATOM      4  C   UNL     1       4.845   7.555   0.016  0.00  0.00    +0.092 C 
ATOM      5  C   UNL     1       3.740   6.529   0.040  0.00  0.00    +0.024 C 
ATOM      6  C   UNL     1       3.260   6.061   1.211  0.00  0.00    +0.016 C 
ATOM      7  N   UNL     1       3.766   6.513   2.401  0.00  0.00    -0.321 N 
ATOM      8  C   UNL     1       2.156   5.033   1.244  0.00  0.00    +0.060 C 
ATOM      9  C   UNL     1       2.248   4.142   0.003  0.00  0.00    +0.039 C 
ATOM     10  C   UNL     1       2.146   5.031  -1.242  0.00  0.00    +0.088 C 
ATOM     11  C   UNL     1       3.229   6.074  -1.188  0.00  0.00    +0.162 C 
ATOM     12  O   UNL     1       3.670   6.530  -2.224  0.00  0.00    -0.292 OA
ATOM     13  H   UNL     1       3.615   5.918   3.313  0.00  0.00    +0.152 HD
ENDROOT
BRANCH   4  14
ATOM     14  C   UNL     1       6.145   6.874  -0.329  0.00  0.00    -0.030 A 
ATOM     15  C   UNL     1       6.843   7.253  -1.461  0.00  0.00    +0.054 A 
ATOM     16  C   UNL     1       8.040   6.633  -1.777  0.00  0.00    +0.163 A 
ATOM     17  C   UNL     1       8.533   5.620  -0.960  0.00  0.00    +0.177 A 
ATOM     18  C   UNL     1       7.825   5.240   0.170  0.00  0.00    +0.086 A 
ATOM     19  C   UNL     1       6.633   5.868   0.483  0.00  0.00    +0.028 A 
ATOM     20 CL   UNL     1       8.436   3.977   1.193  0.00  0.00    -0.080 Cl
BRANCH  17  21
ATOM     21  O   UNL     1       9.705   5.003  -1.269  0.00  0.00    -0.502 OA
ATOM     22  H   UNL     1      10.093   4.203  -0.623  0.00  0.00    +0.292 HD
ENDBRANCH  17  21
BRANCH  16  23
ATOM     23  O   UNL     1       8.731   7.009  -2.887  0.00  0.00    -0.491 OA
ATOM     24  C   UNL     1       8.166   8.056  -3.679  0.00  0.00    +0.277 C 
ENDBRANCH  16  23
ENDBRANCH   4  14
BRANCH   9  25
ATOM     25  C   UNL     1       1.115   3.148   0.008  0.00  0.00    -0.006 A 
ATOM     26  C   UNL     1       1.169   1.793   0.001  0.00  0.00    +0.011 A 
ATOM     27  C   UNL     1      -0.013   1.076   0.008  0.00  0.00    +0.008 A 
ATOM     28  C   UNL     1      -1.190   1.748   0.017  0.00  0.00    +0.045 A 
ATOM     29  S   UNL     1      -0.644   3.448   0.027  0.00  0.00    -0.101 S 
ENDBRANCH   9  25
BRANCH   3  30
ATOM     30  C   UNL     1       5.681   9.458   1.435  0.00  0.00    +0.337 C 
ATOM     31  O   UNL     1       5.799  10.016   2.510  0.00  0.00    -0.245 OA
BRANCH  30  32
ATOM     32  O   UNL     1       6.218  10.009   0.327  0.00  0.00    -0.465 OA
ATOM     33  C   UNL     1       6.910  11.248   0.488  0.00  0.00    +0.280 C 
ENDBRANCH  30  32
ENDBRANCH   3  30
TORSDOF 6
