REMARK  Name = ZINC00681731
REMARK  4 active torsions:
REMARK  status: ('A' for Active; 'I' for Inactive)
REMARK    1  A    between atoms: C_1  and  O_2
REMARK    2  A    between atoms: O_2  and  C_3
REMARK    3  A    between atoms: C_6  and  C_9
REMARK    4  A    between atoms: C_14  and  C_24
REMARK                            x       y       z     vdW  Elec       q    Type
REMARK                         _______ _______ _______ _____ _____    ______ ____
ROOT
ATOM      1  C   UNL     1       0.984  -0.512  -0.691  0.00  0.00    +0.032 C 
ATOM      2  C   UNL     1      -0.209   0.074   0.063  0.00  0.00    +0.059 C 
ATOM      3  C   UNL     1      -0.142   1.592   0.037  0.00  0.00    +0.017 C 
ATOM      4  C   UNL     1       1.045   2.221   0.035  0.00  0.00    +0.036 C 
ATOM      5  C   UNL     1       1.256   3.716   0.032  0.00  0.00    +0.138 C 
ATOM      6  N   UNL     1       0.062   4.489  -0.235  0.00  0.00    -0.331 N 
ATOM      7  C   UNL     1      -1.017   4.475   0.648  0.00  0.00    +0.049 A 
ATOM      8  C   UNL     1      -1.402   5.612   1.339  0.00  0.00    +0.025 A 
ATOM      9  C   UNL     1      -2.451   5.538   2.239  0.00  0.00    +0.002 A 
ATOM     10  C   UNL     1      -3.108   4.340   2.451  0.00  0.00    +0.002 A 
ATOM     11  C   UNL     1      -2.736   3.206   1.750  0.00  0.00    +0.025 A 
ATOM     12  C   UNL     1      -1.702   3.284   0.834  0.00  0.00    +0.052 A 
ATOM     13  N   UNL     1      -1.349   2.212   0.022  0.00  0.00    -0.316 N 
ATOM     14  C   UNL     1       2.247   1.474   0.033  0.00  0.00    +0.163 C 
ATOM     15  O   UNL     1       3.306   2.069   0.055  0.00  0.00    -0.292 OA
ATOM     16  C   UNL     1       2.260  -0.025   0.004  0.00  0.00    +0.088 C 
ATOM     17  H   UNL     1       0.012   5.027  -1.041  0.00  0.00    +0.147 HD
ATOM     18  H   UNL     1      -2.016   1.885  -0.602  0.00  0.00    +0.152 HD
ENDROOT
BRANCH   5  19
ATOM     19  C   UNL     1       1.796   4.125   1.379  0.00  0.00    +0.002 A 
ATOM     20  C   UNL     1       1.770   3.394   2.505  0.00  0.00    +0.089 A 
ATOM     21  N   UNL     1       2.355   4.091   3.526  0.00  0.00    -0.360 N 
ATOM     22  H   UNL     1       2.456   3.767   4.435  0.00  0.00    +0.165 HD
ATOM     23  C   UNL     1       2.775   5.322   3.074  0.00  0.00    +0.047 A 
ATOM     24  C   UNL     1       2.443   5.397   1.709  0.00  0.00    +0.005 A 
ATOM     25  C   UNL     1       2.752   6.546   0.979  0.00  0.00    +0.010 A 
ATOM     26  C   UNL     1       3.376   7.594   1.596  0.00  0.00    +0.001 A 
ATOM     27  C   UNL     1       3.705   7.525   2.942  0.00  0.00    +0.002 A 
ATOM     28  C   UNL     1       3.409   6.400   3.681  0.00  0.00    +0.026 A 
ENDBRANCH   5  19
BRANCH   1  32
ATOM     29  C   UNL     1       0.810  -4.781  -0.584  0.00  0.00    +0.120 A 
ATOM     30  C   UNL     1       0.789  -4.115  -1.801  0.00  0.00    +0.046 A 
ATOM     31  C   UNL     1       0.846  -2.735  -1.833  0.00  0.00    +0.007 A 
ATOM     32  C   UNL     1       0.922  -2.017  -0.653  0.00  0.00    -0.043 A 
ATOM     33  C   UNL     1       0.949  -2.679   0.560  0.00  0.00    +0.007 A 
ATOM     34  C   UNL     1       0.887  -4.058   0.598  0.00  0.00    +0.046 A 
BRANCH  29  36
ATOM     35  C   UNL     1       0.780  -6.756   0.739  0.00  0.00    +0.277 C 
ATOM     36  O   UNL     1       0.754  -6.138  -0.550  0.00  0.00    -0.495 OA
ENDBRANCH  29  36
ENDBRANCH   1  32
TORSDOF 3
