REMARK  Name = ZINC63876817
REMARK  7 active torsions:
REMARK  status: ('A' for Active; 'I' for Inactive)
REMARK    1  A    between atoms: C_1  and  C_2
REMARK    2  A    between atoms: C_4  and  S_22
REMARK    3  A    between atoms: C_6  and  C_7
REMARK    4  A    between atoms: N_9  and  C_10
REMARK    5  A    between atoms: N_9  and  C_11
REMARK    6  A    between atoms: C_11  and  C_12
REMARK    7  A    between atoms: S_22  and  N_25
REMARK                            x       y       z     vdW  Elec       q    Type
REMARK                         _______ _______ _______ _____ _____    ______ ____
ROOT
ATOM      1  C   UNL     1       0.257  -0.288   2.602  0.00  0.00    +0.253 C 
ATOM      2  O   UNL     1       0.276   0.903   2.850  0.00  0.00    -0.269 OA
ATOM      3  N   UNL     1      -0.050  -1.173   3.571  0.00  0.00    -0.300 N 
ATOM      4  C   UNL     1      -0.033  -2.610   3.283  0.00  0.00    +0.132 C 
ENDROOT
BRANCH   1  10
ATOM      5  C   UNL     1       0.655   1.478   0.067  0.00  0.00    +0.045 C 
ATOM      6  C   UNL     1       0.754  -0.025   0.089  0.00  0.00    -0.029 A 
ATOM      7  C   UNL     1       1.042  -0.755  -1.040  0.00  0.00    +0.040 A 
ATOM      8  C   UNL     1       1.117  -2.106  -0.950  0.00  0.00    +0.143 A 
ATOM      9  S   UNL     1       0.799  -2.429   0.668  0.00  0.00    -0.064 S 
ATOM     10  C   UNL     1       0.567  -0.760   1.249  0.00  0.00    +0.079 A 
BRANCH   8  11
ATOM     11  S   UNL     1       1.466  -3.259  -2.236  0.00  0.00    +0.062 S 
ATOM     12  O   UNL     1       0.904  -4.500  -1.833  0.00  0.00    -0.153 OA
ATOM     13  O   UNL     1       1.114  -2.624  -3.457  0.00  0.00    -0.153 OA
BRANCH  11  14
ATOM     14  N   UNL     1       3.108  -3.472  -2.269  0.00  0.00    -0.203 NA
ATOM     15  H   UNL     1       3.672  -2.993  -1.643  0.00  0.00    +0.144 HD
ATOM     16  H   UNL     1       3.506  -4.076  -2.916  0.00  0.00    +0.144 HD
ENDBRANCH  11  14
ENDBRANCH   8  11
ENDBRANCH   1  10
BRANCH   3  17
ATOM     17  C   UNL     1      -0.401  -0.699   4.912  0.00  0.00    +0.114 C 
BRANCH  17  18
ATOM     18  C   UNL     1      -1.912  -0.473   4.994  0.00  0.00    -0.013 C 
ATOM     19  C   UNL     1      -2.329   0.573   3.958  0.00  0.00    +0.012 C 
ATOM     20  C   UNL     1      -3.840   0.798   4.041  0.00  0.00    -0.010 C 
ATOM     21  C   UNL     1      -4.206   1.294   5.441  0.00  0.00    +0.007 C 
ATOM     22  C   UNL     1      -3.789   0.248   6.477  0.00  0.00    -0.010 C 
ATOM     23  C   UNL     1      -2.278   0.022   6.395  0.00  0.00    +0.012 C 
ATOM     24  C   UNL     1      -4.517  -1.068   6.195  0.00  0.00    +0.007 C 
ATOM     25  C   UNL     1      -4.151  -1.563   4.795  0.00  0.00    -0.010 C 
ATOM     26  C   UNL     1      -4.568  -0.517   3.759  0.00  0.00    +0.007 C 
ATOM     27  C   UNL     1      -2.640  -1.789   4.712  0.00  0.00    +0.012 C 
ENDBRANCH  17  18
ENDBRANCH   3  17
TORSDOF 5
