REMARK  Name = ZINC38958853
REMARK  5 active torsions:
REMARK  status: ('A' for Active; 'I' for Inactive)
REMARK    1  A    between atoms: C_1  and  C_2
REMARK    2  A    between atoms: C_6  and  N_8
REMARK    3  A    between atoms: C_9  and  O_33
REMARK    4  A    between atoms: C_12  and  O_32
REMARK    5  A    between atoms: C_13  and  C_17
REMARK                            x       y       z     vdW  Elec       q    Type
REMARK                         _______ _______ _______ _____ _____    ______ ____
ROOT
ATOM      1  N   UNL     1       0.044  -2.889   2.242  0.00  0.00    -0.225 N 
ATOM      2  C   UNL     1       0.104  -2.055   3.434  0.00  0.00    +0.338 C 
ATOM      3  N   UNL     1       0.564  -2.796   4.597  0.00  0.00    -0.204 NA
ATOM      4  C   UNL     1       0.529  -4.067   4.699  0.00  0.00    +0.200 C 
ATOM      5  C   UNL     1       0.003  -4.958   3.611  0.00  0.00    +0.183 C 
ATOM      6  C   UNL     1      -0.018  -4.226   2.299  0.00  0.00    +0.237 C 
ATOM      7  O   UNL     1      -0.087  -4.860   1.267  0.00  0.00    -0.274 OA
ENDROOT
BRANCH   5   8
ATOM      8  C   UNL     1      -1.421  -5.396   3.959  0.00  0.00    +0.122 C 
ATOM      9  C   UNL     1      -1.913  -6.385   2.929  0.00  0.00    +0.039 A 
ATOM     10  H   UNL     1      -0.309  -7.678   2.619  0.00  0.00    +0.166 HD
ATOM     11  C   UNL     1      -3.155  -6.337   2.396  0.00  0.00    -0.016 A 
ATOM     12  C   UNL     1      -3.260  -7.431   1.457  0.00  0.00    +0.003 A 
ATOM     13  C   UNL     1      -4.292  -7.872   0.622  0.00  0.00    +0.010 A 
ATOM     14  C   UNL     1      -4.034  -8.973  -0.156  0.00  0.00    +0.001 A 
ATOM     15  C   UNL     1      -2.813  -9.626  -0.125  0.00  0.00    +0.002 A 
ATOM     16  C   UNL     1      -1.774  -9.213   0.692  0.00  0.00    +0.026 A 
ATOM     17  C   UNL     1      -2.007  -8.097   1.493  0.00  0.00    +0.047 A 
ATOM     18  N   UNL     1      -1.221  -7.437   2.393  0.00  0.00    -0.356 N 
ATOM     19  C   UNL     1      -4.182  -5.298   2.772  0.00  0.00    +0.052 C 
ATOM     20  C   UNL     1      -3.723  -4.628   4.074  0.00  0.00    +0.086 C 
ATOM     21  N   UNL     1      -2.314  -4.226   3.953  0.00  0.00    -0.307 NA
ATOM     22  H   UNL     1      -2.057  -3.572   4.677  0.00  0.00    +0.123 HD
ENDBRANCH   5   8
BRANCH   1  28
ATOM     23  C   UNL     1      -2.433  -0.698  -1.396  0.00  0.00    +0.044 C 
ATOM     24  C   UNL     1      -1.143  -1.198  -0.800  0.00  0.00    -0.049 A 
ATOM     25  C   UNL     1       0.044  -1.044  -1.493  0.00  0.00    +0.003 A 
ATOM     26  C   UNL     1       1.230  -1.501  -0.949  0.00  0.00    +0.002 A 
ATOM     27  C   UNL     1       1.234  -2.113   0.289  0.00  0.00    +0.023 A 
ATOM     28  C   UNL     1       0.044  -2.269   0.988  0.00  0.00    +0.041 A 
ATOM     29  C   UNL     1      -1.145  -1.804   0.441  0.00  0.00    +0.027 A 
ENDBRANCH   1  28
BRANCH   4  30
ATOM     30  O   UNL     1       0.984  -4.637   5.834  0.00  0.00    -0.495 OA
ATOM     31  H   UNL     1       1.307  -4.003   6.489  0.00  0.00    +0.293 HD
ENDBRANCH   4  30
BRANCH   2  32
ATOM     32  O   UNL     1       0.999  -0.967   3.194  0.00  0.00    -0.356 OA
ATOM     33  H   UNL     1       1.094  -0.364   3.944  0.00  0.00    +0.214 HD
ENDBRANCH   2  32
TORSDOF 4
