REMARK  Name = ZINC38741361
REMARK  5 active torsions:
REMARK  status: ('A' for Active; 'I' for Inactive)
REMARK    1  A    between atoms: C_1  and  N_2
REMARK    2  A    between atoms: C_3  and  C_5
REMARK    3  A    between atoms: C_8  and  S_11
REMARK    4  A    between atoms: S_11  and  N_14
REMARK    5  A    between atoms: C_17  and  C_20
REMARK                            x       y       z     vdW  Elec       q    Type
REMARK                         _______ _______ _______ _____ _____    ______ ____
ROOT
ATOM      1  N   UNL     1      -0.723  -7.174  -1.799  0.00  0.00    -0.173 NA
ATOM      2  C   UNL     1      -1.994  -7.632  -1.214  0.00  0.00    +0.114 C 
ATOM      3  C   UNL     1      -3.096  -6.670  -1.665  0.00  0.00    +0.052 C 
ATOM      4  C   UNL     1      -2.982  -6.395  -3.135  0.00  0.00    -0.043 C 
ATOM      5  C   UNL     1      -1.882  -6.606  -3.849  0.00  0.00    -0.006 C 
ATOM      6  C   UNL     1      -0.618  -7.163  -3.265  0.00  0.00    +0.137 C 
ENDROOT
BRANCH   4   7
ATOM      7  C   UNL     1      -4.112  -5.880  -3.800  0.00  0.00    -0.015 C 
ATOM      8  C   UNL     1      -5.314  -5.480  -3.228  0.00  0.00    +0.022 A 
ATOM      9  C   UNL     1      -5.779  -5.454  -1.893  0.00  0.00    +0.013 A 
ATOM     10  C   UNL     1      -7.040  -4.993  -1.658  0.00  0.00    +0.020 A 
ATOM     11  C   UNL     1      -7.845  -4.559  -2.712  0.00  0.00    +0.113 A 
ATOM     12  N   UNL     1      -7.444  -4.569  -3.957  0.00  0.00    -0.238 NA
ATOM     13  C   UNL     1      -6.213  -5.007  -4.297  0.00  0.00    +0.135 A 
ATOM     14  N   UNL     1      -5.621  -5.101  -5.467  0.00  0.00    -0.365 N 
ATOM     15  C   UNL     1      -4.269  -5.639  -5.285  0.00  0.00    +0.150 C 
ATOM     16  H   UNL     1      -6.015  -4.850  -6.317  0.00  0.00    +0.161 HD
ENDBRANCH   4   7
BRANCH   1  17
ATOM     17  S   UNL     1       0.538  -6.686  -0.843  0.00  0.00    +0.061 S 
ATOM     18  O   UNL     1       1.720  -6.847  -1.616  0.00  0.00    -0.153 OA
ATOM     19  O   UNL     1       0.360  -7.317   0.417  0.00  0.00    -0.153 OA
BRANCH  17  23
ATOM     20  C   UNL     1       0.045  -2.236  -0.146  0.00  0.00    +0.037 A 
ATOM     21  C   UNL     1      -0.538  -3.152   0.732  0.00  0.00    +0.015 A 
ATOM     22  C   UNL     1      -0.384  -4.505   0.513  0.00  0.00    +0.029 A 
ATOM     23  C   UNL     1       0.346  -4.955  -0.572  0.00  0.00    +0.106 A 
ATOM     24  C   UNL     1       0.927  -4.053  -1.445  0.00  0.00    +0.029 A 
ATOM     25  C   UNL     1       0.775  -2.697  -1.242  0.00  0.00    +0.015 A 
BRANCH  20  28
ATOM     26  C   UNL     1      -0.982   1.097   1.367  0.00  0.00    +0.128 C 
ATOM     27  N   UNL     1      -0.823  -0.342   1.141  0.00  0.00    -0.314 N 
ATOM     28  C   UNL     1      -0.117  -0.784   0.082  0.00  0.00    +0.244 C 
ATOM     29  O   UNL     1       0.388   0.011  -0.687  0.00  0.00    -0.270 OA
ATOM     30  H   UNL     1      -1.225  -0.977   1.755  0.00  0.00    +0.149 HD
ENDBRANCH  20  28
ENDBRANCH  17  23
ENDBRANCH   1  17
TORSDOF 4
