REMARK  Name = ZINC39687211
REMARK  7 active torsions:
REMARK  status: ('A' for Active; 'I' for Inactive)
REMARK    1  A    between atoms: C_1  and  C_2
REMARK    2  A    between atoms: C_2  and  C_4
REMARK    3  A    between atoms: C_2  and  N_12
REMARK    4  A    between atoms: C_4  and  C_5
REMARK    5  A    between atoms: C_13  and  C_15
REMARK    6  A    between atoms: C_26  and  C_28
REMARK    7  A    between atoms: N_32  and  C_33
REMARK                            x       y       z     vdW  Elec       q    Type
REMARK                         _______ _______ _______ _____ _____    ______ ____
ROOT
ATOM      1  C   UNL     1       2.632  -0.282   2.304  0.00  0.00    +0.100 C 
ATOM      2  C   UNL     1       2.739   0.573   3.586  0.00  0.00    +0.121 C 
ATOM      3  N   UNL     1       4.008   0.142   4.219  0.00  0.00    -0.295 N 
ATOM      4  C   UNL     1       4.941  -0.045   3.083  0.00  0.00    +0.115 C 
ATOM      5  C   UNL     1       4.079  -0.686   1.976  0.00  0.00    -0.004 C 
ATOM      6  C   UNL     1       4.484  -0.139   0.611  0.00  0.00    -0.010 C 
ATOM      7  C   UNL     1       5.906  -0.602   0.282  0.00  0.00    -0.082 C 
ATOM      8  N   UNL     1       5.956  -2.069   0.279  0.00  0.00    +0.379 N 
ATOM      9  C   UNL     1       5.657  -2.583   1.621  0.00  0.00    -0.082 C 
ATOM     10  C   UNL     1       4.224  -2.204   2.006  0.00  0.00    -0.010 C 
ATOM     11  C   UNL     1       4.256  -0.038   5.531  0.00  0.00    +0.265 C 
ATOM     12  O   UNL     1       5.397  -0.214   5.916  0.00  0.00    -0.268 OA
ATOM     13  H   UNL     1       5.277  -2.427  -0.376  0.00  0.00    -0.086 HD
ATOM     14  H   UNL     1       6.878  -2.372   0.002  0.00  0.00    -0.086 HD
ENDROOT
BRANCH  11  15
ATOM     15  C   UNL     1       3.151  -0.024   6.497  0.00  0.00    +0.124 A 
ATOM     16  C   UNL     1       1.819  -0.157   6.220  0.00  0.00    +0.143 A 
ATOM     17  N   UNL     1       1.155  -0.089   7.374  0.00  0.00    -0.243 NA
ATOM     18  C   UNL     1       1.999   0.080   8.359  0.00  0.00    +0.199 A 
ATOM     19  N   UNL     1       3.250   0.122   7.867  0.00  0.00    -0.330 N 
ATOM     20  C   UNL     1       4.484   0.292   8.638  0.00  0.00    +0.150 C 
ENDBRANCH  11  15
BRANCH   1  22
ATOM     21  N   UNL     1       1.304  -0.071   0.228  0.00  0.00    -0.312 N 
ATOM     22  C   UNL     1       2.046   0.530   1.178  0.00  0.00    +0.218 C 
ATOM     23  O   UNL     1       2.242   1.726   1.128  0.00  0.00    -0.275 OA
ATOM     24  H   UNL     1       1.147  -1.028   0.268  0.00  0.00    +0.149 HD
BRANCH  21  26
ATOM     25  C   UNL     1      -0.597   1.325  -0.419  0.00  0.00    +0.028 C 
ATOM     26  C   UNL     1       0.735   0.719  -0.867  0.00  0.00    +0.074 C 
BRANCH  26  27
ATOM     27  C   UNL     1       0.501  -0.184  -2.080  0.00  0.00    +0.060 C 
BRANCH  27  28
ATOM     28  C   UNL     1       1.826  -0.684  -2.596  0.00  0.00    -0.010 A 
ATOM     29  C   UNL     1       2.464  -0.015  -3.624  0.00  0.00    +0.006 A 
ATOM     30  C   UNL     1       3.679  -0.473  -4.098  0.00  0.00    +0.000 A 
ATOM     31  C   UNL     1       4.258  -1.601  -3.544  0.00  0.00    +0.003 A 
ATOM     32  C   UNL     1       3.622  -2.270  -2.516  0.00  0.00    +0.038 A 
ATOM     33  C   UNL     1       2.407  -1.809  -2.037  0.00  0.00    +0.127 A 
ATOM     34  F   UNL     1       1.787  -2.460  -1.029  0.00  0.00    -0.205 F 
ENDBRANCH  27  28
ENDBRANCH  26  27
ENDBRANCH  21  26
ENDBRANCH   1  22
TORSDOF 5
