REMARK  Name = ZINC15074056
REMARK  12 active torsions:
REMARK  status: ('A' for Active; 'I' for Inactive)
REMARK    1  A    between atoms: C_4  and  O_7
REMARK    2  A    between atoms: O_7  and  C_8
REMARK    3  A    between atoms: C_8  and  C_9
REMARK    4  A    between atoms: C_9  and  N_62
REMARK    5  A    between atoms: C_10  and  C_11
REMARK    6  A    between atoms: C_10  and  N_62
REMARK    7  A    between atoms: C_15  and  O_17
REMARK    8  A    between atoms: O_17  and  C_18
REMARK    9  A    between atoms: C_18  and  C_19
REMARK   10  A    between atoms: C_19  and  C_21
REMARK   11  A    between atoms: C_19  and  O_31
REMARK   12  A    between atoms: C_21  and  N_65
REMARK                            x       y       z     vdW  Elec       q    Type
REMARK                         _______ _______ _______ _____ _____    ______ ____
ROOT
ATOM      1  C   UNL     1      -0.361   1.323  -9.639  0.00  0.00    -0.061 A 
ATOM      2  C   UNL     1       0.978   0.987  -9.717  0.00  0.00    +0.002 A 
ATOM      3  C   UNL     1       1.728   0.857  -8.563  0.00  0.00    +0.004 A 
ATOM      4  C   UNL     1       1.142   1.063  -7.329  0.00  0.00    +0.045 A 
ATOM      5  C   UNL     1      -0.201   1.401  -7.249  0.00  0.00    +0.121 A 
ATOM      6  C   UNL     1      -0.954   1.525  -8.408  0.00  0.00    +0.047 A 
ENDROOT
BRANCH   1   7
ATOM      7  C   UNL     1      -1.176   1.464 -10.899  0.00  0.00    -0.047 C 
BRANCH   7   8
ATOM      8  N   UNL     1      -1.773   0.158 -11.237  0.00  0.00    +0.384 N 
ATOM      9  H   UNL     1      -1.024  -0.530 -11.381  0.00  0.00    -0.085 HD
ATOM     10  H   UNL     1      -2.376  -0.149 -10.464  0.00  0.00    -0.085 HD
BRANCH   8  11
ATOM     11  C   UNL     1      -2.578   0.265 -12.468  0.00  0.00    -0.041 C 
BRANCH  11  12
ATOM     12  C   UNL     1      -3.183  -1.102 -12.793  0.00  0.00    +0.210 C 
BRANCH  12  13
ATOM     13  O   UNL     1      -4.105  -1.471 -11.765  0.00  0.00    -0.494 OA
BRANCH  13  17
ATOM     14  C   UNL     1      -6.017  -5.103 -12.180  0.00  0.00    +0.000 A 
ATOM     15  C   UNL     1      -6.282  -4.305 -11.082  0.00  0.00    +0.004 A 
ATOM     16  C   UNL     1      -5.643  -3.088 -10.941  0.00  0.00    +0.045 A 
ATOM     17  C   UNL     1      -4.735  -2.667 -11.902  0.00  0.00    +0.120 A 
ATOM     18  C   UNL     1      -4.476  -3.467 -13.005  0.00  0.00    +0.045 A 
ATOM     19  C   UNL     1      -5.112  -4.686 -13.138  0.00  0.00    +0.004 A 
ENDBRANCH  13  17
ENDBRANCH  12  13
ENDBRANCH  11  12
ENDBRANCH   8  11
ENDBRANCH   7   8
ENDBRANCH   1   7
BRANCH   5  20
ATOM     20  O   UNL     1      -0.780   1.605  -6.037  0.00  0.00    -0.489 OA
BRANCH  20  21
ATOM     21  C   UNL     1       0.053   1.454  -4.886  0.00  0.00    +0.258 C 
BRANCH  21  22
ATOM     22  C   UNL     1      -0.768   1.720  -3.623  0.00  0.00    +0.135 C 
BRANCH  22  23
ATOM     23  O   UNL     1      -1.190   3.085  -3.608  0.00  0.00    -0.390 OA
ATOM     24  H   UNL     1      -0.462   3.722  -3.614  0.00  0.00    +0.210 HD
ENDBRANCH  22  23
BRANCH  22  25
ATOM     25  C   UNL     1       0.090   1.438  -2.388  0.00  0.00    -0.043 C 
BRANCH  25  35
ATOM     26  C   UNL     1      -0.013   1.086   0.008  0.00  0.00    -0.074 C 
ATOM     27  C   UNL     1      -0.736   1.583   1.260  0.00  0.00    +0.017 C 
ATOM     28  C   UNL     1      -2.210   1.264   1.157  0.00  0.00    -0.048 A 
ATOM     29  C   UNL     1      -2.977   1.307   2.312  0.00  0.00    +0.004 A 
ATOM     30  C   UNL     1      -4.328   1.027   2.263  0.00  0.00    +0.000 A 
ATOM     31  C   UNL     1      -4.920   0.701   1.057  0.00  0.00    +0.000 A 
ATOM     32  C   UNL     1      -4.157   0.656  -0.093  0.00  0.00    +0.002 A 
ATOM     33  C   UNL     1      -2.799   0.937  -0.046  0.00  0.00    -0.061 A 
ATOM     34  C   UNL     1      -2.009   0.871  -1.326  0.00  0.00    -0.043 C 
ATOM     35  N   UNL     1      -0.738   1.599  -1.171  0.00  0.00    +0.384 N 
ATOM     36  H   UNL     1      -0.938   2.597  -1.034  0.00  0.00    -0.081 HD
ENDBRANCH  25  35
ENDBRANCH  22  25
ENDBRANCH  21  22
ENDBRANCH  20  21
ENDBRANCH   5  20
TORSDOF 12
