REMARK  Name = ZINC12333497
REMARK  9 active torsions:
REMARK  status: ('A' for Active; 'I' for Inactive)
REMARK    1  A    between atoms: C_1  and  C_2
REMARK    2  A    between atoms: C_5  and  C_7
REMARK    3  A    between atoms: C_7  and  C_9
REMARK    4  A    between atoms: C_7  and  C_10
REMARK    5  A    between atoms: C_10  and  C_11
REMARK    6  A    between atoms: C_11  and  N_68
REMARK    7  A    between atoms: C_14  and  C_17
REMARK    8  A    between atoms: C_14  and  O_34
REMARK    9  A    between atoms: C_24  and  C_26
REMARK                            x       y       z     vdW  Elec       q    Type
REMARK                         _______ _______ _______ _____ _____    ______ ____
ROOT
ATOM      1  C   UNL     1       1.214  -0.461   0.922  0.00  0.00    -0.076 C 
ATOM      2  C   UNL     1       1.067  -1.975   1.087  0.00  0.00    +0.021 C 
ATOM      3  C   UNL     1       1.195  -2.647  -0.283  0.00  0.00    +0.088 C 
ATOM      4  C   UNL     1       0.131  -2.076  -1.224  0.00  0.00    +0.021 C 
ATOM      5  C   UNL     1       0.304  -0.558  -1.321  0.00  0.00    -0.076 C 
ATOM      6  N   UNL     1       0.146   0.030   0.025  0.00  0.00    +0.380 N 
ATOM      7  H   UNL     1      -0.765  -0.251   0.407  0.00  0.00    -0.082 HD
ENDROOT
BRANCH   3   8
ATOM      8  C   UNL     1       0.992  -4.133  -0.136  0.00  0.00    -0.015 A 
ATOM      9  C   UNL     1      -0.285  -4.668  -0.242  0.00  0.00    +0.010 A 
ATOM     10  C   UNL     1      -0.493  -6.024  -0.111  0.00  0.00    +0.047 A 
ATOM     11  C   UNL     1       0.583  -6.870   0.131  0.00  0.00    +0.136 A 
ATOM     12  C   UNL     1       1.875  -6.322   0.238  0.00  0.00    +0.021 A 
ATOM     13  C   UNL     1       2.066  -4.945   0.096  0.00  0.00    +0.018 A 
ATOM     14  C   UNL     1       2.766  -7.454   0.489  0.00  0.00    +0.063 A 
ATOM     15  C   UNL     1       1.975  -8.557   0.514  0.00  0.00    +0.191 A 
ATOM     16  O   UNL     1       0.691  -8.202   0.301  0.00  0.00    -0.450 OA
BRANCH  15  17
ATOM     17  C   UNL     1       2.446  -9.931   0.738  0.00  0.00    +0.282 C 
ATOM     18  O   UNL     1       3.600 -10.132   1.068  0.00  0.00    -0.267 OA
ATOM     19  N   UNL     1       1.600 -10.968   0.579  0.00  0.00    -0.293 N 
ATOM     20  C   UNL     1       0.257 -10.731   0.049  0.00  0.00    +0.119 C 
ATOM     21  C   UNL     1       0.128 -11.412  -1.324  0.00  0.00    +0.088 C 
ATOM     22  S   UNL     1       0.488 -13.183  -1.129  0.00  0.00    -0.158 S 
ATOM     23  C   UNL     1       2.114 -13.187  -0.315  0.00  0.00    +0.088 C 
ATOM     24  C   UNL     1       2.034 -12.318   0.945  0.00  0.00    +0.119 C 
ENDBRANCH  15  17
ENDBRANCH   3   8
BRANCH   3  25
ATOM     25  O   UNL     1       2.494  -2.394  -0.822  0.00  0.00    -0.384 OA
ATOM     26  H   UNL     1       3.218  -2.729  -0.276  0.00  0.00    +0.211 HD
ENDBRANCH   3  25
BRANCH   6  27
ATOM     27  C   UNL     1       0.196   1.504  -0.059  0.00  0.00    -0.078 C 
BRANCH  27  28
ATOM     28  C   UNL     1      -0.189   2.089   1.301  0.00  0.00    -0.008 C 
BRANCH  28  29
ATOM     29  C   UNL     1      -0.165   3.617   1.225  0.00  0.00    +0.050 C 
ATOM     30  C   UNL     1       1.267   4.093   0.971  0.00  0.00    +0.015 C 
BRANCH  29  35
ATOM     31  C   UNL     1      -0.523   4.689   6.141  0.00  0.00    +0.086 C 
ATOM     32  C   UNL     1      -0.818   4.659   4.663  0.00  0.00    +0.102 A 
ATOM     33  C   UNL     1      -1.833   5.295   4.051  0.00  0.00    +0.044 A 
ATOM     34  C   UNL     1      -1.730   4.999   2.672  0.00  0.00    +0.045 A 
ATOM     35  C   UNL     1      -0.663   4.193   2.526  0.00  0.00    +0.108 A 
ATOM     36  O   UNL     1      -0.113   3.993   3.734  0.00  0.00    -0.465 OA
ENDBRANCH  29  35
ENDBRANCH  28  29
ENDBRANCH  27  28
ENDBRANCH   6  27
TORSDOF 7
