REMARK  Name = ZINC20764393
REMARK  11 active torsions:
REMARK  status: ('A' for Active; 'I' for Inactive)
REMARK    1  A    between atoms: C_1  and  C_2
REMARK    2  A    between atoms: C_2  and  O_3
REMARK    3  A    between atoms: O_3  and  C_4
REMARK    4  A    between atoms: C_7  and  C_10
REMARK    5  A    between atoms: C_12  and  C_28
REMARK    6  A    between atoms: C_15  and  C_18
REMARK    7  A    between atoms: C_22  and  O_25
REMARK    8  A    between atoms: C_23  and  O_24
REMARK    9  A    between atoms: O_25  and  C_26
REMARK   10  A    between atoms: C_26  and  C_27
REMARK   11  A    between atoms: C_31  and  C_34
REMARK                            x       y       z     vdW  Elec       q    Type
REMARK                         _______ _______ _______ _____ _____    ______ ____
ROOT
ATOM      1  C   UNL     1       2.740  -0.463   1.859  0.00  0.00    +0.040 C 
ATOM      2  N   UNL     1       2.334  -0.231   0.667  0.00  0.00    -0.299 NA
ATOM      3  C   UNL     1       2.490   1.048  -0.016  0.00  0.00    +0.081 C 
ATOM      4  N   UNL     1       3.511   1.868   0.646  0.00  0.00    +0.401 N 
ATOM      5  C   UNL     1       3.236   1.954   2.091  0.00  0.00    -0.028 C 
ATOM      6  C   UNL     1       3.442   0.565   2.701  0.00  0.00    +0.044 C 
ATOM      7  H   UNL     1       4.502   1.413   0.495  0.00  0.00    -0.081 HD
ATOM      8  H   UNL     1       3.504   2.880   0.217  0.00  0.00    -0.081 HD
ENDROOT
BRANCH   1  12
ATOM      9  C   UNL     1       2.067  -4.316   3.510  0.00  0.00    +0.121 A 
ATOM     10  C   UNL     1       1.640  -4.031   2.219  0.00  0.00    +0.046 A 
ATOM     11  C   UNL     1       1.856  -2.782   1.679  0.00  0.00    +0.013 A 
ATOM     12  C   UNL     1       2.506  -1.801   2.432  0.00  0.00    -0.004 A 
ATOM     13  C   UNL     1       2.940  -2.093   3.728  0.00  0.00    +0.013 A 
ATOM     14  C   UNL     1       2.715  -3.343   4.262  0.00  0.00    +0.046 A 
BRANCH   9  15
ATOM     15  O   UNL     1       1.852  -5.547   4.038  0.00  0.00    -0.492 OA
BRANCH  15  17
ATOM     16  C   UNL     1       1.987  -7.206   5.791  0.00  0.00    +0.048 C 
ATOM     17  C   UNL     1       2.317  -5.772   5.371  0.00  0.00    +0.225 C 
ENDBRANCH  15  17
ENDBRANCH   9  15
ENDBRANCH   1  12
BRANCH   5  18
ATOM     18  C   UNL     1       4.181   2.937   2.731  0.00  0.00    -0.016 A 
ATOM     19  C   UNL     1       5.350   3.294   2.084  0.00  0.00    +0.006 A 
ATOM     20  C   UNL     1       6.218   4.199   2.666  0.00  0.00    +0.004 A 
ATOM     21  C   UNL     1       5.926   4.744   3.903  0.00  0.00    +0.049 A 
ATOM     22  C   UNL     1       4.759   4.386   4.559  0.00  0.00    +0.162 A 
ATOM     23  C   UNL     1       3.883   3.479   3.970  0.00  0.00    +0.160 A 
BRANCH  23  24
ATOM     24  O   UNL     1       2.737   3.125   4.611  0.00  0.00    -0.503 OA
ATOM     25  H   UNL     1       2.501   3.556   5.595  0.00  0.00    +0.292 HD
ENDBRANCH  23  24
BRANCH  22  26
ATOM     26  O   UNL     1       4.470   4.921   5.776  0.00  0.00    -0.489 OA
BRANCH  26  27
ATOM     27  C   UNL     1       5.415   5.846   6.319  0.00  0.00    +0.226 C 
ATOM     28  C   UNL     1       4.923   6.337   7.682  0.00  0.00    +0.048 C 
ENDBRANCH  26  27
ENDBRANCH  22  26
ENDBRANCH   5  18
BRANCH   3  29
ATOM     29  C   UNL     1       1.175   1.783   0.000  0.00  0.00    -0.040 A 
ATOM     30  C   UNL     1      -0.013   1.076   0.008  0.00  0.00    +0.004 A 
ATOM     31  C   UNL     1      -1.219   1.751   0.017  0.00  0.00    +0.012 A 
ATOM     32  C   UNL     1      -1.238   3.133   0.030  0.00  0.00    +0.055 A 
ATOM     33  C   UNL     1      -0.050   3.840   0.022  0.00  0.00    +0.012 A 
ATOM     34  C   UNL     1       1.156   3.165   0.008  0.00  0.00    +0.004 A 
BRANCH  32  35
ATOM     35  C   UNL     1      -2.553   3.869   0.047  0.00  0.00    +0.417 C 
ATOM     36  F   UNL     1      -2.973   4.103  -1.267  0.00  0.00    -0.166 F 
ATOM     37  F   UNL     1      -3.511   3.096   0.712  0.00  0.00    -0.166 F 
ATOM     38  F   UNL     1      -2.396   5.090   0.711  0.00  0.00    -0.166 F 
ENDBRANCH  32  35
ENDBRANCH   3  29
TORSDOF 9
