REMARK  Name = ZINC04227916
REMARK  9 active torsions:
REMARK  status: ('A' for Active; 'I' for Inactive)
REMARK    1  A    between atoms: C_1  and  C_2
REMARK    2  A    between atoms: C_2  and  C_3
REMARK    3  A    between atoms: C_3  and  C_4
REMARK    4  A    between atoms: C_4  and  C_5
REMARK    5  A    between atoms: C_4  and  C_6
REMARK    6  A    between atoms: C_4  and  C_7
REMARK    7  A    between atoms: C_10  and  O_13
REMARK    8  A    between atoms: O_13  and  C_14
REMARK    9  A    between atoms: C_19  and  O_25
REMARK                            x       y       z     vdW  Elec       q    Type
REMARK                         _______ _______ _______ _____ _____    ______ ____
ROOT
ATOM      1  O   UNL     1       1.161   3.445   0.009  0.00  0.00    -0.449 OA
ENDROOT
BRANCH   1   2
ATOM      2  C   UNL     1       0.656   4.072   1.106  0.00  0.00    +0.210 A 
ATOM      3  C   UNL     1       0.277   3.356   2.183  0.00  0.00    +0.245 A 
ATOM      4  O   UNL     1      -0.221   3.921   3.291  0.00  0.00    -0.459 OA
ATOM      5  C   UNL     1      -0.392   5.254   3.408  0.00  0.00    +0.142 A 
ATOM      6  C   UNL     1      -0.916   5.807   4.568  0.00  0.00    +0.092 A 
ATOM      7  C   UNL     1      -1.081   7.178   4.661  0.00  0.00    +0.120 A 
ATOM      8  C   UNL     1      -0.726   8.009   3.599  0.00  0.00    +0.046 A 
ATOM      9  C   UNL     1      -0.208   7.480   2.452  0.00  0.00    +0.019 A 
ATOM     10  C   UNL     1      -0.036   6.099   2.342  0.00  0.00    +0.068 A 
ATOM     11  C   UNL     1       0.518   5.489   1.121  0.00  0.00    +0.234 A 
ATOM     12  O   UNL     1       0.846   6.170   0.164  0.00  0.00    -0.283 OA
BRANCH   7  13
ATOM     13  O   UNL     1      -1.594   7.719   5.795  0.00  0.00    -0.507 OA
ATOM     14  H   UNL     1      -0.927   7.951   6.456  0.00  0.00    +0.292 HD
ENDBRANCH   7  13
ENDBRANCH   1   2
BRANCH   1  18
ATOM     15  C   UNL     1       1.264  -0.679   0.012  0.00  0.00    -0.041 A 
ATOM     16  C   UNL     1       0.075  -0.019  -0.241  0.00  0.00    +0.008 A 
ATOM     17  C   UNL     1       0.038   1.362  -0.243  0.00  0.00    +0.046 A 
ATOM     18  C   UNL     1       1.194   2.086   0.010  0.00  0.00    +0.129 A 
ATOM     19  C   UNL     1       2.385   1.421   0.265  0.00  0.00    +0.046 A 
ATOM     20  C   UNL     1       2.417   0.040   0.265  0.00  0.00    +0.008 A 
BRANCH  15  21
ATOM     21  C   UNL     1       1.301  -2.186   0.014  0.00  0.00    -0.010 C 
ATOM     22  C   UNL     1       0.345  -2.719   1.083  0.00  0.00    +0.016 C 
ATOM     23  C   UNL     1       0.873  -2.708  -1.359  0.00  0.00    +0.016 C 
BRANCH  21  24
ATOM     24  C   UNL     1       2.723  -2.660   0.318  0.00  0.00    +0.011 C 
BRANCH  24  26
ATOM     25  C   UNL     1       4.184  -4.664   0.625  0.00  0.00    +0.004 C 
ATOM     26  C   UNL     1       2.761  -4.190   0.320  0.00  0.00    -0.003 C 
ENDBRANCH  24  26
ENDBRANCH  21  24
ENDBRANCH  15  21
ENDBRANCH   1  18
TORSDOF 6
