REMARK  Name = ZINC36685789
REMARK  12 active torsions:
REMARK  status: ('A' for Active; 'I' for Inactive)
REMARK    1  A    between atoms: C_1  and  C_2
REMARK    2  A    between atoms: C_2  and  O_4
REMARK    3  A    between atoms: O_4  and  C_5
REMARK    4  A    between atoms: C_5  and  C_6
REMARK    5  A    between atoms: C_6  and  C_8
REMARK    6  A    between atoms: C_8  and  O_38
REMARK    7  A    between atoms: C_9  and  O_37
REMARK    8  A    between atoms: C_14  and  C_36
REMARK    9  A    between atoms: C_16  and  O_32
REMARK   10  A    between atoms: C_30  and  C_31
REMARK   11  A    between atoms: O_32  and  C_33
REMARK   12  A    between atoms: C_33  and  C_35
REMARK                            x       y       z     vdW  Elec       q    Type
REMARK                         _______ _______ _______ _____ _____    ______ ____
ROOT
ATOM      1  C   UNL     1      -2.619  -4.208   0.004  0.00  0.00    +0.158 C 
ATOM      2  C   UNL     1      -2.771  -4.737   1.452  0.00  0.00    +0.154 C 
ATOM      3  C   UNL     1      -4.204  -5.327   1.555  0.00  0.00    +0.039 C 
ATOM      4  C   UNL     1      -4.961  -4.584   0.449  0.00  0.00    +0.004 C 
ATOM      5  C   UNL     1      -3.918  -4.584  -0.701  0.00  0.00    +0.013 C 
ATOM      6  C   UNL     1      -4.418  -3.617  -1.757  0.00  0.00    +0.055 C 
ATOM      7  C   UNL     1      -5.727  -4.194  -2.318  0.00  0.00    +0.182 C 
ATOM      8  C   UNL     1      -6.763  -4.410  -1.219  0.00  0.00    +0.047 C 
ATOM      9  C   UNL     1      -6.218  -5.264  -0.062  0.00  0.00    +0.001 C 
ATOM     10  C   UNL     1      -7.254  -5.355   1.060  0.00  0.00    +0.008 C 
ATOM     11  C   UNL     1      -8.505  -6.077   0.550  0.00  0.00    +0.032 C 
ATOM     12  C   UNL     1      -8.998  -5.351  -0.687  0.00  0.00    -0.056 C 
ATOM     13  C   UNL     1     -10.269  -4.980  -0.751  0.00  0.00    +0.051 C 
ATOM     14  C   UNL     1     -10.780  -4.255  -1.925  0.00  0.00    +0.179 C 
ATOM     15  O   UNL     1     -11.954  -3.948  -2.004  0.00  0.00    -0.288 OA
ATOM     16  C   UNL     1      -9.836  -3.910  -3.002  0.00  0.00    +0.047 C 
ATOM     17  C   UNL     1      -8.573  -4.296  -2.921  0.00  0.00    -0.012 C 
ATOM     18  C   UNL     1      -7.994  -5.103  -1.812  0.00  0.00    +0.014 C 
ATOM     19  C   UNL     1      -7.539  -6.447  -2.387  0.00  0.00    +0.020 C 
ATOM     20  C   UNL     1      -3.799  -5.989  -1.293  0.00  0.00    +0.015 C 
ENDROOT
BRANCH   1  21
ATOM     21  C   UNL     1      -2.442  -2.712   0.011  0.00  0.00    +0.205 C 
ATOM     22  O   UNL     1      -3.409  -1.989   0.024  0.00  0.00    -0.291 OA
BRANCH  21  23
ATOM     23  C   UNL     1      -1.057  -2.117   0.001  0.00  0.00    +0.309 C 
BRANCH  23  24
ATOM     24  O   UNL     1      -1.151  -0.691   0.009  0.00  0.00    -0.457 OA
BRANCH  24  26
ATOM     25  C   UNL     1      -0.018   1.503   0.010  0.00  0.00    +0.136 C 
ATOM     26  C   UNL     1       0.002  -0.004   0.002  0.00  0.00    +0.304 C 
ATOM     27  O   UNL     1       1.056  -0.594  -0.011  0.00  0.00    -0.251 OA
ENDBRANCH  24  26
ENDBRANCH  23  24
ENDBRANCH  21  23
ENDBRANCH   1  21
BRANCH   2  28
ATOM     28  O   UNL     1      -1.800  -5.754   1.708  0.00  0.00    -0.388 OA
ATOM     29  H   UNL     1      -1.845  -6.125   2.599  0.00  0.00    +0.210 HD
ENDBRANCH   2  28
BRANCH   1  30
ATOM     30  O   UNL     1      -1.507  -4.835  -0.639  0.00  0.00    -0.378 OA
ATOM     31  H   UNL     1      -0.655  -4.649  -0.222  0.00  0.00    +0.211 HD
ENDBRANCH   1  30
BRANCH   7  32
ATOM     32  O   UNL     1      -6.259  -3.288  -3.287  0.00  0.00    -0.461 OA
BRANCH  32  33
ATOM     33  C   UNL     1      -5.871  -3.461  -4.560  0.00  0.00    +0.304 C 
ATOM     34  O   UNL     1      -5.105  -4.352  -4.843  0.00  0.00    -0.251 OA
ATOM     35  C   UNL     1      -6.390  -2.543  -5.637  0.00  0.00    +0.136 C 
ENDBRANCH  32  33
ENDBRANCH   7  32
TORSDOF 8
