REMARK  Name = ZINC64097967
REMARK  8 active torsions:
REMARK  status: ('A' for Active; 'I' for Inactive)
REMARK    1  A    between atoms: C_1  and  C_2
REMARK    2  A    between atoms: C_5  and  N_9
REMARK    3  A    between atoms: C_6  and  C_8
REMARK    4  A    between atoms: C_10  and  O_36
REMARK    5  A    between atoms: C_13  and  O_35
REMARK    6  A    between atoms: C_14  and  C_18
REMARK    7  A    between atoms: C_25  and  O_30
REMARK    8  A    between atoms: O_30  and  C_31
REMARK                            x       y       z     vdW  Elec       q    Type
REMARK                         _______ _______ _______ _____ _____    ______ ____
ROOT
ATOM      1  N   UNL     1      -0.128  -4.293  -0.019  0.00  0.00    -0.225 N 
ATOM      2  C   UNL     1      -1.325  -5.120   0.032  0.00  0.00    +0.338 C 
ATOM      3  N   UNL     1      -1.044  -6.463   0.512  0.00  0.00    -0.204 NA
ATOM      4  C   UNL     1       0.114  -7.001   0.500  0.00  0.00    +0.200 C 
ATOM      5  C   UNL     1       1.335  -6.297  -0.014  0.00  0.00    +0.179 C 
ATOM      6  C   UNL     1       1.106  -4.812  -0.055  0.00  0.00    +0.237 C 
ATOM      7  O   UNL     1       2.061  -4.067  -0.118  0.00  0.00    -0.274 OA
ENDROOT
BRANCH   5   8
ATOM      8  C   UNL     1       1.647  -6.791  -1.428  0.00  0.00    +0.101 C 
ATOM      9  C   UNL     1       2.953  -6.163  -1.918  0.00  0.00    +0.124 C 
ATOM     10  C   UNL     1       3.099  -6.568  -3.381  0.00  0.00    -0.036 C 
ATOM     11  C   UNL     1       4.291  -7.135  -3.496  0.00  0.00    +0.003 A 
ATOM     12  C   UNL     1       5.030  -7.647  -4.660  0.00  0.00    +0.055 A 
ATOM     13  C   UNL     1       6.253  -8.193  -4.417  0.00  0.00    +0.121 A 
ATOM     14  C   UNL     1       6.829  -8.288  -3.141  0.00  0.00    +0.047 A 
ATOM     15  C   UNL     1       6.239  -7.844  -2.002  0.00  0.00    +0.029 A 
ATOM     16  C   UNL     1       4.913  -7.228  -2.138  0.00  0.00    +0.043 A 
ATOM     17  N   UNL     1       4.127  -6.692  -1.226  0.00  0.00    -0.376 N 
ATOM     18  C   UNL     1       1.972  -6.386  -4.368  0.00  0.00    +0.048 C 
ATOM     19  C   UNL     1       0.710  -6.950  -3.690  0.00  0.00    +0.085 C 
ATOM     20  N   UNL     1       0.567  -6.389  -2.343  0.00  0.00    -0.310 NA
ATOM     21  H   UNL     1      -0.338  -6.609  -1.954  0.00  0.00    +0.122 HD
ATOM     22  H   UNL     1       4.287  -6.656  -0.270  0.00  0.00    +0.160 HD
BRANCH  13  23
ATOM     23  O   UNL     1       6.959  -8.674  -5.473  0.00  0.00    -0.495 OA
ATOM     24  C   UNL     1       8.240  -9.242  -5.193  0.00  0.00    +0.277 C 
ENDBRANCH  13  23
ENDBRANCH   5   8
BRANCH   1  29
ATOM     25  C   UNL     1      -0.716   1.349  -0.089  0.00  0.00    +0.044 C 
ATOM     26  C   UNL     1      -0.560  -0.150  -0.071  0.00  0.00    -0.050 A 
ATOM     27  C   UNL     1      -0.531  -0.856  -1.260  0.00  0.00    +0.005 A 
ATOM     28  C   UNL     1      -0.388  -2.229  -1.246  0.00  0.00    +0.024 A 
ATOM     29  C   UNL     1      -0.273  -2.902  -0.036  0.00  0.00    +0.043 A 
ATOM     30  C   UNL     1      -0.301  -2.190   1.156  0.00  0.00    -0.029 A 
ATOM     31  C   UNL     1      -0.440  -0.816   1.135  0.00  0.00    +0.008 A 
ATOM     32  C   UNL     1      -0.176  -2.916   2.471  0.00  0.00    +0.045 C 
ENDBRANCH   1  29
BRANCH   4  33
ATOM     33  O   UNL     1       0.245  -8.258   0.972  0.00  0.00    -0.495 OA
ATOM     34  H   UNL     1      -0.582  -8.649   1.286  0.00  0.00    +0.293 HD
ENDBRANCH   4  33
BRANCH   2  35
ATOM     35  O   UNL     1      -1.886  -5.205  -1.279  0.00  0.00    -0.356 OA
ATOM     36  H   UNL     1      -2.690  -5.741  -1.329  0.00  0.00    +0.214 HD
ENDBRANCH   2  35
TORSDOF 5
