REMARK  Name = ZINC08614898
REMARK  9 active torsions:
REMARK  status: ('A' for Active; 'I' for Inactive)
REMARK    1  A    between atoms: C_1  and  C_2
REMARK    2  A    between atoms: C_4  and  C_32
REMARK    3  A    between atoms: N_13  and  C_24
REMARK    4  A    between atoms: C_14  and  C_17
REMARK    5  A    between atoms: C_20  and  O_23
REMARK    6  A    between atoms: C_27  and  O_30
REMARK    7  A    between atoms: O_30  and  C_31
REMARK    8  A    between atoms: C_32  and  O_33
REMARK    9  A    between atoms: O_33  and  C_34
REMARK                            x       y       z     vdW  Elec       q    Type
REMARK                         _______ _______ _______ _____ _____    ______ ____
ROOT
ATOM      1  C   UNL     1       0.094   1.522   0.180  0.00  0.00    +0.065 C 
ATOM      2  C   UNL     1       0.074   0.016   0.146  0.00  0.00    +0.040 A 
ATOM      3  C   UNL     1      -0.089  -0.645  -1.063  0.00  0.00    +0.029 A 
ATOM      4  C   UNL     1      -0.110  -2.018  -1.108  0.00  0.00    -0.009 A 
ATOM      5  C   UNL     1       0.038  -2.750   0.098  0.00  0.00    +0.035 A 
ATOM      6  C   UNL     1       0.044  -4.193   0.284  0.00  0.00    +0.058 A 
ATOM      7  C   UNL     1       0.213  -4.656   1.584  0.00  0.00    +0.098 A 
ATOM      8  S   UNL     1       0.354  -3.197   2.565  0.00  0.00    -0.062 S 
ATOM      9  C   UNL     1       0.198  -1.982   1.275  0.00  0.00    +0.111 A 
ATOM     10  N   UNL     1       0.216  -0.667   1.266  0.00  0.00    -0.245 NA
ATOM     11  C   UNL     1       0.254  -6.017   1.930  0.00  0.00    +0.261 C 
ATOM     12  O   UNL     1       0.276  -6.378   3.093  0.00  0.00    -0.269 OA
ATOM     13  N   UNL     1       0.268  -6.910   0.909  0.00  0.00    -0.244 N 
ATOM     14  C   UNL     1       0.471  -6.485  -0.474  0.00  0.00    +0.198 C 
ATOM     15  N   UNL     1      -0.110  -5.160  -0.730  0.00  0.00    -0.320 N 
ATOM     16  H   UNL     1      -0.577  -4.960  -1.556  0.00  0.00    +0.148 HD
ENDROOT
BRANCH  14  17
ATOM     17  C   UNL     1       1.950  -6.434  -0.760  0.00  0.00    -0.009 A 
ATOM     18  C   UNL     1       2.810  -7.294  -0.102  0.00  0.00    +0.010 A 
ATOM     19  C   UNL     1       4.166  -7.250  -0.362  0.00  0.00    +0.046 A 
ATOM     20  C   UNL     1       4.664  -6.341  -1.284  0.00  0.00    +0.117 A 
ATOM     21  C   UNL     1       3.800  -5.480  -1.944  0.00  0.00    +0.046 A 
ATOM     22  C   UNL     1       2.444  -5.532  -1.684  0.00  0.00    +0.010 A 
BRANCH  20  23
ATOM     23  O   UNL     1       5.998  -6.295  -1.542  0.00  0.00    -0.507 OA
ATOM     24  H   UNL     1       6.281  -6.878  -2.259  0.00  0.00    +0.292 HD
ENDBRANCH  20  23
ENDBRANCH  14  17
BRANCH  13  25
ATOM     25  C   UNL     1       0.084  -8.270   1.187  0.00  0.00    +0.039 A 
ATOM     26  C   UNL     1       0.939  -8.921   2.067  0.00  0.00    +0.027 A 
ATOM     27  C   UNL     1       0.757 -10.262   2.340  0.00  0.00    +0.047 A 
ATOM     28  C   UNL     1      -0.279 -10.960   1.736  0.00  0.00    +0.120 A 
ATOM     29  C   UNL     1      -1.133 -10.310   0.857  0.00  0.00    +0.047 A 
ATOM     30  C   UNL     1      -0.956  -8.967   0.587  0.00  0.00    +0.027 A 
BRANCH  28  31
ATOM     31  O   UNL     1      -0.457 -12.280   2.006  0.00  0.00    -0.495 OA
ATOM     32  C   UNL     1      -1.544 -12.936   1.349  0.00  0.00    +0.277 C 
ENDBRANCH  28  31
ENDBRANCH  13  25
BRANCH   4  33
ATOM     33  C   UNL     1      -0.288  -2.737  -2.420  0.00  0.00    +0.195 C 
BRANCH  33  34
ATOM     34  O   UNL     1      -0.414  -1.780  -3.474  0.00  0.00    -0.378 OA
ATOM     35  C   UNL     1      -0.588  -2.361  -4.768  0.00  0.00    +0.194 C 
ENDBRANCH  33  34
ENDBRANCH   4  33
TORSDOF 6
