REMARK  Name = ZINC61501760
REMARK  5 active torsions:
REMARK  status: ('A' for Active; 'I' for Inactive)
REMARK    1  A    between atoms: C_1  and  C_2
REMARK    2  A    between atoms: C_9  and  C_19
REMARK    3  A    between atoms: C_12  and  C_13
REMARK    4  A    between atoms: N_21  and  N_22
REMARK    5  A    between atoms: C_23  and  C_25
REMARK                            x       y       z     vdW  Elec       q    Type
REMARK                         _______ _______ _______ _____ _____    ______ ____
ROOT
ATOM      1  C   UNL     1      -0.643   1.423   0.113  0.00  0.00    +0.051 C 
ATOM      2  C   UNL     1      -0.298  -0.042   0.051  0.00  0.00    +0.040 A 
ATOM      3  C   UNL     1      -0.406  -0.749  -1.169  0.00  0.00    +0.196 A 
ATOM      4  O   UNL     1      -0.776  -0.196  -2.192  0.00  0.00    -0.287 OA
ATOM      5  C   UNL     1      -0.051  -2.182  -1.157  0.00  0.00    +0.065 A 
ATOM      6  C   UNL     1      -0.126  -2.958  -2.313  0.00  0.00    +0.015 A 
ATOM      7  C   UNL     1       0.213  -4.295  -2.268  0.00  0.00    +0.002 A 
ATOM      8  C   UNL     1       0.628  -4.874  -1.082  0.00  0.00    +0.017 A 
ATOM      9  C   UNL     1       0.710  -4.116   0.085  0.00  0.00    +0.081 A 
ATOM     10  C   UNL     1       0.368  -2.755   0.053  0.00  0.00    +0.151 A 
ATOM     11  O   UNL     1       0.439  -1.999   1.165  0.00  0.00    -0.454 OA
ATOM     12  C   UNL     1       0.125  -0.694   1.168  0.00  0.00    +0.142 A 
ENDROOT
BRANCH  12  13
ATOM     13  C   UNL     1       0.237   0.061   2.431  0.00  0.00    +0.018 A 
ATOM     14  C   UNL     1      -0.333  -0.442   3.603  0.00  0.00    +0.011 A 
ATOM     15  C   UNL     1      -0.224   0.268   4.780  0.00  0.00    +0.001 A 
ATOM     16  C   UNL     1       0.449   1.477   4.802  0.00  0.00    +0.000 A 
ATOM     17  C   UNL     1       1.016   1.982   3.645  0.00  0.00    +0.001 A 
ATOM     18  C   UNL     1       0.920   1.279   2.462  0.00  0.00    +0.011 A 
ENDBRANCH  12  13
BRANCH   9  19
ATOM     19  C   UNL     1       1.153  -4.741   1.346  0.00  0.00    +0.264 C 
ATOM     20  O   UNL     1       1.223  -4.076   2.362  0.00  0.00    -0.269 OA
ATOM     21  N   UNL     1       1.480  -6.048   1.372  0.00  0.00    -0.230 N 
ATOM     22  H   UNL     1       1.423  -6.578   0.562  0.00  0.00    +0.173 HD
BRANCH  21  23
ATOM     23  N   UNL     1       1.900  -6.641   2.570  0.00  0.00    -0.230 N 
ATOM     24  C   UNL     1       2.227  -7.949   2.595  0.00  0.00    +0.263 C 
ATOM     25  O   UNL     1       2.157  -8.613   1.579  0.00  0.00    -0.269 OA
ATOM     26  H   UNL     1       1.956  -6.111   3.380  0.00  0.00    +0.173 HD
BRANCH  24  27
ATOM     27  C   UNL     1       2.670  -8.573   3.855  0.00  0.00    +0.076 A 
ATOM     28  C   UNL     1       3.067  -9.973   4.062  0.00  0.00    +0.054 A 
ATOM     29  C   UNL     1       3.388 -10.078   5.360  0.00  0.00    +0.195 A 
ATOM     30  O   UNL     1       3.224  -8.884   5.951  0.00  0.00    -0.470 OA
ATOM     31  C   UNL     1       2.802  -7.970   5.072  0.00  0.00    +0.208 A 
ENDBRANCH  24  27
ENDBRANCH  21  23
ENDBRANCH   9  19
TORSDOF 4
