REMARK  Name = ZINC04430282
REMARK  3 active torsions:
REMARK  status: ('A' for Active; 'I' for Inactive)
REMARK    1  A    between atoms: C_1  and  C_2
REMARK    2  A    between atoms: C_2  and  O_3
REMARK    3  A    between atoms: O_3  and  C_4
REMARK                            x       y       z     vdW  Elec       q    Type
REMARK                         _______ _______ _______ _____ _____    ______ ____
ROOT
ATOM      1  C   UNL     1      -1.197  -0.636   0.010  0.00  0.00    +0.245 A 
ATOM      2  C   UNL     1      -1.268  -2.027  -0.003  0.00  0.00    +0.149 A 
ATOM      3  C   UNL     1      -2.534  -2.638   0.013  0.00  0.00    +0.187 A 
ATOM      4  N   UNL     1      -2.327  -3.968   0.004  0.00  0.00    -0.197 NA
ATOM      5  C   UNL     1      -1.045  -4.215  -0.027  0.00  0.00    +0.203 A 
ATOM      6  N   UNL     1      -0.348  -3.056  -0.024  0.00  0.00    -0.323 N 
ATOM      7  H   UNL     1       0.648  -2.961  -0.035  0.00  0.00    +0.168 HD
ATOM      8 CL   UNL     1      -0.338  -5.801  -0.051  0.00  0.00    -0.043 Cl
ATOM      9  N   UNL     1      -3.621  -1.860   0.027  0.00  0.00    -0.196 NA
ATOM     10  C   UNL     1      -3.504  -0.549   0.033  0.00  0.00    +0.228 A 
ATOM     11  N   UNL     1      -2.330   0.059   0.025  0.00  0.00    -0.181 NA
ATOM     12 CL   UNL     1      -4.945   0.418   0.052  0.00  0.00    -0.041 Cl
ENDROOT
BRANCH   1  13
ATOM     13  O   UNL     1       0.002  -0.004   0.002  0.00  0.00    -0.475 OA
BRANCH  13  15
ATOM     14  C   UNL     1       1.418   1.954  -0.001  0.00  0.00    +0.048 C 
ATOM     15  C   UNL     1      -0.017   1.425   0.010  0.00  0.00    +0.227 C 
ENDBRANCH  13  15
ENDBRANCH   1  13
TORSDOF 2
