REMARK  Name = ZINC00179897
REMARK  3 active torsions:
REMARK  status: ('A' for Active; 'I' for Inactive)
REMARK    1  A    between atoms: C_4  and  N_7
REMARK    2  A    between atoms: C_8  and  C_14
REMARK    3  A    between atoms: C_18  and  N_20
REMARK                            x       y       z     vdW  Elec       q    Type
REMARK                         _______ _______ _______ _____ _____    ______ ____
ROOT
ATOM      1  N   UNL     1       3.622  -0.651  -0.037  0.00  0.00    -0.254 N 
ATOM      2  C   UNL     1       3.656  -2.122   0.060  0.00  0.00    +0.170 C 
ATOM      3  S   UNL     1       5.387  -2.479  -0.470  0.00  0.00    -0.124 S 
ATOM      4  C   UNL     1       6.052  -0.786  -0.159  0.00  0.00    +0.167 C 
ATOM      5  C   UNL     1       4.762   0.019  -0.146  0.00  0.00    +0.231 C 
ATOM      6  O   UNL     1       4.775   1.229  -0.228  0.00  0.00    -0.274 OA
ENDROOT
BRANCH   1  10
ATOM      7  C   UNL     1      -0.016   1.380   0.012  0.00  0.00    +0.000 A 
ATOM      8  C   UNL     1       0.353   0.598   1.091  0.00  0.00    +0.002 A 
ATOM      9  C   UNL     1       1.558  -0.076   1.078  0.00  0.00    +0.023 A 
ATOM     10  C   UNL     1       2.400   0.031  -0.021  0.00  0.00    +0.038 A 
ATOM     11  C   UNL     1       2.026   0.816  -1.104  0.00  0.00    +0.023 A 
ATOM     12  C   UNL     1       0.820   1.488  -1.085  0.00  0.00    +0.002 A 
ENDBRANCH   1  10
BRANCH   2  13
ATOM     13  C   UNL     1       2.661  -2.751  -0.881  0.00  0.00    -0.015 A 
ATOM     14  C   UNL     1       2.336  -2.118  -2.067  0.00  0.00    +0.006 A 
ATOM     15  C   UNL     1       1.423  -2.694  -2.930  0.00  0.00    +0.003 A 
ATOM     16  C   UNL     1       0.836  -3.904  -2.608  0.00  0.00    +0.033 A 
ATOM     17  C   UNL     1       1.161  -4.536  -1.423  0.00  0.00    +0.127 A 
ATOM     18  C   UNL     1       2.077  -3.962  -0.562  0.00  0.00    +0.039 A 
BRANCH  17  19
ATOM     19  N   UNL     1       0.531  -5.831  -1.078  0.00  0.00    +0.056 N 
ATOM     20  O   UNL     1      -0.268  -6.334  -1.833  0.00  0.00    -0.126 OA
ATOM     21  O   UNL     1       0.816  -6.384  -0.042  0.00  0.00    -0.126 OA
ENDBRANCH  17  19
ENDBRANCH   2  13
TORSDOF 3
