REMARK  Name = ZINC64539150
REMARK  9 active torsions:
REMARK  status: ('A' for Active; 'I' for Inactive)
REMARK    1  A    between atoms: C_1  and  C_2
REMARK    2  A    between atoms: C_2  and  C_3
REMARK    3  A    between atoms: C_2  and  N_4
REMARK    4  A    between atoms: C_8  and  S_13
REMARK    5  A    between atoms: S_13  and  N_16
REMARK    6  A    between atoms: C_20  and  C_23
REMARK    7  A    between atoms: N_25  and  C_26
REMARK    8  A    between atoms: C_26  and  C_27
REMARK    9  A    between atoms: C_27  and  C_28
REMARK                            x       y       z     vdW  Elec       q    Type
REMARK                         _______ _______ _______ _____ _____    ______ ____
ROOT
ATOM      1  N   UNL     1      -4.460  -5.469  -3.031  0.00  0.00    -0.176 NA
ATOM      2  C   UNL     1      -3.428  -6.329  -3.626  0.00  0.00    +0.109 C 
ATOM      3  C   UNL     1      -2.563  -6.910  -2.503  0.00  0.00    +0.018 C 
ATOM      4  C   UNL     1      -3.462  -7.618  -1.486  0.00  0.00    +0.015 C 
ATOM      5  C   UNL     1      -4.435  -6.609  -0.873  0.00  0.00    +0.091 C 
ATOM      6  C   UNL     1      -5.317  -6.023  -1.974  0.00  0.00    +0.122 C 
ENDROOT
BRANCH   5   7
ATOM      7  C   UNL     1      -5.297  -7.300   0.151  0.00  0.00    +0.217 C 
ATOM      8  O   UNL     1      -6.502  -7.322   0.015  0.00  0.00    -0.275 OA
ATOM      9  N   UNL     1      -4.729  -7.894   1.219  0.00  0.00    -0.315 N 
ATOM     10  H   UNL     1      -3.766  -7.877   1.329  0.00  0.00    +0.149 HD
BRANCH   9  11
ATOM     11  C   UNL     1      -5.568  -8.566   2.215  0.00  0.00    +0.108 C 
BRANCH  11  12
ATOM     12  C   UNL     1      -4.681  -9.152   3.316  0.00  0.00    +0.052 C 
BRANCH  12  13
ATOM     13  C   UNL     1      -5.543  -9.844   4.341  0.00  0.00    -0.040 C 
ATOM     14  C   UNL     1      -5.848 -11.161   4.392  0.00  0.00    -0.001 A 
ATOM     15  C   UNL     1      -5.483 -12.300   3.541  0.00  0.00    +0.010 A 
ATOM     16  C   UNL     1      -5.954 -13.528   3.853  0.00  0.00    +0.001 A 
ATOM     17  C   UNL     1      -6.780 -13.741   4.965  0.00  0.00    +0.002 A 
ATOM     18  C   UNL     1      -7.159 -12.745   5.793  0.00  0.00    +0.026 A 
ATOM     19  C   UNL     1      -6.721 -11.412   5.561  0.00  0.00    +0.043 A 
ATOM     20  N   UNL     1      -6.948 -10.293   6.207  0.00  0.00    -0.380 N 
ATOM     21  C   UNL     1      -6.238  -9.207   5.523  0.00  0.00    +0.144 C 
ATOM     22  H   UNL     1      -7.491 -10.201   7.005  0.00  0.00    +0.160 HD
ENDBRANCH  12  13
ENDBRANCH  11  12
ENDBRANCH   9  11
ENDBRANCH   5   7
BRANCH   1  23
ATOM     23  S   UNL     1      -4.649  -3.904  -3.538  0.00  0.00    +0.061 S 
ATOM     24  O   UNL     1      -5.986  -3.535  -3.227  0.00  0.00    -0.153 OA
ATOM     25  O   UNL     1      -4.129  -3.839  -4.859  0.00  0.00    -0.153 OA
BRANCH  23  30
ATOM     26  N   UNL     1      -1.372  -0.511   0.012  0.00  0.00    -0.247 N 
ATOM     27  C   UNL     1      -1.953  -1.326  -0.966  0.00  0.00    +0.068 A 
ATOM     28  C   UNL     1      -1.475  -1.869  -2.146  0.00  0.00    +0.028 A 
ATOM     29  C   UNL     1      -2.301  -2.656  -2.928  0.00  0.00    +0.030 A 
ATOM     30  C   UNL     1      -3.604  -2.902  -2.535  0.00  0.00    +0.107 A 
ATOM     31  C   UNL     1      -4.089  -2.363  -1.357  0.00  0.00    +0.054 A 
ATOM     32  C   UNL     1      -3.268  -1.575  -0.569  0.00  0.00    +0.067 A 
ATOM     33  N   UNL     1      -3.467  -0.907   0.645  0.00  0.00    -0.263 N 
ATOM     34  N   UNL     1      -2.305  -0.275   0.981  0.00  0.00    -0.160 NA
ATOM     35  H   UNL     1      -4.289  -0.898   1.161  0.00  0.00    +0.168 HD
ATOM     36  H   UNL     1      -1.973  -0.579   1.884  0.00  0.00    +0.168 HD
BRANCH  26  38
ATOM     37  C   UNL     1      -0.019   1.526   0.010  0.00  0.00    +0.029 C 
ATOM     38  C   UNL     1       0.002  -0.004   0.002  0.00  0.00    +0.086 C 
ATOM     39  C   UNL     1       0.742  -0.511   1.242  0.00  0.00    +0.029 C 
ENDBRANCH  26  38
ENDBRANCH  23  30
ENDBRANCH   1  23
TORSDOF 7
