REMARK  Name = ZINC13117078
REMARK  14 active torsions:
REMARK  status: ('A' for Active; 'I' for Inactive)
REMARK    1  A    between atoms: C_1  and  O_2
REMARK    2  A    between atoms: O_2  and  C_3
REMARK    3  A    between atoms: C_3  and  C_5
REMARK    4  A    between atoms: C_5  and  N_6
REMARK    5  A    between atoms: C_9  and  C_22
REMARK    6  A    between atoms: C_10  and  N_21
REMARK    7  A    between atoms: N_11  and  C_14
REMARK    8  A    between atoms: C_14  and  C_15
REMARK    9  A    between atoms: C_22  and  C_24
REMARK   10  A    between atoms: C_24  and  O_25
REMARK   11  A    between atoms: O_25  and  C_26
REMARK   12  A    between atoms: C_26  and  C_28
REMARK   13  A    between atoms: C_33  and  O_34
REMARK   14  A    between atoms: O_34  and  C_35
REMARK                            x       y       z     vdW  Elec       q    Type
REMARK                         _______ _______ _______ _____ _____    ______ ____
ROOT
ATOM      1  N   UNL     1      -8.894   1.508   0.205  0.00  0.00    -0.249 N 
ATOM      2  C   UNL     1      -7.617   1.072   0.187  0.00  0.00    +0.270 A 
ATOM      3  O   UNL     1      -6.691   1.857   0.270  0.00  0.00    -0.267 OA
ATOM      4  C   UNL     1      -7.369  -0.370   0.059  0.00  0.00    +0.123 A 
ATOM      5  C   UNL     1      -8.482  -1.224  -0.026  0.00  0.00    +0.116 A 
ATOM      6  N   UNL     1      -9.735  -0.681   0.008  0.00  0.00    -0.277 N 
ATOM      7  C   UNL     1      -9.918   0.644   0.120  0.00  0.00    +0.334 A 
ATOM      8  O   UNL     1     -11.053   1.077   0.145  0.00  0.00    -0.246 OA
ENDROOT
BRANCH   5   9
ATOM      9  N   UNL     1      -8.314  -2.569  -0.140  0.00  0.00    -0.344 N 
ATOM     10  H   UNL     1      -7.426  -2.954  -0.080  0.00  0.00    +0.144 HD
ATOM     11  H   UNL     1      -9.083  -3.144  -0.280  0.00  0.00    +0.144 HD
ENDBRANCH   5   9
BRANCH   4  12
ATOM     12  C   UNL     1      -6.054  -0.882   0.029  0.00  0.00    +0.209 C 
ATOM     13  O   UNL     1      -5.870  -2.083   0.036  0.00  0.00    -0.288 OA
BRANCH  12  14
ATOM     14  C   UNL     1      -4.879   0.060  -0.012  0.00  0.00    +0.312 C 
BRANCH  14  15
ATOM     15  O   UNL     1      -3.645  -0.705  -0.038  0.00  0.00    -0.453 OA
BRANCH  15  16
ATOM     16  C   UNL     1      -2.493  -0.007  -0.076  0.00  0.00    +0.343 C 
ATOM     17  O   UNL     1      -2.518   1.207  -0.088  0.00  0.00    -0.245 OA
BRANCH  16  18
ATOM     18  C   UNL     1      -1.202  -0.718  -0.104  0.00  0.00    +0.101 A 
ATOM     19  C   UNL     1      -1.168  -2.115  -0.090  0.00  0.00    +0.018 A 
ATOM     20  C   UNL     1       0.043  -2.773  -0.115  0.00  0.00    +0.001 A 
ATOM     21  C   UNL     1       1.228  -2.056  -0.155  0.00  0.00    +0.004 A 
ATOM     22  C   UNL     1       1.208  -0.675  -0.174  0.00  0.00    +0.047 A 
ATOM     23  C   UNL     1      -0.001   0.004  -0.144  0.00  0.00    +0.141 A 
BRANCH  23  24
ATOM     24  O   UNL     1      -0.021   1.360  -0.158  0.00  0.00    -0.433 OA
BRANCH  24  25
ATOM     25  C   UNL     1       1.242   2.027  -0.199  0.00  0.00    +0.541 C 
ATOM     26  F   UNL     1       1.993   1.674   0.927  0.00  0.00    -0.166 F 
ATOM     27  F   UNL     1       1.932   1.649  -1.356  0.00  0.00    -0.166 F 
ENDBRANCH  24  25
ENDBRANCH  23  24
ENDBRANCH  16  18
ENDBRANCH  15  16
ENDBRANCH  14  15
ENDBRANCH  12  14
ENDBRANCH   4  12
BRANCH   1  28
ATOM     28  C   UNL     1      -9.166   2.942   0.326  0.00  0.00    +0.250 C 
BRANCH  28  29
ATOM     29  C   UNL     1      -9.274   3.312   1.782  0.00  0.00    +0.327 C 
ATOM     30  O   UNL     1      -9.138   2.465   2.633  0.00  0.00    -0.249 OA
BRANCH  29  32
ATOM     31  C   UNL     1      -9.613   4.867   3.557  0.00  0.00    +0.280 C 
ATOM     32  O   UNL     1      -9.522   4.583   2.135  0.00  0.00    -0.467 OA
ENDBRANCH  29  32
ENDBRANCH  28  29
ENDBRANCH   1  28
BRANCH   6  33
ATOM     33  C   UNL     1     -10.902  -1.562  -0.081  0.00  0.00    +0.163 C 
BRANCH  33  34
ATOM     34  C   UNL     1     -11.317  -1.987   1.304  0.00  0.00    -0.028 A 
ATOM     35  C   UNL     1     -10.788  -3.135   1.863  0.00  0.00    +0.005 A 
ATOM     36  C   UNL     1     -11.165  -3.522   3.135  0.00  0.00    +0.000 A 
ATOM     37  C   UNL     1     -12.079  -2.766   3.845  0.00  0.00    +0.000 A 
ATOM     38  C   UNL     1     -12.612  -1.621   3.284  0.00  0.00    +0.000 A 
ATOM     39  C   UNL     1     -12.231  -1.231   2.014  0.00  0.00    +0.005 A 
ENDBRANCH  33  34
ENDBRANCH   6  33
TORSDOF 13
