REMARK  Name = ZINC35378877
REMARK  8 active torsions:
REMARK  status: ('A' for Active; 'I' for Inactive)
REMARK    1  A    between atoms: C_1  and  C_2
REMARK    2  A    between atoms: C_7  and  S_8
REMARK    3  A    between atoms: S_8  and  N_11
REMARK    4  A    between atoms: C_15  and  C_18
REMARK    5  A    between atoms: N_20  and  C_21
REMARK    6  A    between atoms: C_24  and  C_27
REMARK    7  A    between atoms: C_27  and  C_28
REMARK    8  A    between atoms: C_27  and  C_29
REMARK                            x       y       z     vdW  Elec       q    Type
REMARK                         _______ _______ _______ _____ _____    ______ ____
ROOT
ATOM      1  N   UNL     1       1.440   1.024   2.805  0.00  0.00    -0.176 NA
ATOM      2  C   UNL     1       2.632   0.415   3.409  0.00  0.00    +0.109 C 
ATOM      3  C   UNL     1       3.169   1.353   4.495  0.00  0.00    +0.018 C 
ATOM      4  C   UNL     1       3.409   2.739   3.892  0.00  0.00    +0.015 C 
ATOM      5  C   UNL     1       2.085   3.308   3.373  0.00  0.00    +0.091 C 
ATOM      6  C   UNL     1       1.538   2.389   2.271  0.00  0.00    +0.122 C 
ENDROOT
BRANCH   5   7
ATOM      7  C   UNL     1       2.316   4.686   2.810  0.00  0.00    +0.222 C 
ATOM      8  O   UNL     1       2.064   4.916   1.646  0.00  0.00    -0.275 OA
ATOM      9  N   UNL     1       2.803   5.664   3.600  0.00  0.00    -0.285 N 
ATOM     10  H   UNL     1       2.941   5.500   4.546  0.00  0.00    +0.155 HD
BRANCH   9  11
ATOM     11  C   UNL     1       3.109   6.916   3.055  0.00  0.00    +0.033 A 
ATOM     12  C   UNL     1       4.194   7.638   3.536  0.00  0.00    +0.023 A 
ATOM     13  C   UNL     1       4.493   8.873   2.996  0.00  0.00    +0.006 A 
ATOM     14  C   UNL     1       3.713   9.392   1.978  0.00  0.00    -0.045 A 
ATOM     15  C   UNL     1       2.632   8.676   1.498  0.00  0.00    +0.006 A 
ATOM     16  C   UNL     1       2.331   7.437   2.029  0.00  0.00    +0.023 A 
BRANCH  14  17
ATOM     17  C   UNL     1       4.043  10.741   1.392  0.00  0.00    +0.013 C 
ATOM     18  C   UNL     1       4.333  10.589  -0.103  0.00  0.00    +0.012 C 
ATOM     19  C   UNL     1       2.855  11.686   1.588  0.00  0.00    +0.012 C 
ENDBRANCH  14  17
ENDBRANCH   9  11
ENDBRANCH   5   7
BRANCH   1  20
ATOM     20  S   UNL     1       0.014   0.186   2.721  0.00  0.00    +0.061 S 
ATOM     21  O   UNL     1      -1.022   1.154   2.628  0.00  0.00    -0.153 OA
ATOM     22  O   UNL     1       0.055  -0.788   3.755  0.00  0.00    -0.153 OA
BRANCH  20  29
ATOM     23  C   UNL     1      -0.010   1.502   0.004  0.00  0.00    +0.046 C 
ATOM     24  C   UNL     1       0.006  -0.005   0.000  0.00  0.00    -0.022 A 
ATOM     25  C   UNL     1       0.014  -0.691  -1.201  0.00  0.00    +0.032 A 
ATOM     26  C   UNL     1       0.028  -2.075  -1.203  0.00  0.00    +0.076 A 
ATOM     27  C   UNL     1       0.034  -2.774   0.004  0.00  0.00    +0.144 A 
ATOM     28  C   UNL     1       0.026  -2.081   1.202  0.00  0.00    +0.076 A 
ATOM     29  C   UNL     1       0.017  -0.697   1.197  0.00  0.00    +0.112 A 
ATOM     30  O   UNL     1       0.044  -4.134  -0.010  0.00  0.00    -0.481 OA
ATOM     31  C   UNL     1      -0.642  -4.770  -1.091  0.00  0.00    +0.325 C 
ATOM     32  C   UNL     1      -0.266  -4.107  -2.391  0.00  0.00    +0.255 C 
ATOM     33  O   UNL     1      -0.235  -4.753  -3.417  0.00  0.00    -0.272 OA
ATOM     34  N   UNL     1       0.037  -2.791  -2.409  0.00  0.00    -0.280 N 
ATOM     35  H   UNL     1       0.257  -2.347  -3.243  0.00  0.00    +0.155 HD
ENDBRANCH  20  29
ENDBRANCH   1  20
TORSDOF 5
