REMARK  Name = ZINC44662681
REMARK  4 active torsions:
REMARK  status: ('A' for Active; 'I' for Inactive)
REMARK    1  A    between atoms: C_7  and  C_10
REMARK    2  A    between atoms: C_10  and  C_12
REMARK    3  A    between atoms: C_12  and  S_13
REMARK    4  A    between atoms: S_13  and  C_14
REMARK                            x       y       z     vdW  Elec       q    Type
REMARK                         _______ _______ _______ _____ _____    ______ ____
ROOT
ATOM      1  S   UNL     1      -0.202  -5.714  -0.026  0.00  0.00    -0.110 S 
ENDROOT
BRANCH   1   2
ATOM      2  C   UNL     1       0.595  -7.344  -0.042  0.00  0.00    +0.242 C 
ATOM      3  N   UNL     1       1.508  -7.481   1.102  0.00  0.00    -0.237 N 
ATOM      4  N   UNL     1       2.784  -7.677   0.561  0.00  0.00    -0.161 NA
ATOM      5  C   UNL     1       2.749  -7.675  -0.726  0.00  0.00    +0.185 C 
ATOM      6  N   UNL     1       1.471  -7.483  -1.235  0.00  0.00    -0.248 N 
ATOM      7  C   UNL     1       1.308  -7.463  -2.626  0.00  0.00    +0.052 A 
ATOM      8  C   UNL     1       0.102  -7.281  -3.322  0.00  0.00    +0.025 A 
ATOM      9  C   UNL     1       0.076  -7.281  -4.698  0.00  0.00    +0.002 A 
ATOM     10  C   UNL     1       1.232  -7.461  -5.437  0.00  0.00    +0.001 A 
ATOM     11  C   UNL     1       2.434  -7.643  -4.774  0.00  0.00    +0.017 A 
ATOM     12  C   UNL     1       2.459  -7.642  -3.399  0.00  0.00    +0.037 A 
ATOM     13  S   UNL     1       3.754  -7.832  -2.189  0.00  0.00    -0.051 S 
ATOM     14  H   UNL     1       1.274  -7.442   2.043  0.00  0.00    +0.171 HD
ENDBRANCH   1   2
BRANCH   1  15
ATOM     15  C   UNL     1       1.187  -4.547  -0.033  0.00  0.00    +0.151 C 
BRANCH  15  16
ATOM     16  C   UNL     1       0.657  -3.136  -0.021  0.00  0.00    +0.171 C 
ATOM     17  O   UNL     1      -0.541  -2.938  -0.009  0.00  0.00    -0.291 OA
BRANCH  16  24
ATOM     18  C   UNL     1      -0.016   1.348   0.009  0.00  0.00    +0.001 A 
ATOM     19  C   UNL     1       1.158   2.117   0.002  0.00  0.00    +0.002 A 
ATOM     20  C   UNL     1       2.384   1.551  -0.012  0.00  0.00    +0.026 A 
ATOM     21  C   UNL     1       2.494   0.083  -0.021  0.00  0.00    +0.043 A 
ATOM     22  N   UNL     1       3.525  -0.712  -0.035  0.00  0.00    -0.380 N 
ATOM     23  C   UNL     1       3.065  -2.104  -0.039  0.00  0.00    +0.152 C 
ATOM     24  C   UNL     1       1.553  -2.046  -0.024  0.00  0.00    +0.024 C 
ATOM     25  C   UNL     1       1.234  -0.700  -0.013  0.00  0.00    +0.006 A 
ATOM     26  C   UNL     1       0.002  -0.004   0.002  0.00  0.00    +0.010 A 
ATOM     27  H   UNL     1       4.453  -0.428  -0.043  0.00  0.00    +0.160 HD
ENDBRANCH  16  24
ENDBRANCH  15  16
ENDBRANCH   1  15
TORSDOF 4
