REMARK  Name = ZINC17047363
REMARK  5 active torsions:
REMARK  status: ('A' for Active; 'I' for Inactive)
REMARK    1  A    between atoms: C_1  and  O_2
REMARK    2  A    between atoms: O_2  and  C_3
REMARK    3  A    between atoms: C_6  and  O_16
REMARK    4  A    between atoms: C_7  and  N_9
REMARK    5  A    between atoms: N_10  and  C_11
REMARK                            x       y       z     vdW  Elec       q    Type
REMARK                         _______ _______ _______ _____ _____    ______ ____
ROOT
ATOM      1  C   UNL     1      -1.201  -0.638   0.010  0.00  0.00    +0.122 A 
ATOM      2  C   UNL     1      -2.375   0.105   0.019  0.00  0.00    +0.049 A 
ATOM      3  C   UNL     1      -3.603  -0.529   0.028  0.00  0.00    +0.051 A 
ATOM      4  C   UNL     1      -3.672  -1.912   0.026  0.00  0.00    +0.144 A 
ATOM      5  C   UNL     1      -2.490  -2.670   0.016  0.00  0.00    +0.131 A 
ATOM      6  C   UNL     1      -1.252  -2.019   0.003  0.00  0.00    +0.079 A 
ENDROOT
BRANCH   1   8
ATOM      7  C   UNL     1      -0.017   1.425   0.010  0.00  0.00    +0.277 C 
ATOM      8  O   UNL     1       0.002  -0.004   0.002  0.00  0.00    -0.495 OA
ENDBRANCH   1   8
BRANCH   5   9
ATOM      9  N   UNL     1      -2.549  -4.031   0.015  0.00  0.00    -0.143 NA
ATOM     10  N   UNL     1      -1.461  -4.724   0.006  0.00  0.00    -0.121 NA
BRANCH  10  11
ATOM     11  C   UNL     1      -1.520  -6.081   0.005  0.00  0.00    +0.213 A 
ATOM     12  N   UNL     1      -2.583  -6.879   0.006  0.00  0.00    -0.228 NA
ATOM     13  C   UNL     1      -2.454  -8.181   0.005  0.00  0.00    +0.121 A 
ATOM     14  C   UNL     1      -1.211  -8.741   0.002  0.00  0.00    +0.068 A 
ATOM     15  S   UNL     1      -0.188  -7.274  -0.006  0.00  0.00    -0.055 S 
ENDBRANCH  10  11
ENDBRANCH   5   9
BRANCH   4  16
ATOM     16  O   UNL     1      -4.879  -2.534   0.035  0.00  0.00    -0.505 OA
ATOM     17  H   UNL     1      -5.236  -2.713  -0.846  0.00  0.00    +0.292 HD
ENDBRANCH   4  16
TORSDOF 4
