REMARK  Name = ZINC66106420
REMARK  3 active torsions:
REMARK  status: ('A' for Active; 'I' for Inactive)
REMARK    1  A    between atoms: C_5  and  N_7
REMARK    2  A    between atoms: C_11  and  C_14
REMARK    3  A    between atoms: C_16  and  C_19
REMARK                            x       y       z     vdW  Elec       q    Type
REMARK                         _______ _______ _______ _____ _____    ______ ____
ROOT
ATOM      1  N   UNL     1       1.248  -2.051  -0.022  0.00  0.00    -0.223 NA
ATOM      2  C   UNL     1       0.128  -2.731   0.084  0.00  0.00    +0.174 C 
ATOM      3  N   UNL     1      -1.118  -2.118   0.101  0.00  0.00    -0.215 N 
ATOM      4  N   UNL     1      -2.130  -2.641   0.902  0.00  0.00    -0.181 NA
ATOM      5  C   UNL     1      -2.132  -3.732   1.560  0.00  0.00    +0.111 C 
ATOM      6  C   UNL     1      -1.006  -4.723   1.655  0.00  0.00    +0.138 C 
ATOM      7  S   UNL     1       0.093  -4.503   0.211  0.00  0.00    -0.083 S 
ATOM      8  H   UNL     1      -1.282  -1.331  -0.442  0.00  0.00    +0.176 HD
ENDROOT
BRANCH   1  13
ATOM      9  C   UNL     1       0.507   1.378   0.993  0.00  0.00    +0.002 A 
ATOM     10  C   UNL     1       1.169   2.087   0.006  0.00  0.00    +0.002 A 
ATOM     11  C   UNL     1       1.858   1.419  -0.991  0.00  0.00    +0.022 A 
ATOM     12  C   UNL     1       1.889   0.039  -1.007  0.00  0.00    +0.066 A 
ATOM     13  C   UNL     1       1.222  -0.683  -0.013  0.00  0.00    +0.085 A 
ATOM     14  C   UNL     1       0.530  -0.001   0.990  0.00  0.00    +0.029 A 
ATOM     15 CL   UNL     1       2.753  -0.798  -2.259  0.00  0.00    -0.081 Cl
ENDBRANCH   1  13
BRANCH   5  16
ATOM     16  C   UNL     1      -3.358  -4.053   2.300  0.00  0.00    +0.152 A 
ATOM     17  C   UNL     1      -4.485  -3.292   2.339  0.00  0.00    +0.064 A 
ATOM     18  C   UNL     1      -5.410  -3.981   3.170  0.00  0.00    +0.075 A 
ATOM     19  C   UNL     1      -4.785  -5.122   3.586  0.00  0.00    +0.208 A 
ATOM     20  O   UNL     1      -3.558  -5.154   3.052  0.00  0.00    -0.461 OA
BRANCH  18  21
ATOM     21  C   UNL     1      -6.776  -3.548   3.514  0.00  0.00    +0.245 C 
ATOM     22  O   UNL     1      -7.213  -2.503   3.072  0.00  0.00    -0.270 OA
ATOM     23  N   UNL     1      -7.542  -4.312   4.319  0.00  0.00    -0.325 N 
ATOM     24  H   UNL     1      -7.194  -5.146   4.672  0.00  0.00    +0.145 HD
ATOM     25  H   UNL     1      -8.441  -4.027   4.546  0.00  0.00    +0.145 HD
ENDBRANCH  18  21
ENDBRANCH   5  16
TORSDOF 3
