REMARK  Name = ZINC00708391
REMARK  4 active torsions:
REMARK  status: ('A' for Active; 'I' for Inactive)
REMARK    1  A    between atoms: C_1  and  N_2
REMARK    2  A    between atoms: C_12  and  S_15
REMARK    3  A    between atoms: S_15  and  C_16
REMARK    4  A    between atoms: C_16  and  C_17
REMARK                            x       y       z     vdW  Elec       q    Type
REMARK                         _______ _______ _______ _____ _____    ______ ____
ROOT
ATOM      1  C   UNL     1      -3.710   3.689   0.057  0.00  0.00    +0.151 C 
ATOM      2  N   UNL     1      -2.289   4.045   0.045  0.00  0.00    -0.327 N 
ATOM      3  C   UNL     1      -1.246   3.134   0.031  0.00  0.00    +0.053 A 
ATOM      4  C   UNL     1      -1.219   1.743   0.017  0.00  0.00    +0.026 A 
ATOM      5  C   UNL     1      -0.013   1.076   0.008  0.00  0.00    +0.002 A 
ATOM      6  C   UNL     1       1.182   1.780   0.000  0.00  0.00    +0.001 A 
ATOM      7  C   UNL     1       1.176   3.158   0.007  0.00  0.00    +0.012 A 
ATOM      8  C   UNL     1      -0.036   3.845   0.023  0.00  0.00    +0.029 A 
ATOM      9  C   UNL     1      -0.394   5.273   0.033  0.00  0.00    +0.138 A 
ATOM     10  C   UNL     1      -1.803   5.329   0.047  0.00  0.00    +0.165 A 
ATOM     11  N   UNL     1      -2.388   6.523   0.059  0.00  0.00    -0.201 NA
ATOM     12  C   UNL     1      -1.634   7.614   0.056  0.00  0.00    +0.212 A 
ATOM     13  N   UNL     1      -0.307   7.537   0.043  0.00  0.00    -0.122 NA
ATOM     14  N   UNL     1       0.302   6.401   0.032  0.00  0.00    -0.143 NA
ENDROOT
BRANCH  12  15
ATOM     15  S   UNL     1      -2.406   9.198   0.071  0.00  0.00    -0.075 S 
BRANCH  15  16
ATOM     16  C   UNL     1      -0.942  10.262   0.061  0.00  0.00    +0.173 C 
BRANCH  16  17
ATOM     17  C   UNL     1      -1.371  11.707   0.071  0.00  0.00    +0.229 C 
ATOM     18  O   UNL     1      -2.551  11.989   0.084  0.00  0.00    -0.275 OA
ATOM     19  N   UNL     1      -0.444  12.685   0.067  0.00  0.00    -0.264 N 
ATOM     20  C   UNL     1      -0.840  14.018   0.076  0.00  0.00    +0.164 A 
ATOM     21  N   UNL     1      -2.059  14.520   0.084  0.00  0.00    -0.233 NA
ATOM     22  C   UNL     1      -2.261  15.823   0.098  0.00  0.00    +0.120 A 
ATOM     23  C   UNL     1      -1.182  16.644   0.091  0.00  0.00    +0.068 A 
ATOM     24  S   UNL     1       0.145  15.448   0.073  0.00  0.00    -0.061 S 
ATOM     25  H   UNL     1       0.499  12.459   0.056  0.00  0.00    +0.157 HD
ENDBRANCH  16  17
ENDBRANCH  15  16
ENDBRANCH  12  15
TORSDOF 3
