REMARK  Name = ZINC00448948
REMARK  5 active torsions:
REMARK  status: ('A' for Active; 'I' for Inactive)
REMARK    1  A    between atoms: C_1  and  N_2
REMARK    2  A    between atoms: N_2  and  C_3
REMARK    3  A    between atoms: N_2  and  C_4
REMARK    4  A    between atoms: C_7  and  N_10
REMARK    5  A    between atoms: C_19  and  C_21
REMARK                            x       y       z     vdW  Elec       q    Type
REMARK                         _______ _______ _______ _____ _____    ______ ____
ROOT
ATOM      1  N   UNL     1       1.325  -1.390   0.104  0.00  0.00    -0.328 N 
ATOM      2  C   UNL     1       2.255  -2.386  -0.082  0.00  0.00    +0.180 C 
ATOM      3  N   UNL     1       1.845  -3.698  -0.207  0.00  0.00    -0.298 N 
ATOM      4  C   UNL     1       0.506  -3.995  -0.281  0.00  0.00    +0.211 A 
ATOM      5  N   UNL     1       0.108  -5.296  -0.269  0.00  0.00    -0.293 N 
ATOM      6  H   UNL     1       0.788  -6.028  -0.210  0.00  0.00    +0.172 HD
ATOM      7  C   UNL     1      -1.206  -5.596  -0.335  0.00  0.00    +0.253 A 
ATOM      8  O   UNL     1      -1.581  -6.757  -0.320  0.00  0.00    -0.268 OA
ATOM      9  C   UNL     1      -2.136  -4.544  -0.428  0.00  0.00    +0.102 A 
ATOM     10  C   UNL     1      -1.677  -3.259  -0.442  0.00  0.00    +0.152 A 
ATOM     11  N   UNL     1      -0.370  -3.016  -0.368  0.00  0.00    -0.210 NA
ATOM     12  H   UNL     1       0.393  -1.617   0.249  0.00  0.00    +0.169 HD
ATOM     13  H   UNL     1       4.258  -2.729  -0.200  0.00  0.00    +0.159 HD
ATOM     14  H   UNL     1       2.502  -4.411  -0.242  0.00  0.00    +0.172 HD
ATOM     15  N   UNL     1       3.526  -2.021  -0.138  0.00  0.00    -0.371 N 
ATOM     16  H   UNL     1       3.776  -1.025  -0.120  0.00  0.00    +0.159 HD
ENDROOT
BRANCH   1  20
ATOM     17  C   UNL     1       2.511   2.608   0.046  0.00  0.00    +0.029 A 
ATOM     18  C   UNL     1       3.247   1.655  -0.646  0.00  0.00    +0.025 A 
ATOM     19  C   UNL     1       2.854   0.332  -0.627  0.00  0.00    +0.027 A 
ATOM     20  C   UNL     1       1.723  -0.047   0.085  0.00  0.00    +0.042 A 
ATOM     21  C   UNL     1       0.988   0.906   0.777  0.00  0.00    +0.027 A 
ATOM     22  C   UNL     1       1.381   2.230   0.758  0.00  0.00    +0.025 A 
BRANCH  17  24
ATOM     23  C   UNL     1       4.103   4.348  -0.723  0.00  0.00    +0.129 C 
ATOM     24  N   UNL     1       2.910   3.949   0.027  0.00  0.00    -0.336 N 
ATOM     25  C   UNL     1       2.134   4.955   0.758  0.00  0.00    +0.129 C 
ENDBRANCH  17  24
ENDBRANCH   1  20
BRANCH  10  26
ATOM     26  C   UNL     1      -2.652  -2.114  -0.541  0.00  0.00    +0.435 C 
ATOM     27  F   UNL     1      -3.956  -2.616  -0.607  0.00  0.00    -0.164 F 
ATOM     28  F   UNL     1      -2.523  -1.294   0.585  0.00  0.00    -0.164 F 
ATOM     29  F   UNL     1      -2.380  -1.369  -1.694  0.00  0.00    -0.164 F 
ENDBRANCH  10  26
TORSDOF 3
