REMARK  Name = ZINC14506652
REMARK  10 active torsions:
REMARK  status: ('A' for Active; 'I' for Inactive)
REMARK    1  A    between atoms: C_1  and  O_2
REMARK    2  A    between atoms: O_2  and  C_3
REMARK    3  A    between atoms: C_3  and  C_4
REMARK    4  A    between atoms: C_4  and  N_5
REMARK    5  A    between atoms: C_6  and  N_35
REMARK    6  A    between atoms: C_7  and  N_14
REMARK    7  A    between atoms: N_14  and  C_15
REMARK    8  A    between atoms: C_15  and  C_16
REMARK    9  A    between atoms: C_22  and  C_24
REMARK   10  A    between atoms: C_24  and  C_25
REMARK                            x       y       z     vdW  Elec       q    Type
REMARK                         _______ _______ _______ _____ _____    ______ ____
ROOT
ATOM      1  N   UNL     1      -2.627  -1.524  -4.638  0.00  0.00    -0.260 N 
ATOM      2  C   UNL     1      -2.303  -2.822  -4.467  0.00  0.00    +0.225 C 
ATOM      3  O   UNL     1      -1.688  -3.169  -3.480  0.00  0.00    -0.275 OA
ENDROOT
BRANCH   1   6
ATOM      4  N   UNL     1      -3.077   0.932  -1.943  0.00  0.00    -0.278 N 
ATOM      5  C   UNL     1      -3.378   0.023  -2.930  0.00  0.00    +0.127 A 
ATOM      6  C   UNL     1      -2.351  -0.587  -3.620  0.00  0.00    +0.140 A 
ATOM      7  C   UNL     1      -1.022  -0.259  -3.290  0.00  0.00    +0.277 A 
ATOM      8  O   UNL     1      -0.095  -0.784  -3.883  0.00  0.00    -0.266 OA
ATOM      9  N   UNL     1      -0.782   0.638  -2.314  0.00  0.00    -0.273 N 
ATOM     10  H   UNL     1       0.162   0.869  -2.076  0.00  0.00    +0.173 HD
ATOM     11  C   UNL     1      -1.796   1.227  -1.656  0.00  0.00    +0.331 A 
ATOM     12  O   UNL     1      -1.551   2.037  -0.783  0.00  0.00    -0.246 OA
BRANCH   5  13
ATOM     13  N   UNL     1      -4.687  -0.273  -3.227  0.00  0.00    -0.343 N 
ATOM     14  H   UNL     1      -5.403   0.102  -2.690  0.00  0.00    +0.144 HD
ATOM     15  H   UNL     1      -4.895  -0.857  -3.973  0.00  0.00    +0.144 HD
ENDBRANCH   5  13
BRANCH   4  16
ATOM     16  C   UNL     1      -4.158   1.589  -1.203  0.00  0.00    +0.156 C 
BRANCH  16  17
ATOM     17  C   UNL     1      -4.514   0.753   0.028  0.00  0.00    +0.181 C 
BRANCH  17  19
ATOM     18  C   UNL     1      -3.632  -0.030   2.115  0.00  0.00    +0.194 C 
ATOM     19  O   UNL     1      -3.402   0.729   0.925  0.00  0.00    -0.381 OA
ENDBRANCH  17  19
ENDBRANCH  16  17
ENDBRANCH   4  16
ENDBRANCH   1   6
BRANCH   1  20
ATOM     20  C   UNL     1      -3.266  -1.086  -5.882  0.00  0.00    +0.149 C 
BRANCH  20  21
ATOM     21  C   UNL     1      -2.217  -0.558  -6.827  0.00  0.00    -0.030 A 
ATOM     22  C   UNL     1      -1.819   0.763  -6.749  0.00  0.00    +0.005 A 
ATOM     23  C   UNL     1      -0.853   1.246  -7.612  0.00  0.00    +0.000 A 
ATOM     24  C   UNL     1      -0.293   0.410  -8.560  0.00  0.00    +0.000 A 
ATOM     25  C   UNL     1      -0.695  -0.910  -8.641  0.00  0.00    +0.000 A 
ATOM     26  C   UNL     1      -1.657  -1.394  -7.774  0.00  0.00    +0.005 A 
ENDBRANCH  20  21
ENDBRANCH   1  20
BRANCH   2  27
ATOM     27  C   UNL     1      -2.704  -3.842  -5.502  0.00  0.00    +0.131 C 
BRANCH  27  28
ATOM     28  C   UNL     1      -2.363  -5.223  -5.005  0.00  0.00    -0.038 A 
ATOM     29  C   UNL     1      -1.113  -5.767  -5.295  0.00  0.00    +0.005 A 
ATOM     30  C   UNL     1      -0.771  -7.009  -4.856  0.00  0.00    +0.009 A 
ATOM     31  C   UNL     1      -1.693  -7.762  -4.110  0.00  0.00    -0.018 A 
ATOM     32  C   UNL     1      -1.378  -9.051  -3.646  0.00  0.00    +0.008 A 
ATOM     33  C   UNL     1      -2.297  -9.750  -2.926  0.00  0.00    +0.001 A 
ATOM     34  C   UNL     1      -3.549  -9.208  -2.640  0.00  0.00    +0.001 A 
ATOM     35  C   UNL     1      -3.889  -7.963  -3.073  0.00  0.00    +0.008 A 
ATOM     36  C   UNL     1      -2.966  -7.211  -3.820  0.00  0.00    -0.018 A 
ATOM     37  C   UNL     1      -3.281  -5.922  -4.284  0.00  0.00    +0.012 A 
ENDBRANCH  27  28
ENDBRANCH   2  27
TORSDOF 9
