REMARK  Name = ZINC63641778
REMARK  4 active torsions:
REMARK  status: ('A' for Active; 'I' for Inactive)
REMARK    1  A    between atoms: C_8  and  C_16
REMARK    2  A    between atoms: C_18  and  O_34
REMARK    3  A    between atoms: C_21  and  S_33
REMARK    4  A    between atoms: N_23  and  C_26
REMARK                            x       y       z     vdW  Elec       q    Type
REMARK                         _______ _______ _______ _____ _____    ______ ____
ROOT
ATOM      1  C   UNL     1       5.176  -3.162   0.821  0.00  0.00    +0.138 C 
ATOM      2  C   UNL     1       5.717  -3.934   2.028  0.00  0.00    +0.198 C 
ATOM      3  N   UNL     1       7.188  -3.912   1.974  0.00  0.00    -0.264 NA
ATOM      4  C   UNL     1       7.689  -2.557   2.229  0.00  0.00    +0.208 C 
ATOM      5  N   UNL     1       7.039  -1.595   1.346  0.00  0.00    -0.243 N 
ATOM      6  C   UNL     1       5.889  -1.842   0.711  0.00  0.00    +0.230 C 
ATOM      7  O   UNL     1       5.403  -0.972   0.020  0.00  0.00    -0.275 OA
ATOM      8  H   UNL     1       7.583  -4.573   2.626  0.00  0.00    +0.127 HD
ENDROOT
BRANCH   1  15
ATOM      9  C   UNL     1      -1.185  -5.719  -0.160  0.00  0.00    +0.001 A 
ATOM     10  C   UNL     1      -0.343  -6.406  -1.046  0.00  0.00    +0.002 A 
ATOM     11  C   UNL     1       1.001  -6.276  -1.020  0.00  0.00    +0.026 A 
ATOM     12  C   UNL     1       1.625  -5.417  -0.075  0.00  0.00    +0.043 A 
ATOM     13  N   UNL     1       2.887  -5.111   0.126  0.00  0.00    -0.376 N 
ATOM     14  C   UNL     1       2.970  -4.245   1.298  0.00  0.00    +0.124 C 
ATOM     15  C   UNL     1       3.676  -2.919   1.001  0.00  0.00    +0.096 C 
ATOM     16  N   UNL     1       3.454  -2.012   2.138  0.00  0.00    -0.310 NA
ATOM     17  C   UNL     1       2.054  -1.603   2.287  0.00  0.00    +0.085 C 
ATOM     18  C   UNL     1       1.183  -2.822   2.643  0.00  0.00    +0.048 C 
ATOM     19  C   UNL     1       1.530  -3.915   1.657  0.00  0.00    -0.036 C 
ATOM     20  C   UNL     1       0.755  -4.670   0.868  0.00  0.00    -0.001 A 
ATOM     21  C   UNL     1      -0.696  -4.875   0.775  0.00  0.00    +0.010 A 
ATOM     22  H   UNL     1       3.806  -2.412   2.995  0.00  0.00    +0.122 HD
ATOM     23  H   UNL     1       3.636  -5.409  -0.413  0.00  0.00    +0.160 HD
ENDBRANCH   1  15
BRANCH   5  24
ATOM     24  C   UNL     1       7.650  -0.349   1.155  0.00  0.00    +0.074 A 
ATOM     25  C   UNL     1       8.561  -0.172   0.122  0.00  0.00    +0.026 A 
ATOM     26  C   UNL     1       9.161   1.058  -0.065  0.00  0.00    +0.002 A 
ATOM     27  C   UNL     1       8.857   2.113   0.775  0.00  0.00    +0.003 A 
ATOM     28  C   UNL     1       7.951   1.942   1.806  0.00  0.00    +0.040 A 
ATOM     29  C   UNL     1       7.341   0.715   1.995  0.00  0.00    +0.145 A 
ATOM     30  F   UNL     1       6.452   0.549   2.998  0.00  0.00    -0.204 F 
ENDBRANCH   5  24
BRANCH   4  31
ATOM     31  S   UNL     1       7.351  -2.108   3.953  0.00  0.00    -0.140 S 
ATOM     32  H   UNL     1       8.012  -3.037   4.667  0.00  0.00    +0.105 HD
ENDBRANCH   4  31
BRANCH   2  33
ATOM     33  O   UNL     1       5.266  -3.316   3.235  0.00  0.00    -0.377 OA
ATOM     34  H   UNL     1       5.573  -3.755   4.040  0.00  0.00    +0.211 HD
ENDBRANCH   2  33
TORSDOF 4
