REMARK  Name = ZINC12853508
REMARK  6 active torsions:
REMARK  status: ('A' for Active; 'I' for Inactive)
REMARK    1  A    between atoms: C_1  and  C_2
REMARK    2  A    between atoms: C_2  and  C_4
REMARK    3  A    between atoms: C_2  and  N_12
REMARK    4  A    between atoms: N_12  and  C_13
REMARK    5  A    between atoms: C_13  and  C_14
REMARK    6  A    between atoms: C_18  and  C_27
REMARK                            x       y       z     vdW  Elec       q    Type
REMARK                         _______ _______ _______ _____ _____    ______ ____
ROOT
ATOM      1  C   UNL     1       2.856  -1.036   2.199  0.00  0.00    +0.234 C 
ATOM      2  O   UNL     1       2.220  -1.230   3.213  0.00  0.00    -0.274 OA
ATOM      3  N   UNL     1       4.186  -1.254   2.186  0.00  0.00    -0.263 N 
ATOM      4  C   UNL     1       5.004  -0.902   1.013  0.00  0.00    +0.168 C 
ATOM      5  C   UNL     1       6.301  -0.262   1.528  0.00  0.00    +0.276 C 
ATOM      6  O   UNL     1       6.964  -1.191   2.389  0.00  0.00    -0.476 OA
ATOM      7  C   UNL     1       6.230  -1.779   3.370  0.00  0.00    +0.143 A 
ATOM      8  C   UNL     1       4.841  -1.820   3.293  0.00  0.00    +0.078 A 
ATOM      9  C   UNL     1       4.107  -2.422   4.301  0.00  0.00    +0.027 A 
ATOM     10  C   UNL     1       4.756  -2.975   5.390  0.00  0.00    +0.002 A 
ATOM     11  C   UNL     1       6.135  -2.927   5.471  0.00  0.00    +0.004 A 
ATOM     12  C   UNL     1       6.871  -2.340   4.464  0.00  0.00    +0.047 A 
ENDROOT
BRANCH   5  13
ATOM     13  C   UNL     1       7.195   0.076   0.362  0.00  0.00    +0.253 C 
ATOM     14  O   UNL     1       8.261  -0.488   0.232  0.00  0.00    -0.272 OA
ATOM     15  N   UNL     1       6.810   1.006  -0.535  0.00  0.00    -0.326 N 
ATOM     16  H   UNL     1       5.958   1.457  -0.430  0.00  0.00    +0.145 HD
ATOM     17  H   UNL     1       7.386   1.223  -1.285  0.00  0.00    +0.145 HD
ENDBRANCH   5  13
BRANCH   1  18
ATOM     18  C   UNL     1       2.159  -0.550   0.954  0.00  0.00    +0.178 C 
BRANCH  18  19
ATOM     19  N   UNL     1       0.710  -0.510   1.188  0.00  0.00    -0.302 NA
ATOM     20  H   UNL     1       0.488   0.061   1.989  0.00  0.00    +0.123 HD
BRANCH  19  22
ATOM     21  C   UNL     1      -0.029   1.489  -0.017  0.00  0.00    +0.029 C 
ATOM     22  C   UNL     1      -0.004  -0.040  -0.007  0.00  0.00    +0.083 C 
BRANCH  22  23
ATOM     23  C   UNL     1      -1.415  -0.567   0.011  0.00  0.00    -0.012 A 
ATOM     24  C   UNL     1      -2.016  -0.892   1.213  0.00  0.00    +0.008 A 
ATOM     25  C   UNL     1      -3.311  -1.375   1.230  0.00  0.00    +0.020 A 
ATOM     26  C   UNL     1      -4.007  -1.532   0.045  0.00  0.00    +0.042 A 
ATOM     27  C   UNL     1      -3.407  -1.206  -1.158  0.00  0.00    +0.040 A 
ATOM     28  C   UNL     1      -2.112  -0.718  -1.174  0.00  0.00    +0.047 A 
ATOM     29 CL   UNL     1      -1.361  -0.303  -2.683  0.00  0.00    -0.083 Cl
ATOM     30 CL   UNL     1      -5.634  -2.139   0.067  0.00  0.00    -0.083 Cl
ENDBRANCH  22  23
ENDBRANCH  19  22
ENDBRANCH  18  19
ENDBRANCH   1  18
TORSDOF 5
