REMARK  Name = ZINC52566261
REMARK  10 active torsions:
REMARK  status: ('A' for Active; 'I' for Inactive)
REMARK    1  A    between atoms: C_1  and  C_2
REMARK    2  A    between atoms: C_4  and  C_8
REMARK    3  A    between atoms: C_6  and  C_7
REMARK    4  A    between atoms: C_12  and  C_19
REMARK    5  A    between atoms: C_21  and  O_25
REMARK    6  A    between atoms: O_25  and  C_26
REMARK    7  A    between atoms: C_26  and  C_27
REMARK    8  A    between atoms: C_27  and  C_29
REMARK    9  A    between atoms: C_27  and  N_39
REMARK   10  A    between atoms: C_29  and  C_30
REMARK                            x       y       z     vdW  Elec       q    Type
REMARK                         _______ _______ _______ _____ _____    ______ ____
ROOT
ATOM      1  C   UNL     1       4.974  -4.703  -1.083  0.00  0.00    +0.004 A 
ATOM      2  C   UNL     1       5.888  -5.697  -0.725  0.00  0.00    +0.057 A 
ATOM      3  C   UNL     1       7.244  -5.416  -0.841  0.00  0.00    +0.139 A 
ATOM      4  C   UNL     1       7.639  -4.169  -1.304  0.00  0.00    +0.156 A 
ATOM      5  N   UNL     1       6.749  -3.254  -1.633  0.00  0.00    -0.259 NA
ATOM      6  C   UNL     1       5.454  -3.479  -1.545  0.00  0.00    +0.119 A 
ENDROOT
BRANCH   1  10
ATOM      7  C   UNL     1       0.042  -3.346  -1.550  0.00  0.00    +0.173 C 
ATOM      8  C   UNL     1       1.257  -4.191  -1.244  0.00  0.00    -0.006 A 
ATOM      9  C   UNL     1       2.607  -3.954  -1.343  0.00  0.00    +0.015 A 
ATOM     10  C   UNL     1       3.515  -4.949  -0.979  0.00  0.00    -0.016 A 
ATOM     11  C   UNL     1       3.042  -6.176  -0.516  0.00  0.00    +0.010 A 
ATOM     12  C   UNL     1       1.688  -6.406  -0.419  0.00  0.00    +0.024 A 
ATOM     13  C   UNL     1       0.778  -5.413  -0.783  0.00  0.00    +0.038 A 
ATOM     14  N   UNL     1      -0.617  -5.410  -0.774  0.00  0.00    -0.284 N 
ATOM     15  C   UNL     1      -1.129  -4.243  -1.208  0.00  0.00    +0.232 C 
ATOM     16  O   UNL     1      -2.305  -3.961  -1.306  0.00  0.00    -0.274 OA
ATOM     17  H   UNL     1      -1.157  -6.163  -0.488  0.00  0.00    +0.155 HD
BRANCH   7  21
ATOM     18  C   UNL     1      -0.018   1.503   0.010  0.00  0.00    +0.047 C 
ATOM     19  C   UNL     1       0.002  -0.004   0.002  0.00  0.00    -0.010 A 
ATOM     20  C   UNL     1       0.009  -0.840  -1.138  0.00  0.00    +0.049 A 
ATOM     21  C   UNL     1       0.029  -2.109  -0.691  0.00  0.00    +0.122 A 
ATOM     22  O   UNL     1       0.034  -2.085   0.652  0.00  0.00    -0.463 OA
ATOM     23  C   UNL     1       0.023  -0.811   1.078  0.00  0.00    +0.105 A 
ATOM     24  C   UNL     1       0.030  -0.363   2.516  0.00  0.00    +0.086 C 
ENDBRANCH   7  21
ENDBRANCH   1  10
BRANCH   3  25
ATOM     25  O   UNL     1       8.171  -6.351  -0.504  0.00  0.00    -0.492 OA
BRANCH  25  26
ATOM     26  C   UNL     1       9.544  -5.985  -0.652  0.00  0.00    +0.213 C 
BRANCH  26  27
ATOM     27  C   UNL     1      10.433  -7.157  -0.228  0.00  0.00    -0.033 C 
BRANCH  27  28
ATOM     28  N   UNL     1      10.230  -8.283  -1.148  0.00  0.00    +0.382 N 
ATOM     29  H   UNL     1      10.472  -8.000  -2.086  0.00  0.00    -0.089 HD
ATOM     30  H   UNL     1      10.816  -9.056  -0.868  0.00  0.00    -0.089 HD
ATOM     31  H   UNL     1       9.262  -8.569  -1.122  0.00  0.00    -0.089 HD
ENDBRANCH  27  28
BRANCH  27  32
ATOM     32  C   UNL     1      11.900  -6.724  -0.267  0.00  0.00    +0.020 C 
BRANCH  32  33
ATOM     33  C   UNL     1      12.766  -7.836   0.267  0.00  0.00    -0.043 C 
ATOM     34  C   UNL     1      13.407  -8.785  -0.452  0.00  0.00    -0.001 A 
ATOM     35  C   UNL     1      13.486  -9.056  -1.893  0.00  0.00    +0.010 A 
ATOM     36  C   UNL     1      14.224 -10.104  -2.323  0.00  0.00    +0.001 A 
ATOM     37  C   UNL     1      14.914 -10.936  -1.431  0.00  0.00    +0.002 A 
ATOM     38  C   UNL     1      14.889 -10.751  -0.094  0.00  0.00    +0.026 A 
ATOM     39  C   UNL     1      14.144  -9.678   0.469  0.00  0.00    +0.043 A 
ATOM     40  N   UNL     1      13.966  -9.296   1.711  0.00  0.00    -0.380 N 
ATOM     41  C   UNL     1      13.099  -8.113   1.716  0.00  0.00    +0.144 C 
ATOM     42  H   UNL     1      14.347  -9.723   2.494  0.00  0.00    +0.160 HD
ENDBRANCH  32  33
ENDBRANCH  27  32
ENDBRANCH  26  27
ENDBRANCH  25  26
ENDBRANCH   3  25
TORSDOF 8
