REMARK  Name = ZINC28159512
REMARK  8 active torsions:
REMARK  status: ('A' for Active; 'I' for Inactive)
REMARK    1  A    between atoms: C_1  and  C_2
REMARK    2  A    between atoms: C_5  and  C_8
REMARK    3  A    between atoms: C_11  and  C_30
REMARK    4  A    between atoms: C_18  and  C_21
REMARK    5  A    between atoms: C_21  and  C_22
REMARK    6  A    between atoms: N_24  and  C_25
REMARK    7  A    between atoms: C_25  and  C_26
REMARK    8  A    between atoms: C_26  and  C_27
REMARK                            x       y       z     vdW  Elec       q    Type
REMARK                         _______ _______ _______ _____ _____    ______ ____
ROOT
ATOM      1  C   UNL     1       7.484  10.858  -3.485  0.00  0.00    +0.136 C 
ATOM      2  C   UNL     1       8.177  10.816  -4.862  0.00  0.00    +0.087 C 
ATOM      3  C   UNL     1       8.228   9.344  -5.200  0.00  0.00    +0.069 C 
ATOM      4  N   UNL     1       7.696   8.664  -4.243  0.00  0.00    -0.182 NA
ATOM      5  N   UNL     1       7.220   9.441  -3.189  0.00  0.00    -0.195 N 
ATOM      6  C   UNL     1       6.613   8.965  -2.063  0.00  0.00    +0.170 C 
ATOM      7  N   UNL     1       6.147   9.654  -1.030  0.00  0.00    -0.157 NA
ATOM      8  C   UNL     1       5.576   9.119   0.016  0.00  0.00    +0.252 C 
ATOM      9  O   UNL     1       5.161   9.786   0.944  0.00  0.00    -0.272 OA
ATOM     10  C   UNL     1       5.465   7.600  -0.009  0.00  0.00    +0.150 C 
ATOM     11  S   UNL     1       6.258   7.266  -1.634  0.00  0.00    -0.078 S 
ENDROOT
BRANCH   3  12
ATOM     12  C   UNL     1       8.805   8.773  -6.430  0.00  0.00    +0.002 A 
ATOM     13  C   UNL     1       9.362   9.613  -7.398  0.00  0.00    +0.013 A 
ATOM     14  C   UNL     1       9.901   9.077  -8.548  0.00  0.00    +0.050 A 
ATOM     15  C   UNL     1       9.892   7.704  -8.750  0.00  0.00    +0.166 A 
ATOM     16  C   UNL     1       9.337   6.860  -7.788  0.00  0.00    +0.167 A 
ATOM     17  C   UNL     1       8.800   7.390  -6.630  0.00  0.00    +0.059 A 
ATOM     18  O   UNL     1       9.452   5.570  -8.222  0.00  0.00    -0.453 OA
ATOM     19  C   UNL     1      10.446   5.602  -9.263  0.00  0.00    +0.466 C 
ATOM     20  O   UNL     1      10.354   6.941  -9.784  0.00  0.00    -0.453 OA
ENDBRANCH   3  12
BRANCH   1  25
ATOM     21  C   UNL     1       2.537  13.829  -3.787  0.00  0.00    +0.044 C 
ATOM     22  C   UNL     1       3.827  13.055  -3.708  0.00  0.00    -0.050 A 
ATOM     23  C   UNL     1       4.942  13.626  -3.124  0.00  0.00    +0.004 A 
ATOM     24  C   UNL     1       6.126  12.915  -3.052  0.00  0.00    +0.006 A 
ATOM     25  C   UNL     1       6.194  11.633  -3.564  0.00  0.00    -0.025 A 
ATOM     26  C   UNL     1       5.080  11.063  -4.152  0.00  0.00    +0.006 A 
ATOM     27  C   UNL     1       3.896  11.772  -4.220  0.00  0.00    +0.004 A 
ENDBRANCH   1  25
BRANCH  10  28
ATOM     28  C   UNL     1       4.004   7.146   0.002  0.00  0.00    +0.119 C 
BRANCH  28  29
ATOM     29  C   UNL     1       3.945   5.640  -0.005  0.00  0.00    +0.215 C 
ATOM     30  O   UNL     1       4.971   4.993  -0.019  0.00  0.00    -0.276 OA
ATOM     31  N   UNL     1       2.753   5.012   0.003  0.00  0.00    -0.315 N 
ATOM     32  H   UNL     1       1.822   5.598   0.015  0.00  0.00    +0.149 HD
BRANCH  31  33
ATOM     33  C   UNL     1       2.696   3.548  -0.005  0.00  0.00    +0.115 C 
BRANCH  33  34
ATOM     34  C   UNL     1       1.235   3.094   0.007  0.00  0.00    +0.144 C 
BRANCH  34  35
ATOM     35  C   UNL     1       1.177   1.588  -0.001  0.00  0.00    +0.357 C 
ATOM     36  O   UNL     1       2.199   0.944  -0.014  0.00  0.00    -0.246 OA
ATOM     37  O   UNL     1      -0.011   0.963   0.007  0.00  0.00    -0.246 OA
ENDBRANCH  34  35
ENDBRANCH  33  34
ENDBRANCH  31  33
ENDBRANCH  28  29
ENDBRANCH  10  28
TORSDOF 7
