REMARK  Name = ZINC48819589
REMARK  7 active torsions:
REMARK  status: ('A' for Active; 'I' for Inactive)
REMARK    1  A    between atoms: C_1  and  C_2
REMARK    2  A    between atoms: C_2  and  C_4
REMARK    3  A    between atoms: C_2  and  N_12
REMARK    4  A    between atoms: C_7  and  O_11
REMARK    5  A    between atoms: C_9  and  O_10
REMARK    6  A    between atoms: N_12  and  C_13
REMARK    7  A    between atoms: C_13  and  C_14
REMARK                            x       y       z     vdW  Elec       q    Type
REMARK                         _______ _______ _______ _____ _____    ______ ____
ROOT
ATOM      1  C   UNL     1      -0.019   1.526   0.010  0.00  0.00    -0.009 C 
ATOM      2  C   UNL     1       0.002  -0.004   0.002  0.00  0.00    -0.040 C 
ENDROOT
BRANCH   2   3
ATOM      3  C   UNL     1       0.731  -0.503   1.223  0.00  0.00    -0.020 A 
ATOM      4  C   UNL     1       2.077  -0.808   1.147  0.00  0.00    +0.009 A 
ATOM      5  C   UNL     1       2.748  -1.266   2.265  0.00  0.00    +0.046 A 
ATOM      6  C   UNL     1       2.071  -1.421   3.466  0.00  0.00    +0.120 A 
ATOM      7  C   UNL     1       0.721  -1.116   3.545  0.00  0.00    +0.091 A 
ATOM      8  C   UNL     1       0.051  -0.651   2.424  0.00  0.00    +0.122 A 
BRANCH   8   9
ATOM      9  O   UNL     1      -1.271  -0.346   2.499  0.00  0.00    -0.506 OA
ATOM     10  H   UNL     1      -1.858  -1.089   2.303  0.00  0.00    +0.292 HD
ENDBRANCH   8   9
BRANCH   6  11
ATOM     11  O   UNL     1       2.732  -1.872   4.565  0.00  0.00    -0.507 OA
ATOM     12  H   UNL     1       3.124  -1.171   5.104  0.00  0.00    +0.292 HD
ENDBRANCH   6  11
ENDBRANCH   2   3
BRANCH   2  13
ATOM     13  N   UNL     1       0.690  -0.478  -1.207  0.00  0.00    +0.386 N 
ATOM     14  H   UNL     1       1.608  -0.063  -1.256  0.00  0.00    -0.085 HD
ATOM     15  H   UNL     1       0.776  -1.482  -1.172  0.00  0.00    -0.085 HD
BRANCH  13  16
ATOM     16  C   UNL     1      -0.086  -0.093  -2.394  0.00  0.00    -0.045 C 
BRANCH  16  17
ATOM     17  C   UNL     1       0.620  -0.579  -3.634  0.00  0.00    -0.050 A 
ATOM     18  C   UNL     1       1.393   0.294  -4.376  0.00  0.00    +0.003 A 
ATOM     19  C   UNL     1       2.040  -0.152  -5.513  0.00  0.00    +0.000 A 
ATOM     20  C   UNL     1       1.915  -1.471  -5.908  0.00  0.00    +0.001 A 
ATOM     21  C   UNL     1       1.143  -2.345  -5.166  0.00  0.00    +0.015 A 
ATOM     22  C   UNL     1       0.499  -1.900  -4.025  0.00  0.00    +0.019 A 
ATOM     23 BR   UNL     1      -0.552  -3.096  -3.006  0.00  0.00    -0.050 Br
ENDBRANCH  16  17
ENDBRANCH  13  16
ENDBRANCH   2  13
TORSDOF 6
