REMARK  Name = ZINC13682351
REMARK  4 active torsions:
REMARK  status: ('A' for Active; 'I' for Inactive)
REMARK    1  A    between atoms: C_1  and  C_2
REMARK    2  A    between atoms: C_4  and  C_32
REMARK    3  A    between atoms: C_11  and  C_13
REMARK    4  A    between atoms: C_19  and  C_25
REMARK                            x       y       z     vdW  Elec       q    Type
REMARK                         _______ _______ _______ _____ _____    ______ ____
ROOT
ATOM      1  C   UNL     1       0.031   1.504   0.012  0.00  0.00    +0.066 C 
ATOM      2  C   UNL     1       0.082  -0.002   0.004  0.00  0.00    +0.044 A 
ATOM      3  C   UNL     1       0.151  -0.696  -1.194  0.00  0.00    +0.046 A 
ATOM      4  C   UNL     1       0.195  -2.081  -1.156  0.00  0.00    +0.044 A 
ATOM      5  N   UNL     1       0.170  -2.694   0.015  0.00  0.00    -0.216 NA
ATOM      6  C   UNL     1       0.104  -2.001   1.141  0.00  0.00    +0.253 A 
ATOM      7  N   UNL     1       0.066  -0.678   1.140  0.00  0.00    -0.216 NA
ATOM      8  N   UNL     1       0.079  -2.681   2.357  0.00  0.00    -0.183 N 
ATOM      9  C   UNL     1       0.008  -2.116   3.583  0.00  0.00    +0.136 A 
ATOM     10  C   UNL     1      -0.006  -3.125   4.506  0.00  0.00    +0.028 A 
ATOM     11  C   UNL     1       0.072  -4.339   3.819  0.00  0.00    +0.099 A 
ATOM     12  N   UNL     1       0.118  -4.075   2.526  0.00  0.00    -0.162 NA
ATOM     13  C   UNL     1      -0.103  -2.863   5.988  0.00  0.00    +0.066 C 
ATOM     14  C   UNL     1       0.525  -1.496   6.276  0.00  0.00    +0.109 C 
ATOM     15  C   UNL     1       0.088  -0.473   5.266  0.00  0.00    +0.219 C 
ATOM     16  O   UNL     1      -0.137   0.660   5.636  0.00  0.00    -0.275 OA
ATOM     17  N   UNL     1      -0.061  -0.776   3.959  0.00  0.00    -0.270 N 
ATOM     18  C   UNL     1       0.270  -2.877  -2.433  0.00  0.00    +0.066 C 
ATOM     19  H   UNL     1      -0.211  -0.080   3.300  0.00  0.00    +0.156 HD
ENDROOT
BRANCH  13  20
ATOM     20  C   UNL     1      -1.550  -2.857   6.409  0.00  0.00    -0.004 A 
ATOM     21  C   UNL     1      -2.429  -1.949   5.850  0.00  0.00    +0.007 A 
ATOM     22  C   UNL     1      -3.756  -1.943   6.237  0.00  0.00    +0.000 A 
ATOM     23  C   UNL     1      -4.206  -2.846   7.182  0.00  0.00    +0.003 A 
ATOM     24  C   UNL     1      -3.329  -3.755   7.742  0.00  0.00    +0.038 A 
ATOM     25  C   UNL     1      -2.000  -3.765   7.352  0.00  0.00    +0.127 A 
ATOM     26  F   UNL     1      -1.143  -4.657   7.895  0.00  0.00    -0.205 F 
ENDBRANCH  13  20
BRANCH  11  27
ATOM     27  C   UNL     1       0.095  -5.690   4.434  0.00  0.00    +0.002 A 
ATOM     28  C   UNL     1      -0.654  -6.724   3.876  0.00  0.00    +0.010 A 
ATOM     29  C   UNL     1      -0.630  -7.978   4.452  0.00  0.00    +0.001 A 
ATOM     30  C   UNL     1       0.136  -8.209   5.581  0.00  0.00    +0.000 A 
ATOM     31  C   UNL     1       0.881  -7.186   6.138  0.00  0.00    +0.001 A 
ATOM     32  C   UNL     1       0.869  -5.929   5.567  0.00  0.00    +0.010 A 
ENDBRANCH  11  27
TORSDOF 2
