REMARK  Name = ZINC46561426
REMARK  8 active torsions:
REMARK  status: ('A' for Active; 'I' for Inactive)
REMARK    1  A    between atoms: C_1  and  C_2
REMARK    2  A    between atoms: C_2  and  O_3
REMARK    3  A    between atoms: O_3  and  C_4
REMARK    4  A    between atoms: C_4  and  C_6
REMARK    5  A    between atoms: C_7  and  C_19
REMARK    6  A    between atoms: C_12  and  C_14
REMARK    7  A    between atoms: C_19  and  N_20
REMARK    8  A    between atoms: C_28  and  C_30
REMARK                            x       y       z     vdW  Elec       q    Type
REMARK                         _______ _______ _______ _____ _____    ______ ____
ROOT
ATOM      1  C   UNL     1      -3.423  -3.216  -1.132  0.00  0.00    +0.082 C 
ATOM      2  C   UNL     1      -3.039  -3.805   0.021  0.00  0.00    +0.038 C 
ATOM      3  N   UNL     1      -3.648  -3.500   1.204  0.00  0.00    -0.271 N 
ATOM      4  C   UNL     1      -4.649  -2.618   1.319  0.00  0.00    +0.304 C 
ATOM      5  O   UNL     1      -5.129  -2.412   2.416  0.00  0.00    -0.252 OA
ATOM      6  N   UNL     1      -5.141  -1.950   0.257  0.00  0.00    -0.285 N 
ATOM      7  C   UNL     1      -4.547  -2.203  -1.067  0.00  0.00    +0.179 C 
ATOM      8  H   UNL     1      -3.339  -3.948   2.007  0.00  0.00    +0.156 HD
ATOM      9  H   UNL     1      -5.867  -1.315   0.362  0.00  0.00    +0.151 HD
ENDROOT
BRANCH   7  10
ATOM     10  C   UNL     1      -4.026  -0.895  -1.605  0.00  0.00    +0.130 A 
ATOM     11  C   UNL     1      -4.240  -0.413  -2.843  0.00  0.00    +0.047 A 
ATOM     12  C   UNL     1      -3.573   0.831  -2.918  0.00  0.00    +0.041 A 
ATOM     13  C   UNL     1      -2.992   1.035  -1.722  0.00  0.00    +0.195 A 
ATOM     14  O   UNL     1      -3.274  -0.011  -0.929  0.00  0.00    -0.466 OA
ENDBRANCH   7  10
BRANCH   1  15
ATOM     15  C   UNL     1      -2.792  -3.531  -2.359  0.00  0.00    +0.339 C 
ATOM     16  O   UNL     1      -1.808  -4.246  -2.371  0.00  0.00    -0.245 OA
BRANCH  15  17
ATOM     17  O   UNL     1      -3.282  -3.038  -3.515  0.00  0.00    -0.462 OA
BRANCH  17  19
ATOM     18  C   UNL     1      -3.291  -2.748  -5.915  0.00  0.00    +0.048 C 
ATOM     19  C   UNL     1      -2.595  -3.396  -4.716  0.00  0.00    +0.229 C 
ENDBRANCH  17  19
ENDBRANCH  15  17
ENDBRANCH   1  15
BRANCH   2  20
ATOM     20  C   UNL     1      -1.921  -4.815   0.002  0.00  0.00    +0.136 C 
BRANCH  20  21
ATOM     21  N   UNL     1      -2.038  -5.698   1.170  0.00  0.00    -0.286 NA
ATOM     22  C   UNL     1      -3.201  -6.589   1.042  0.00  0.00    +0.091 C 
ATOM     23  C   UNL     1      -3.524  -7.183   2.423  0.00  0.00    +0.058 C 
ATOM     24  C   UNL     1      -2.242  -7.659   3.025  0.00  0.00    -0.004 A 
ATOM     25  C   UNL     1      -0.983  -7.359   2.599  0.00  0.00    -0.016 A 
ATOM     26  C   UNL     1       0.068  -7.923   3.319  0.00  0.00    +0.013 A 
ATOM     27  C   UNL     1      -0.190  -8.720   4.381  0.00  0.00    +0.046 A 
ATOM     28  S   UNL     1      -1.977  -8.716   4.420  0.00  0.00    -0.101 S 
ATOM     29  C   UNL     1      -0.793  -6.444   1.393  0.00  0.00    +0.118 C 
BRANCH  29  30
ATOM     30  C   UNL     1       0.333  -5.480   1.661  0.00  0.00    -0.026 A 
ATOM     31  C   UNL     1       0.117  -4.367   2.452  0.00  0.00    +0.005 A 
ATOM     32  C   UNL     1       1.150  -3.482   2.697  0.00  0.00    +0.000 A 
ATOM     33  C   UNL     1       2.400  -3.711   2.152  0.00  0.00    +0.000 A 
ATOM     34  C   UNL     1       2.616  -4.824   1.362  0.00  0.00    +0.000 A 
ATOM     35  C   UNL     1       1.584  -5.711   1.120  0.00  0.00    +0.005 A 
ENDBRANCH  29  30
ENDBRANCH  20  21
ENDBRANCH   2  20
TORSDOF 7
