REMARK  Name = ZINC21971100
REMARK  6 active torsions:
REMARK  status: ('A' for Active; 'I' for Inactive)
REMARK    1  A    between atoms: C_1  and  C_2
REMARK    2  A    between atoms: C_6  and  C_8
REMARK    3  A    between atoms: N_13  and  C_14
REMARK    4  A    between atoms: C_14  and  C_15
REMARK    5  A    between atoms: N_17  and  N_18
REMARK    6  A    between atoms: C_19  and  C_21
REMARK                            x       y       z     vdW  Elec       q    Type
REMARK                         _______ _______ _______ _____ _____    ______ ____
ROOT
ATOM      1  C   UNL     1      -7.432   0.706   0.072  0.00  0.00    +0.249 C 
ATOM      2  O   UNL     1      -6.963   1.803   0.289  0.00  0.00    -0.272 OA
ATOM      3  N   UNL     1      -6.636  -0.381   0.080  0.00  0.00    -0.233 N 
ATOM      4  H   UNL     1      -7.061  -1.376  -0.117  0.00  0.00    +0.173 HD
ENDROOT
BRANCH   3   5
ATOM      5  N   UNL     1      -5.266  -0.244   0.340  0.00  0.00    -0.230 N 
ATOM      6  C   UNL     1      -4.469  -1.331   0.349  0.00  0.00    +0.267 C 
ATOM      7  O   UNL     1      -4.940  -2.432   0.131  0.00  0.00    -0.268 OA
ATOM      8  H   UNL     1      -4.840   0.751   0.537  0.00  0.00    +0.173 HD
BRANCH   6   9
ATOM      9  C   UNL     1      -3.036  -1.188   0.621  0.00  0.00    +0.076 A 
ATOM     10  C   UNL     1      -2.056  -2.162   0.676  0.00  0.00    +0.024 A 
ATOM     11  C   UNL     1      -0.753  -1.767   0.962  0.00  0.00    -0.036 A 
ATOM     12  C   UNL     1      -0.551  -0.442   1.136  0.00  0.00    -0.006 A 
ATOM     13  S   UNL     1      -2.097   0.292   0.968  0.00  0.00    -0.088 S 
ATOM     14  C   UNL     1       0.774   0.237   1.404  0.00  0.00    +0.043 C 
ATOM     15  C   UNL     1       1.234  -0.200   2.805  0.00  0.00    +0.005 C 
ATOM     16  C   UNL     1       1.841  -1.582   2.753  0.00  0.00    +0.001 C 
ATOM     17  C   UNL     1       0.885  -2.728   2.538  0.00  0.00    +0.005 C 
ATOM     18  C   UNL     1       0.381  -2.789   1.095  0.00  0.00    +0.036 C 
ENDBRANCH   6   9
ENDBRANCH   3   5
BRANCH   1  19
ATOM     19  C   UNL     1      -8.905   0.558  -0.208  0.00  0.00    +0.223 C 
BRANCH  19  25
ATOM     20  C   UNL     1      -9.745   2.716  -1.237  0.00  0.00    +0.165 A 
ATOM     21  N   UNL     1     -10.343   3.795  -0.815  0.00  0.00    -0.128 NA
ATOM     22  N   UNL     1     -10.545   3.667   0.566  0.00  0.00    -0.121 NA
ATOM     23  C   UNL     1     -10.047   2.470   0.940  0.00  0.00    +0.203 A 
ATOM     24  S   UNL     1     -10.048   1.826   2.526  0.00  0.00    -0.009 SA
ATOM     25  N   UNL     1      -9.546   1.875  -0.161  0.00  0.00    -0.292 N 
BRANCH  20  31
ATOM     26  C   UNL     1     -10.230   3.614  -6.123  0.00  0.00    +0.044 C 
ATOM     27  C   UNL     1      -9.578   2.869  -4.987  0.00  0.00    -0.050 A 
ATOM     28  C   UNL     1      -8.603   1.923  -5.252  0.00  0.00    +0.003 A 
ATOM     29  C   UNL     1      -7.998   1.235  -4.215  0.00  0.00    +0.001 A 
ATOM     30  C   UNL     1      -8.361   1.492  -2.909  0.00  0.00    +0.011 A 
ATOM     31  C   UNL     1      -9.347   2.440  -2.635  0.00  0.00    +0.020 A 
ATOM     32  C   UNL     1      -9.953   3.131  -3.686  0.00  0.00    +0.015 A 
ENDBRANCH  20  31
ENDBRANCH  19  25
ENDBRANCH   1  19
TORSDOF 5
