REMARK  Name = ZINC43310686
REMARK  6 active torsions:
REMARK  status: ('A' for Active; 'I' for Inactive)
REMARK    1  A    between atoms: C_1  and  N_2
REMARK    2  A    between atoms: N_2  and  C_3
REMARK    3  A    between atoms: C_3  and  C_4
REMARK    4  A    between atoms: N_17  and  C_18
REMARK    5  A    between atoms: C_18  and  C_19
REMARK    6  A    between atoms: C_19  and  N_20
REMARK                            x       y       z     vdW  Elec       q    Type
REMARK                         _______ _______ _______ _____ _____    ______ ____
ROOT
ATOM      1  C   UNL     1      -0.018   1.461   0.010  0.00  0.00    +0.133 C 
ATOM      2  N   UNL     1       0.002  -0.004   0.002  0.00  0.00    -0.285 N 
ATOM      3  C   UNL     1       0.000  -0.672  -1.169  0.00  0.00    +0.302 C 
ATOM      4  O   UNL     1       0.017  -1.887  -1.175  0.00  0.00    -0.253 OA
ATOM      5  N   UNL     1      -0.020   0.009  -2.332  0.00  0.00    -0.298 N 
ATOM      6  H   UNL     1      -0.033   0.978  -2.327  0.00  0.00    +0.150 HD
ENDROOT
BRANCH   2   7
ATOM      7  C   UNL     1       0.024  -0.743   1.267  0.00  0.00    +0.157 C 
BRANCH   7   8
ATOM      8  C   UNL     1      -1.411  -1.020   1.720  0.00  0.00    +0.228 C 
ATOM      9  C   UNL     1      -1.396  -1.697   3.098  0.00  0.00    +0.275 C 
ATOM     10  O   UNL     1      -2.750  -1.954   3.486  0.00  0.00    -0.485 OA
ATOM     11  C   UNL     1      -3.560  -2.511   2.544  0.00  0.00    +0.162 A 
ATOM     12  C   UNL     1      -4.746  -3.113   2.937  0.00  0.00    +0.049 A 
ATOM     13  C   UNL     1      -5.581  -3.680   1.993  0.00  0.00    +0.004 A 
ATOM     14  C   UNL     1      -5.236  -3.648   0.654  0.00  0.00    +0.004 A 
ATOM     15  C   UNL     1      -4.055  -3.051   0.256  0.00  0.00    +0.049 A 
ATOM     16  C   UNL     1      -3.212  -2.482   1.199  0.00  0.00    +0.163 A 
ATOM     17  O   UNL     1      -2.048  -1.905   0.792  0.00  0.00    -0.480 OA
ENDBRANCH   7   8
ENDBRANCH   2   7
BRANCH   5  18
ATOM     18  C   UNL     1      -0.022  -0.717  -3.605  0.00  0.00    +0.127 C 
BRANCH  18  19
ATOM     19  C   UNL     1      -0.047   0.283  -4.762  0.00  0.00    +0.141 C 
BRANCH  19  20
ATOM     20  N   UNL     1      -0.049  -0.442  -6.035  0.00  0.00    -0.337 N 
ATOM     21  C   UNL     1       1.051  -0.835  -6.748  0.00  0.00    +0.104 A 
ATOM     22  C   UNL     1       0.598  -1.468  -7.847  0.00  0.00    +0.101 A 
ATOM     23  N   UNL     1      -0.742  -1.462  -7.806  0.00  0.00    -0.352 N 
ATOM     24  C   UNL     1      -1.137  -0.854  -6.721  0.00  0.00    +0.173 A 
ATOM     25  H   UNL     1      -1.326  -1.852  -8.475  0.00  0.00    +0.166 HD
ENDBRANCH  19  20
ENDBRANCH  18  19
ENDBRANCH   5  18
TORSDOF 5
