REMARK  Name = ZINC66442860
REMARK  7 active torsions:
REMARK  status: ('A' for Active; 'I' for Inactive)
REMARK    1  A    between atoms: C_1  and  C_2
REMARK    2  A    between atoms: C_2  and  C_4
REMARK    3  A    between atoms: C_2  and  N_14
REMARK    4  A    between atoms: N_6  and  C_7
REMARK    5  A    between atoms: C_7  and  C_8
REMARK    6  A    between atoms: C_8  and  C_13
REMARK    7  A    between atoms: C_15  and  C_17
REMARK                            x       y       z     vdW  Elec       q    Type
REMARK                         _______ _______ _______ _____ _____    ______ ____
ROOT
ATOM      1  C   UNL     1      -0.019   1.526   0.010  0.00  0.00    +0.038 C 
ATOM      2  C   UNL     1       0.002  -0.004   0.002  0.00  0.00    +0.156 C 
ENDROOT
BRANCH   2   3
ATOM      3  C   UNL     1       0.707  -0.490  -1.238  0.00  0.00    +0.233 C 
ATOM      4  O   UNL     1       0.120  -1.191  -2.034  0.00  0.00    -0.274 OA
ATOM      5  N   UNL     1       1.991  -0.146  -1.462  0.00  0.00    -0.313 N 
ATOM      6  H   UNL     1       2.461   0.415  -0.825  0.00  0.00    +0.149 HD
BRANCH   5   7
ATOM      7  C   UNL     1       2.677  -0.618  -2.667  0.00  0.00    +0.110 C 
BRANCH   7   8
ATOM      8  C   UNL     1       4.112  -0.089  -2.678  0.00  0.00    -0.017 C 
ATOM      9  C   UNL     1       4.106   1.453  -2.741  0.00  0.00    +0.008 C 
ATOM     10  C   UNL     1       5.309   1.800  -3.653  0.00  0.00    +0.001 C 
ATOM     11  C   UNL     1       5.259   0.684  -4.725  0.00  0.00    +0.001 C 
ATOM     12  C   UNL     1       4.845  -0.578  -3.939  0.00  0.00    +0.008 C 
ATOM     13  C   UNL     1       4.854  -0.560  -1.425  0.00  0.00    +0.013 C 
ENDBRANCH   7   8
ENDBRANCH   5   7
ENDBRANCH   2   3
BRANCH   2  14
ATOM     14  N   UNL     1      -1.372  -0.511   0.012  0.00  0.00    -0.300 N 
ATOM     15  C   UNL     1      -2.029  -0.655   1.181  0.00  0.00    +0.251 C 
ATOM     16  O   UNL     1      -1.480  -0.364   2.227  0.00  0.00    -0.270 OA
ATOM     17  H   UNL     1      -1.810  -0.743  -0.822  0.00  0.00    +0.150 HD
BRANCH  15  18
ATOM     18  C   UNL     1      -3.403  -1.162   1.191  0.00  0.00    +0.075 A 
ATOM     19  C   UNL     1      -4.247  -1.377   2.270  0.00  0.00    +0.022 A 
ATOM     20  C   UNL     1      -5.494  -1.866   1.965  0.00  0.00    +0.024 A 
ATOM     21  C   UNL     1      -5.811  -2.099   0.666  0.00  0.00    +0.056 A 
ATOM     22  S   UNL     1      -4.429  -1.656  -0.181  0.00  0.00    -0.077 S 
ATOM     23 BR   UNL     1      -7.438  -2.764  -0.033  0.00  0.00    -0.043 Br
ENDBRANCH  15  18
ENDBRANCH   2  14
TORSDOF 5
