REMARK  Name = ZINC64066796
REMARK  4 active torsions:
REMARK  status: ('A' for Active; 'I' for Inactive)
REMARK    1  A    between atoms: C_1  and  C_2
REMARK    2  A    between atoms: C_10  and  C_12
REMARK    3  A    between atoms: C_18  and  N_21
REMARK    4  A    between atoms: N_21  and  C_22
REMARK                            x       y       z     vdW  Elec       q    Type
REMARK                         _______ _______ _______ _____ _____    ______ ____
ROOT
ATOM      1  C   UNL     1       1.438  -0.667   1.907  0.00  0.00    +0.242 C 
ATOM      2  O   UNL     1       2.407  -1.350   1.651  0.00  0.00    -0.273 OA
ATOM      3  N   UNL     1       1.531   0.319   2.821  0.00  0.00    -0.298 N 
ATOM      4  C   UNL     1       0.341   1.080   3.225  0.00  0.00    +0.108 C 
ATOM      5  C   UNL     1       0.628   2.574   3.048  0.00  0.00    +0.021 C 
ATOM      6  C   UNL     1       1.899   2.940   3.818  0.00  0.00    +0.025 C 
ATOM      7  C   UNL     1       3.083   2.151   3.255  0.00  0.00    +0.088 C 
ATOM      8  C   UNL     1       2.823   0.648   3.439  0.00  0.00    +0.130 C 
ENDROOT
BRANCH   1  18
ATOM      9  C   UNL     1       0.049   1.447  -0.100  0.00  0.00    +0.042 C 
ATOM     10  C   UNL     1       0.033  -0.058  -0.039  0.00  0.00    -0.033 C 
ATOM     11  C   UNL     1      -0.066  -0.913  -1.082  0.00  0.00    +0.001 A 
ATOM     12  C   UNL     1      -0.185  -0.705  -2.530  0.00  0.00    +0.030 A 
ATOM     13  C   UNL     1      -0.269  -1.784  -3.343  0.00  0.00    +0.042 A 
ATOM     14  C   UNL     1      -0.245  -3.092  -2.837  0.00  0.00    +0.022 A 
ATOM     15  C   UNL     1      -0.139  -3.362  -1.519  0.00  0.00    +0.027 A 
ATOM     16  C   UNL     1      -0.043  -2.304  -0.574  0.00  0.00    +0.043 A 
ATOM     17  N   UNL     1       0.066  -2.308   0.733  0.00  0.00    -0.370 N 
ATOM     18  C   UNL     1       0.131  -0.919   1.201  0.00  0.00    +0.193 C 
ATOM     19 CL   UNL     1      -0.409  -1.542  -5.056  0.00  0.00    -0.084 Cl
ATOM     20  H   UNL     1       0.101  -3.098   1.295  0.00  0.00    +0.161 HD
ENDBRANCH   1  18
BRANCH   7  21
ATOM     21  N   UNL     1       4.305   2.526   3.972  0.00  0.00    -0.339 N 
ATOM     22  H   UNL     1       4.607   1.995   4.725  0.00  0.00    +0.146 HD
BRANCH  21  23
ATOM     23  C   UNL     1       5.035   3.649   3.569  0.00  0.00    +0.031 A 
ATOM     24  C   UNL     1       4.600   4.412   2.494  0.00  0.00    +0.027 A 
ATOM     25  C   UNL     1       5.322   5.520   2.095  0.00  0.00    +0.051 A 
ATOM     26  C   UNL     1       6.482   5.875   2.767  0.00  0.00    +0.162 A 
ATOM     27  C   UNL     1       6.919   5.114   3.845  0.00  0.00    +0.164 A 
ATOM     28  C   UNL     1       6.193   4.004   4.247  0.00  0.00    +0.072 A 
ATOM     29  O   UNL     1       8.051   5.452   4.521  0.00  0.00    -0.485 OA
ATOM     30  C   UNL     1       8.950   6.352   3.865  0.00  0.00    +0.270 C 
ATOM     31  C   UNL     1       8.130   7.511   3.283  0.00  0.00    +0.270 C 
ATOM     32  O   UNL     1       7.182   6.969   2.357  0.00  0.00    -0.485 OA
ENDBRANCH  21  23
ENDBRANCH   7  21
TORSDOF 3
