REMARK  Name = ZINC13640409
REMARK  5 active torsions:
REMARK  status: ('A' for Active; 'I' for Inactive)
REMARK    1  A    between atoms: C_1  and  C_2
REMARK    2  A    between atoms: C_8  and  C_10
REMARK    3  A    between atoms: C_23  and  C_26
REMARK    4  A    between atoms: C_29  and  O_33
REMARK    5  A    between atoms: C_31  and  O_32
REMARK                            x       y       z     vdW  Elec       q    Type
REMARK                         _______ _______ _______ _____ _____    ______ ____
ROOT
ATOM      1  C   UNL     1      -2.681   0.427  -0.034  0.00  0.00    +0.037 A 
ATOM      2  C   UNL     1      -2.417  -0.943  -0.134  0.00  0.00    +0.015 A 
ATOM      3  C   UNL     1      -1.114  -1.382  -0.162  0.00  0.00    +0.024 A 
ATOM      4  C   UNL     1      -0.065  -0.469  -0.092  0.00  0.00    +0.031 A 
ATOM      5  C   UNL     1      -0.316   0.894   0.006  0.00  0.00    -0.019 A 
ATOM      6  C   UNL     1      -1.626   1.337   0.030  0.00  0.00    +0.019 A 
ATOM      7  C   UNL     1       0.783   1.907   0.082  0.00  0.00    +0.049 C 
ATOM      8  C   UNL     1       0.942   2.643  -1.227  0.00  0.00    -0.023 C 
ATOM      9  C   UNL     1       2.209   2.893  -1.456  0.00  0.00    -0.030 C 
ATOM     10  C   UNL     1       3.068   2.361  -0.326  0.00  0.00    +0.033 C 
ATOM     11  C   UNL     1       2.166   1.275   0.332  0.00  0.00    +0.029 C 
ATOM     12  C   UNL     1       2.313  -0.003  -0.499  0.00  0.00    +0.108 C 
ATOM     13  N   UNL     1       1.247  -0.938  -0.126  0.00  0.00    -0.336 N 
ATOM     14  H   UNL     1       1.450  -1.861   0.092  0.00  0.00    +0.147 HD
ENDROOT
BRANCH   1  22
ATOM     15  C   UNL     1      -7.311  -0.471   4.162  0.00  0.00    +0.007 C 
ATOM     16  C   UNL     1      -6.733  -0.586   2.750  0.00  0.00    -0.011 C 
ATOM     17  C   UNL     1      -6.984   0.718   1.989  0.00  0.00    +0.022 C 
ATOM     18  C   UNL     1      -6.435   0.587   0.565  0.00  0.00    +0.108 C 
ATOM     19  N   UNL     1      -5.021   0.193   0.638  0.00  0.00    -0.298 N 
ATOM     20  C   UNL     1      -4.659  -0.999   1.416  0.00  0.00    +0.108 C 
ATOM     21  C   UNL     1      -5.228  -0.848   2.835  0.00  0.00    +0.022 C 
ATOM     22  C   UNL     1      -4.075   0.909  -0.002  0.00  0.00    +0.247 C 
ATOM     23  O   UNL     1      -4.370   1.952  -0.553  0.00  0.00    -0.270 OA
ENDBRANCH   1  22
BRANCH  12  24
ATOM     24  C   UNL     1       2.201   0.331  -1.964  0.00  0.00    +0.015 A 
ATOM     25  C   UNL     1       0.964   0.332  -2.579  0.00  0.00    +0.012 A 
ATOM     26  C   UNL     1       0.858   0.638  -3.922  0.00  0.00    +0.046 A 
ATOM     27  C   UNL     1       1.995   0.947  -4.657  0.00  0.00    +0.120 A 
ATOM     28  C   UNL     1       3.237   0.947  -4.042  0.00  0.00    +0.091 A 
ATOM     29  C   UNL     1       3.340   0.644  -2.692  0.00  0.00    +0.125 A 
BRANCH  29  30
ATOM     30  O   UNL     1       4.556   0.648  -2.085  0.00  0.00    -0.506 OA
ATOM     31  H   UNL     1       5.012  -0.204  -2.112  0.00  0.00    +0.292 HD
ENDBRANCH  29  30
BRANCH  27  32
ATOM     32  O   UNL     1       1.890   1.248  -5.978  0.00  0.00    -0.507 OA
ATOM     33  H   UNL     1       1.759   2.189  -6.157  0.00  0.00    +0.292 HD
ENDBRANCH  27  32
ENDBRANCH  12  24
TORSDOF 4
