REMARK  Name = ZINC52341354
REMARK  8 active torsions:
REMARK  status: ('A' for Active; 'I' for Inactive)
REMARK    1  A    between atoms: C_1  and  C_2
REMARK    2  A    between atoms: C_2  and  C_4
REMARK    3  A    between atoms: C_2  and  N_10
REMARK    4  A    between atoms: N_10  and  S_11
REMARK    5  A    between atoms: S_11  and  C_14
REMARK    6  A    between atoms: C_14  and  C_15
REMARK    7  A    between atoms: C_20  and  C_21
REMARK    8  A    between atoms: C_21  and  N_22
REMARK                            x       y       z     vdW  Elec       q    Type
REMARK                         _______ _______ _______ _____ _____    ______ ____
ROOT
ATOM      1  S   UNL     1      -2.092  -0.923   1.446  0.00  0.00    +0.034 S 
ATOM      2  O   UNL     1      -3.385  -1.388   1.082  0.00  0.00    -0.158 OA
ATOM      3  O   UNL     1      -1.163  -1.789   2.083  0.00  0.00    -0.158 OA
ENDROOT
BRANCH   1   4
ATOM      4  N   UNL     1      -1.372  -0.511   0.012  0.00  0.00    -0.191 NA
ATOM      5  H   UNL     1      -1.861  -0.606  -0.820  0.00  0.00    +0.148 HD
BRANCH   4   7
ATOM      6  C   UNL     1      -0.019   1.526   0.010  0.00  0.00    +0.026 C 
ATOM      7  C   UNL     1       0.002  -0.004   0.002  0.00  0.00    +0.076 C 
BRANCH   7   8
ATOM      8  C   UNL     1       0.718  -0.497  -1.257  0.00  0.00    +0.007 C 
ATOM      9  C   UNL     1       0.739  -2.027  -1.265  0.00  0.00    +0.005 C 
ATOM     10  C   UNL     1       1.455  -2.521  -2.524  0.00  0.00    +0.000 C 
ATOM     11  C   UNL     1       2.890  -1.991  -2.535  0.00  0.00    +0.000 C 
ATOM     12  C   UNL     1       2.870  -0.461  -2.526  0.00  0.00    +0.000 C 
ATOM     13  C   UNL     1       2.154   0.032  -1.268  0.00  0.00    +0.005 C 
ENDBRANCH   7   8
ENDBRANCH   4   7
ENDBRANCH   1   4
BRANCH   1  14
ATOM     14  C   UNL     1      -2.225   0.635   2.365  0.00  0.00    +0.220 C 
BRANCH  14  15
ATOM     15  C   UNL     1      -2.873   0.377   3.701  0.00  0.00    -0.024 A 
ATOM     16  C   UNL     1      -4.248   0.448   3.827  0.00  0.00    +0.005 A 
ATOM     17  C   UNL     1      -4.842   0.211   5.052  0.00  0.00    +0.000 A 
ATOM     18  C   UNL     1      -4.062  -0.098   6.151  0.00  0.00    +0.000 A 
ATOM     19  C   UNL     1      -2.688  -0.169   6.025  0.00  0.00    +0.002 A 
ATOM     20  C   UNL     1      -2.093   0.064   4.798  0.00  0.00    -0.060 A 
BRANCH  20  21
ATOM     21  C   UNL     1      -0.595  -0.019   4.659  0.00  0.00    -0.050 C 
BRANCH  21  22
ATOM     22  N   UNL     1      -0.025   1.334   4.686  0.00  0.00    +0.381 N 
ATOM     23  H   UNL     1      -0.404   1.875   3.923  0.00  0.00    -0.090 HD
ATOM     24  H   UNL     1      -0.257   1.780   5.562  0.00  0.00    -0.090 HD
ATOM     25  H   UNL     1       0.978   1.279   4.593  0.00  0.00    -0.090 HD
ENDBRANCH  21  22
ENDBRANCH  20  21
ENDBRANCH  14  15
ENDBRANCH   1  14
TORSDOF 7
