REMARK  Name = ZINC00642492
REMARK  13 active torsions:
REMARK  status: ('A' for Active; 'I' for Inactive)
REMARK    1  A    between atoms: C_1  and  C_2
REMARK    2  A    between atoms: C_3  and  C_27
REMARK    3  A    between atoms: C_4  and  C_15
REMARK    4  A    between atoms: C_7  and  N_14
REMARK    5  A    between atoms: C_8  and  C_12
REMARK    6  A    between atoms: C_17  and  O_25
REMARK    7  A    between atoms: C_18  and  O_23
REMARK    8  A    between atoms: C_19  and  O_21
REMARK    9  A    between atoms: O_21  and  C_22
REMARK   10  A    between atoms: O_23  and  C_24
REMARK   11  A    between atoms: O_25  and  C_26
REMARK   12  A    between atoms: C_27  and  O_29
REMARK   13  A    between atoms: O_29  and  C_30
REMARK                            x       y       z     vdW  Elec       q    Type
REMARK                         _______ _______ _______ _____ _____    ______ ____
ROOT
ATOM      1  C   UNL     1      -0.018   1.503   0.010  0.00  0.00    +0.066 C 
ATOM      2  C   UNL     1       0.002  -0.004   0.002  0.00  0.00    +0.053 C 
ATOM      3  C   UNL     1      -1.186  -0.705   0.004  0.00  0.00    +0.083 C 
ATOM      4  C   UNL     1      -1.115  -2.216  -0.005  0.00  0.00    +0.151 C 
ATOM      5  N   UNL     1       0.240  -2.829  -0.015  0.00  0.00    -0.255 N 
ATOM      6  C   UNL     1       0.533  -4.162  -0.024  0.00  0.00    +0.115 C 
ATOM      7  C   UNL     1       1.853  -4.520  -0.032  0.00  0.00    +0.127 C 
ATOM      8  S   UNL     1       2.659  -2.931  -0.027  0.00  0.00    -0.040 S 
ATOM      9  C   UNL     1       1.294  -1.954  -0.015  0.00  0.00    +0.168 C 
ATOM     10  N   UNL     1       1.160  -0.646  -0.013  0.00  0.00    -0.230 NA
ENDROOT
BRANCH   4  11
ATOM     11  C   UNL     1      -1.844  -2.721   1.214  0.00  0.00    -0.015 A 
ATOM     12  C   UNL     1      -1.218  -2.708   2.446  0.00  0.00    +0.055 A 
ATOM     13  C   UNL     1      -1.885  -3.173   3.570  0.00  0.00    +0.165 A 
ATOM     14  C   UNL     1      -3.184  -3.652   3.455  0.00  0.00    +0.204 A 
ATOM     15  C   UNL     1      -3.810  -3.664   2.214  0.00  0.00    +0.165 A 
ATOM     16  C   UNL     1      -3.138  -3.192   1.097  0.00  0.00    +0.055 A 
BRANCH  15  17
ATOM     17  O   UNL     1      -5.081  -4.132   2.097  0.00  0.00    -0.491 OA
ATOM     18  C   UNL     1      -5.662  -4.114   0.791  0.00  0.00    +0.277 C 
ENDBRANCH  15  17
BRANCH  14  19
ATOM     19  O   UNL     1      -3.842  -4.110   4.555  0.00  0.00    -0.488 OA
ATOM     20  C   UNL     1      -4.607  -3.157   5.297  0.00  0.00    +0.277 C 
ENDBRANCH  14  19
BRANCH  13  21
ATOM     21  O   UNL     1      -1.268  -3.159   4.782  0.00  0.00    -0.491 OA
ATOM     22  C   UNL     1       0.068  -2.653   4.824  0.00  0.00    +0.277 C 
ENDBRANCH  13  21
ENDBRANCH   4  11
BRANCH   6  23
ATOM     23  N   UNL     1      -0.466  -5.114  -0.024  0.00  0.00    -0.345 N 
ATOM     24  H   UNL     1      -1.397  -4.840  -0.017  0.00  0.00    +0.144 HD
ATOM     25  H   UNL     1      -0.238  -6.057  -0.030  0.00  0.00    +0.144 HD
ENDBRANCH   6  23
BRANCH   7  26
ATOM     26  C   UNL     1       2.434  -5.829  -0.043  0.00  0.00    +0.110 C 
ATOM     27  N   UNL     1       2.896  -6.867  -0.051  0.00  0.00    -0.190 NA
ENDBRANCH   7  26
BRANCH   3  28
ATOM     28  C   UNL     1      -2.420  -0.039   0.014  0.00  0.00    +0.339 C 
ATOM     29  O   UNL     1      -2.454   1.179   0.021  0.00  0.00    -0.245 OA
BRANCH  28  30
ATOM     30  O   UNL     1      -3.570  -0.747   0.016  0.00  0.00    -0.465 OA
ATOM     31  C   UNL     1      -4.790  -0.003   0.026  0.00  0.00    +0.280 C 
ENDBRANCH  28  30
ENDBRANCH   3  28
TORSDOF 8
