REMARK  Name = ZINC12516068
REMARK  6 active torsions:
REMARK  status: ('A' for Active; 'I' for Inactive)
REMARK    1  A    between atoms: C_1  and  C_2
REMARK    2  A    between atoms: C_9  and  N_14
REMARK    3  A    between atoms: N_14  and  C_15
REMARK    4  A    between atoms: C_15  and  C_17
REMARK    5  A    between atoms: C_15  and  C_23
REMARK    6  A    between atoms: N_25  and  C_26
REMARK                            x       y       z     vdW  Elec       q    Type
REMARK                         _______ _______ _______ _____ _____    ______ ____
ROOT
ATOM      1  N   UNL     1       2.647  -4.007  -0.601  0.00  0.00    -0.329 N 
ATOM      2  H   UNL     1       1.849  -4.502  -0.847  0.00  0.00    +0.147 HD
ENDROOT
BRANCH   1  10
ATOM      3  C   UNL     1       1.085   3.458   0.701  0.00  0.00    +0.062 C 
ATOM      4  C   UNL     1       1.282   2.112   0.001  0.00  0.00    +0.256 C 
ATOM      5  C   UNL     1      -0.016   1.347   0.009  0.00  0.00    +0.258 C 
ATOM      6  O   UNL     1      -1.073   1.941   0.018  0.00  0.00    -0.271 OA
ATOM      7  N   UNL     1       0.002  -0.004   0.002  0.00  0.00    -0.279 N 
ATOM      8  C   UNL     1       1.237  -0.667   0.022  0.00  0.00    +0.077 A 
ATOM      9  C   UNL     1       1.323  -2.011  -0.301  0.00  0.00    +0.050 A 
ATOM     10  C   UNL     1       2.555  -2.650  -0.274  0.00  0.00    +0.030 A 
ATOM     11  C   UNL     1       3.697  -1.942   0.076  0.00  0.00    +0.026 A 
ATOM     12  C   UNL     1       3.612  -0.600   0.399  0.00  0.00    +0.049 A 
ATOM     13  C   UNL     1       2.385   0.040   0.373  0.00  0.00    +0.143 A 
ATOM     14  O   UNL     1       2.287   1.361   0.688  0.00  0.00    -0.478 OA
ATOM     15  H   UNL     1      -0.827  -0.507  -0.017  0.00  0.00    +0.155 HD
ENDBRANCH   1  10
BRANCH   1  16
ATOM     16  C   UNL     1       3.947  -4.681  -0.573  0.00  0.00    +0.187 C 
BRANCH  16  17
ATOM     17  C   UNL     1       4.653  -4.466  -1.887  0.00  0.00    -0.018 A 
ATOM     18  C   UNL     1       3.942  -4.518  -3.071  0.00  0.00    +0.006 A 
ATOM     19  C   UNL     1       4.589  -4.315  -4.275  0.00  0.00    +0.000 A 
ATOM     20  C   UNL     1       5.949  -4.071  -4.297  0.00  0.00    +0.000 A 
ATOM     21  C   UNL     1       6.662  -4.025  -3.113  0.00  0.00    +0.000 A 
ATOM     22  C   UNL     1       6.014  -4.222  -1.908  0.00  0.00    +0.006 A 
ENDBRANCH  16  17
BRANCH  16  23
ATOM     23  C   UNL     1       3.743  -6.158  -0.349  0.00  0.00    +0.238 C 
ATOM     24  O   UNL     1       2.621  -6.603  -0.225  0.00  0.00    -0.273 OA
ATOM     25  N   UNL     1       4.806  -6.983  -0.286  0.00  0.00    -0.311 N 
ATOM     26  H   UNL     1       5.703  -6.627  -0.385  0.00  0.00    +0.149 HD
BRANCH  25  27
ATOM     27  C   UNL     1       4.607  -8.418  -0.068  0.00  0.00    +0.073 C 
ATOM     28  C   UNL     1       5.531  -9.115   0.933  0.00  0.00    +0.024 C 
ATOM     29  C   UNL     1       5.699  -9.367  -0.567  0.00  0.00    +0.024 C 
ENDBRANCH  25  27
ENDBRANCH  16  23
ENDBRANCH   1  16
TORSDOF 5
