REMARK  Name = ZINC04544039
REMARK  5 active torsions:
REMARK  status: ('A' for Active; 'I' for Inactive)
REMARK    1  A    between atoms: C_1  and  C_2
REMARK    2  A    between atoms: C_2  and  C_10
REMARK    3  A    between atoms: C_3  and  C_4
REMARK    4  A    between atoms: C_21  and  C_22
REMARK    5  A    between atoms: C_21  and  N_55
REMARK                            x       y       z     vdW  Elec       q    Type
REMARK                         _______ _______ _______ _____ _____    ______ ____
ROOT
ATOM      1  C   UNL     1      -3.674   3.161   0.137  0.00  0.00    +0.186 C 
ATOM      2  N   UNL     1      -4.110   3.631   1.464  0.00  0.00    -0.316 N 
ATOM      3  C   UNL     1      -5.461   3.672   1.690  0.00  0.00    +0.080 A 
ATOM      4  C   UNL     1      -6.406   3.768   0.656  0.00  0.00    +0.068 A 
ATOM      5  C   UNL     1      -7.796   3.808   1.073  0.00  0.00    -0.027 A 
ATOM      6  C   UNL     1      -8.011   3.747   2.408  0.00  0.00    -0.021 A 
ATOM      7  S   UNL     1      -6.394   3.634   3.126  0.00  0.00    -0.080 S 
ATOM      8  C   UNL     1      -9.338   3.772   3.099  0.00  0.00    -0.035 C 
ATOM      9  C   UNL     1     -10.242   3.487   0.870  0.00  0.00    -0.073 C 
ATOM     10  C   UNL     1      -8.979   3.911   0.117  0.00  0.00    +0.018 C 
ATOM     11  C   UNL     1      -5.896   3.815  -0.734  0.00  0.00    +0.248 C 
ATOM     12  O   UNL     1      -6.642   4.011  -1.676  0.00  0.00    -0.270 OA
ATOM     13  N   UNL     1      -4.571   3.633  -0.913  0.00  0.00    -0.289 N 
ATOM     14  H   UNL     1      -3.472   3.897   2.145  0.00  0.00    +0.149 HD
ATOM     15  H   UNL     1      -4.195   3.826  -1.786  0.00  0.00    +0.151 HD
ATOM     16  N   UNL     1     -10.347   4.257   2.126  0.00  0.00    +0.386 N 
ATOM     17  H   UNL     1     -10.168   5.248   1.926  0.00  0.00    -0.081 HD
ENDROOT
BRANCH   1  19
ATOM     18  C   UNL     1      -4.887   0.882   0.522  0.00  0.00    +0.042 C 
ATOM     19  C   UNL     1      -3.654   1.654   0.128  0.00  0.00    -0.034 C 
ATOM     20  C   UNL     1      -2.552   1.008  -0.226  0.00  0.00    +0.010 C 
BRANCH  20  21
ATOM     21  C   UNL     1      -1.407   1.753  -0.790  0.00  0.00    -0.025 A 
ATOM     22  C   UNL     1      -1.624   2.772  -1.718  0.00  0.00    +0.008 A 
ATOM     23  C   UNL     1      -0.551   3.467  -2.237  0.00  0.00    +0.001 A 
ATOM     24  C   UNL     1       0.737   3.153  -1.843  0.00  0.00    +0.000 A 
ATOM     25  C   UNL     1       0.959   2.140  -0.927  0.00  0.00    +0.001 A 
ATOM     26  C   UNL     1      -0.105   1.436  -0.401  0.00  0.00    +0.008 A 
ENDBRANCH  20  21
ENDBRANCH   1  19
BRANCH  16  27
ATOM     27  C   UNL     1     -11.705   4.118   2.694  0.00  0.00    -0.043 C 
BRANCH  27  28
ATOM     28  C   UNL     1     -12.042   2.664   2.903  0.00  0.00    -0.064 A 
ATOM     29  C   UNL     1     -12.657   1.946   1.894  0.00  0.00    +0.002 A 
ATOM     30  C   UNL     1     -12.961   0.611   2.084  0.00  0.00    +0.000 A 
ATOM     31  C   UNL     1     -12.660  -0.003   3.285  0.00  0.00    +0.000 A 
ATOM     32  C   UNL     1     -12.050   0.717   4.295  0.00  0.00    +0.000 A 
ATOM     33  C   UNL     1     -11.741   2.050   4.104  0.00  0.00    +0.002 A 
ENDBRANCH  27  28
ENDBRANCH  16  27
TORSDOF 4
