REMARK  Name = ZINC08961975
REMARK  5 active torsions:
REMARK  status: ('A' for Active; 'I' for Inactive)
REMARK    1  A    between atoms: C_1  and  C_2
REMARK    2  A    between atoms: C_7  and  S_8
REMARK    3  A    between atoms: S_8  and  N_11
REMARK    4  A    between atoms: N_11  and  C_12
REMARK    5  A    between atoms: C_22  and  C_25
REMARK                            x       y       z     vdW  Elec       q    Type
REMARK                         _______ _______ _______ _____ _____    ______ ____
ROOT
ATOM      1  C   UNL     1       3.877   2.125   2.316  0.00  0.00    +0.049 A 
ATOM      2  C   UNL     1       4.603   1.363   1.407  0.00  0.00    +0.028 A 
ATOM      3  C   UNL     1       5.038   0.097   1.744  0.00  0.00    +0.048 A 
ATOM      4  C   UNL     1       4.750  -0.424   2.994  0.00  0.00    +0.133 A 
ATOM      5  C   UNL     1       4.014   0.337   3.915  0.00  0.00    +0.080 A 
ATOM      6  C   UNL     1       3.585   1.618   3.572  0.00  0.00    +0.041 A 
ATOM      7  C   UNL     1       3.711  -0.239   5.239  0.00  0.00    +0.248 C 
ATOM      8  O   UNL     1       2.583  -0.192   5.691  0.00  0.00    -0.270 OA
ATOM      9  N   UNL     1       4.712  -0.821   5.942  0.00  0.00    -0.308 N 
ATOM     10  C   UNL     1       6.081  -0.771   5.426  0.00  0.00    +0.148 C 
ATOM     11  C   UNL     1       6.257  -1.742   4.267  0.00  0.00    +0.187 C 
ATOM     12  O   UNL     1       5.175  -1.664   3.348  0.00  0.00    -0.487 OA
ATOM     13  C   UNL     1       7.559  -1.413   3.534  0.00  0.00    +0.053 C 
ATOM     14  H   UNL     1       4.522  -1.269   6.782  0.00  0.00    +0.149 HD
ENDROOT
BRANCH   1  15
ATOM     15  N   UNL     1       3.444   3.408   1.964  0.00  0.00    -0.216 N 
ATOM     16  H   UNL     1       3.561   4.146   2.582  0.00  0.00    +0.174 HD
BRANCH  15  17
ATOM     17  S   UNL     1       2.733   3.667   0.491  0.00  0.00    +0.073 S 
ATOM     18  O   UNL     1       3.617   3.136  -0.486  0.00  0.00    -0.150 OA
ATOM     19  O   UNL     1       2.308   5.023   0.477  0.00  0.00    -0.150 OA
BRANCH  17  26
ATOM     20  C   UNL     1       0.369   4.030   2.341  0.00  0.00    +0.046 C 
ATOM     21  C   UNL     1       0.243   2.924   1.326  0.00  0.00    -0.024 A 
ATOM     22  C   UNL     1      -0.903   2.151   1.285  0.00  0.00    +0.008 A 
ATOM     23  C   UNL     1      -1.017   1.132   0.359  0.00  0.00    +0.039 A 
ATOM     24  C   UNL     1       0.012   0.892  -0.536  0.00  0.00    +0.125 A 
ATOM     25  C   UNL     1       1.159   1.666  -0.494  0.00  0.00    +0.067 A 
ATOM     26  C   UNL     1       1.273   2.682   0.437  0.00  0.00    +0.114 A 
ATOM     27  F   UNL     1      -0.101  -0.100  -1.446  0.00  0.00    -0.205 F 
ENDBRANCH  17  26
ENDBRANCH  15  17
ENDBRANCH   1  15
TORSDOF 3
