REMARK  Name = ZINC40312909
REMARK  9 active torsions:
REMARK  status: ('A' for Active; 'I' for Inactive)
REMARK    1  A    between atoms: C_1  and  O_2
REMARK    2  A    between atoms: O_2  and  C_3
REMARK    3  A    between atoms: C_3  and  C_5
REMARK    4  A    between atoms: C_5  and  C_6
REMARK    5  A    between atoms: C_6  and  C_7
REMARK    6  A    between atoms: C_7  and  C_8
REMARK    7  A    between atoms: C_8  and  C_9
REMARK    8  A    between atoms: C_9  and  N_10
REMARK    9  A    between atoms: C_22  and  C_24
REMARK                            x       y       z     vdW  Elec       q    Type
REMARK                         _______ _______ _______ _____ _____    ______ ____
ROOT
ATOM      1  N   UNL     1       2.755  -9.066   4.228  0.00  0.00    -0.299 N 
ATOM      2  C   UNL     1       3.100  -8.008   4.988  0.00  0.00    +0.303 C 
ATOM      3  O   UNL     1       2.918  -6.879   4.575  0.00  0.00    -0.253 OA
ATOM      4  N   UNL     1       3.647  -8.201   6.204  0.00  0.00    -0.273 N 
ATOM      5  C   UNL     1       3.920  -7.065   7.098  0.00  0.00    +0.116 C 
ATOM      6  C   UNL     1       5.433  -6.951   7.320  0.00  0.00    +0.076 C 
ATOM      7  C   UNL     1       5.989  -8.325   7.602  0.00  0.00    +0.066 A 
ATOM      8  C   UNL     1       5.351  -9.480   7.313  0.00  0.00    +0.064 A 
ATOM      9  N   UNL     1       6.162 -10.498   7.707  0.00  0.00    -0.346 N 
ATOM     10  H   UNL     1       5.976 -11.447   7.628  0.00  0.00    +0.167 HD
ATOM     11  C   UNL     1       7.275  -9.936   8.232  0.00  0.00    +0.197 A 
ATOM     12  N   UNL     1       7.161  -8.635   8.164  0.00  0.00    -0.240 NA
ATOM     13  C   UNL     1       3.981  -9.557   6.677  0.00  0.00    +0.156 C 
ATOM     14  H   UNL     1       2.965  -9.966   4.525  0.00  0.00    +0.150 HD
ENDROOT
BRANCH  13  15
ATOM     15  C   UNL     1       2.964 -10.012   7.692  0.00  0.00    -0.017 A 
ATOM     16  C   UNL     1       2.838  -9.337   8.892  0.00  0.00    +0.009 A 
ATOM     17  C   UNL     1       1.907  -9.750   9.826  0.00  0.00    +0.050 A 
ATOM     18  C   UNL     1       1.097 -10.843   9.562  0.00  0.00    +0.166 A 
ATOM     19  C   UNL     1       1.224 -11.523   8.353  0.00  0.00    +0.167 A 
ATOM     20  C   UNL     1       2.156 -11.100   7.419  0.00  0.00    +0.055 A 
ATOM     21  O   UNL     1       0.325 -12.549   8.333  0.00  0.00    -0.453 OA
ATOM     22  C   UNL     1      -0.070 -12.741   9.704  0.00  0.00    +0.466 C 
ATOM     23  O   UNL     1       0.118 -11.444  10.299  0.00  0.00    -0.453 OA
ENDBRANCH  13  15
BRANCH   1  24
ATOM     24  C   UNL     1       2.062  -8.859   2.954  0.00  0.00    +0.106 C 
BRANCH  24  25
ATOM     25  C   UNL     1       1.788 -10.213   2.296  0.00  0.00    +0.019 C 
BRANCH  25  26
ATOM     26  C   UNL     1       1.065  -9.996   0.966  0.00  0.00    +0.002 C 
BRANCH  26  27
ATOM     27  C   UNL     1       0.791 -11.350   0.308  0.00  0.00    +0.011 C 
BRANCH  27  28
ATOM     28  C   UNL     1       0.067 -11.134  -1.023  0.00  0.00    +0.120 C 
BRANCH  28  29
ATOM     29  C   UNL     1      -0.203 -12.467  -1.671  0.00  0.00    +0.307 C 
ATOM     30  O   UNL     1       0.148 -13.486  -1.124  0.00  0.00    -0.251 OA
BRANCH  29  32
ATOM     31  C   UNL     1      -1.055 -13.820  -3.411  0.00  0.00    +0.280 C 
ATOM     32  O   UNL     1      -0.832 -12.523  -2.855  0.00  0.00    -0.468 OA
ENDBRANCH  29  32
ENDBRANCH  28  29
ENDBRANCH  27  28
ENDBRANCH  26  27
ENDBRANCH  25  26
ENDBRANCH  24  25
ENDBRANCH   1  24
TORSDOF 8
