REMARK  Name = ZINC05102487
REMARK  5 active torsions:
REMARK  status: ('A' for Active; 'I' for Inactive)
REMARK    1  A    between atoms: C_1  and  C_2
REMARK    2  A    between atoms: C_7  and  C_8
REMARK    3  A    between atoms: C_8  and  N_9
REMARK    4  A    between atoms: C_11  and  C_18
REMARK    5  A    between atoms: N_19  and  N_20
REMARK                            x       y       z     vdW  Elec       q    Type
REMARK                         _______ _______ _______ _____ _____    ______ ____
ROOT
ATOM      1  N   UNL     1      -1.094   0.272   3.048  0.00  0.00    -0.342 N 
ATOM      2  C   UNL     1      -1.873   1.357   2.788  0.00  0.00    +0.096 A 
ATOM      3  C   UNL     1      -3.051   1.249   3.462  0.00  0.00    +0.020 A 
ATOM      4  C   UNL     1      -2.993  -0.021   4.208  0.00  0.00    +0.009 A 
ATOM      5  C   UNL     1      -1.745  -0.590   3.905  0.00  0.00    +0.050 A 
ATOM      6  C   UNL     1      -1.399  -1.815   4.467  0.00  0.00    +0.026 A 
ATOM      7  C   UNL     1      -2.280  -2.458   5.309  0.00  0.00    +0.002 A 
ATOM      8  C   UNL     1      -3.514  -1.895   5.605  0.00  0.00    +0.001 A 
ATOM      9  C   UNL     1      -3.871  -0.680   5.065  0.00  0.00    +0.010 A 
ENDROOT
BRANCH   3  10
ATOM     10  C   UNL     1      -4.162   2.211   3.449  0.00  0.00    +0.143 C 
ATOM     11  N   UNL     1      -5.234   1.976   4.147  0.00  0.00    -0.172 NA
BRANCH  11  12
ATOM     12  N   UNL     1      -6.293   2.893   4.135  0.00  0.00    -0.207 N 
ATOM     13  C   UNL     1      -6.207   4.248   4.241  0.00  0.00    +0.248 A 
ATOM     14  N   UNL     1      -7.425   4.718   4.184  0.00  0.00    -0.136 NA
ATOM     15  N   UNL     1      -8.261   3.751   4.050  0.00  0.00    -0.136 NA
ATOM     16  C   UNL     1      -7.620   2.613   4.008  0.00  0.00    +0.248 A 
ENDBRANCH  11  12
ENDBRANCH   3  10
BRANCH   1  17
ATOM     17  C   UNL     1       0.243   0.049   2.492  0.00  0.00    +0.157 C 
BRANCH  17  24
ATOM     18  C   UNL     1      -0.268   1.125  -0.140  0.00  0.00    +0.044 C 
ATOM     19  C   UNL     1      -0.098  -0.361   0.047  0.00  0.00    -0.046 A 
ATOM     20  C   UNL     1      -0.181  -1.208  -1.042  0.00  0.00    +0.004 A 
ATOM     21  C   UNL     1      -0.026  -2.571  -0.871  0.00  0.00    +0.000 A 
ATOM     22  C   UNL     1       0.213  -3.087   0.389  0.00  0.00    +0.000 A 
ATOM     23  C   UNL     1       0.297  -2.239   1.478  0.00  0.00    +0.005 A 
ATOM     24  C   UNL     1       0.146  -0.876   1.306  0.00  0.00    -0.025 A 
ENDBRANCH  17  24
ENDBRANCH   1  17
TORSDOF 4
