REMARK  Name = ZINC09135252
REMARK  5 active torsions:
REMARK  status: ('A' for Active; 'I' for Inactive)
REMARK    1  A    between atoms: C_5  and  S_7
REMARK    2  A    between atoms: S_7  and  N_10
REMARK    3  A    between atoms: C_14  and  C_17
REMARK    4  A    between atoms: N_19  and  C_20
REMARK    5  A    between atoms: C_23  and  O_26
REMARK                            x       y       z     vdW  Elec       q    Type
REMARK                         _______ _______ _______ _____ _____    ______ ____
ROOT
ATOM      1  N   UNL     1      -2.709   9.649  -0.213  0.00  0.00    -0.176 NA
ATOM      2  C   UNL     1      -2.012  10.335   0.883  0.00  0.00    +0.109 C 
ATOM      3  C   UNL     1      -0.571   9.817   0.951  0.00  0.00    +0.018 C 
ATOM      4  C   UNL     1      -0.587   8.292   1.073  0.00  0.00    +0.015 C 
ATOM      5  C   UNL     1      -1.260   7.687  -0.161  0.00  0.00    +0.091 C 
ATOM      6  C   UNL     1      -2.708   8.180  -0.242  0.00  0.00    +0.122 C 
ENDROOT
BRANCH   5   7
ATOM      7  C   UNL     1      -1.246   6.183  -0.055  0.00  0.00    +0.222 C 
ATOM      8  O   UNL     1      -2.290   5.566  -0.048  0.00  0.00    -0.275 OA
ATOM      9  N   UNL     1      -0.073   5.525   0.032  0.00  0.00    -0.285 N 
ATOM     10  H   UNL     1       0.758   6.021   0.103  0.00  0.00    +0.155 HD
BRANCH   9  11
ATOM     11  C   UNL     1      -0.053   4.124   0.019  0.00  0.00    +0.034 A 
ATOM     12  C   UNL     1      -0.993   3.423  -0.725  0.00  0.00    +0.027 A 
ATOM     13  C   UNL     1      -0.973   2.042  -0.737  0.00  0.00    +0.047 A 
ATOM     14  C   UNL     1      -0.016   1.356  -0.006  0.00  0.00    +0.117 A 
ATOM     15  C   UNL     1       0.920   2.055   0.743  0.00  0.00    +0.047 A 
ATOM     16  C   UNL     1       0.905   3.436   0.751  0.00  0.00    +0.027 A 
BRANCH  14  17
ATOM     17  O   UNL     1       0.003  -0.004  -0.018  0.00  0.00    -0.507 OA
ATOM     18  H   UNL     1       0.551  -0.384  -0.719  0.00  0.00    +0.292 HD
ENDBRANCH  14  17
ENDBRANCH   9  11
ENDBRANCH   5   7
BRANCH   1  19
ATOM     19  S   UNL     1      -3.482  10.515  -1.394  0.00  0.00    +0.063 S 
ATOM     20  O   UNL     1      -4.477   9.660  -1.939  0.00  0.00    -0.153 OA
ATOM     21  O   UNL     1      -3.792  11.783  -0.831  0.00  0.00    -0.153 OA
BRANCH  19  26
ATOM     22  C   UNL     1      -1.591  10.469  -4.941  0.00  0.00    +0.004 A 
ATOM     23  C   UNL     1      -0.484  11.230  -4.773  0.00  0.00    +0.031 A 
ATOM     24  C   UNL     1      -0.223  11.836  -3.516  0.00  0.00    +0.102 A 
ATOM     25  C   UNL     1      -1.175  11.620  -2.430  0.00  0.00    +0.126 A 
ATOM     26  C   UNL     1      -2.311  10.807  -2.678  0.00  0.00    +0.133 A 
ATOM     27  C   UNL     1      -2.497  10.259  -3.902  0.00  0.00    +0.031 A 
ATOM     28  N   UNL     1      -0.811  12.250  -1.314  0.00  0.00    -0.189 NA
ATOM     29  S   UNL     1       0.530  12.989  -1.646  0.00  0.00    +0.117 S 
ATOM     30  N   UNL     1       0.794  12.611  -3.144  0.00  0.00    -0.191 NA
ENDBRANCH  19  26
ENDBRANCH   1  19
TORSDOF 5
