REMARK  Name = ZINC39966955
REMARK  7 active torsions:
REMARK  status: ('A' for Active; 'I' for Inactive)
REMARK    1  A    between atoms: C_6  and  N_7
REMARK    2  A    between atoms: C_8  and  C_10
REMARK    3  A    between atoms: C_10  and  S_11
REMARK    4  A    between atoms: S_11  and  C_12
REMARK    5  A    between atoms: C_15  and  C_24
REMARK    6  A    between atoms: N_16  and  C_17
REMARK    7  A    between atoms: C_17  and  C_18
REMARK                            x       y       z     vdW  Elec       q    Type
REMARK                         _______ _______ _______ _____ _____    ______ ____
ROOT
ATOM      1  C   UNL     1      -6.464  -0.755   0.420  0.00  0.00    +0.192 A 
ATOM      2  N   UNL     1      -6.461  -2.055   0.606  0.00  0.00    -0.122 NA
ATOM      3  N   UNL     1      -7.662  -2.480   0.770  0.00  0.00    -0.128 NA
ATOM      4  C   UNL     1      -8.507  -1.478   0.701  0.00  0.00    +0.166 A 
ATOM      5  N   UNL     1      -7.766  -0.340   0.480  0.00  0.00    -0.300 N 
ENDROOT
BRANCH   4   6
ATOM      6  C   UNL     1      -9.977  -1.555   0.839  0.00  0.00    +0.030 A 
ATOM      7  C   UNL     1     -10.636  -0.684   1.657  0.00  0.00    +0.057 A 
ATOM      8  S   UNL     1     -12.332  -1.204   1.455  0.00  0.00    -0.101 S 
ATOM      9  C   UNL     1     -12.049  -2.525   0.304  0.00  0.00    -0.006 A 
ATOM     10  C   UNL     1     -10.706  -2.526   0.122  0.00  0.00    -0.026 A 
ATOM     11  C   UNL     1     -10.013  -3.533  -0.792  0.00  0.00    +0.036 C 
ATOM     12  C   UNL     1     -10.977  -3.999  -1.877  0.00  0.00    +0.005 C 
ATOM     13  C   UNL     1     -11.762  -5.224  -1.413  0.00  0.00    +0.001 C 
ATOM     14  C   UNL     1     -12.618  -4.871  -0.201  0.00  0.00    +0.005 C 
ATOM     15  C   UNL     1     -13.067  -3.417  -0.329  0.00  0.00    +0.043 C 
ENDBRANCH   4   6
BRANCH   1  16
ATOM     16  S   UNL     1      -5.053   0.265   0.153  0.00  0.00    -0.077 S 
BRANCH  16  17
ATOM     17  C   UNL     1      -3.659  -0.895   0.188  0.00  0.00    +0.173 C 
BRANCH  17  19
ATOM     18  N   UNL     1      -1.198  -0.803  -0.046  0.00  0.00    -0.285 N 
ATOM     19  C   UNL     1      -2.372  -0.142  -0.032  0.00  0.00    +0.227 C 
ATOM     20  O   UNL     1      -2.393   1.060  -0.196  0.00  0.00    -0.275 OA
ATOM     21  H   UNL     1      -1.186  -1.771   0.013  0.00  0.00    +0.155 HD
BRANCH  18  27
ATOM     22  C   UNL     1       0.118   1.166   0.430  0.00  0.00    +0.027 A 
ATOM     23  C   UNL     1       1.304   1.868   0.331  0.00  0.00    +0.051 A 
ATOM     24  C   UNL     1       2.384   1.319  -0.344  0.00  0.00    +0.162 A 
ATOM     25  C   UNL     1       2.275   0.058  -0.919  0.00  0.00    +0.164 A 
ATOM     26  C   UNL     1       1.085  -0.646  -0.820  0.00  0.00    +0.072 A 
ATOM     27  C   UNL     1       0.005  -0.092  -0.145  0.00  0.00    +0.037 A 
ATOM     28  O   UNL     1       3.327  -0.501  -1.578  0.00  0.00    -0.485 OA
ATOM     29  C   UNL     1       4.379   0.384  -1.978  0.00  0.00    +0.270 C 
ATOM     30  C   UNL     1       4.720   1.293  -0.790  0.00  0.00    +0.270 C 
ATOM     31  O   UNL     1       3.544   2.027  -0.435  0.00  0.00    -0.485 OA
ENDBRANCH  18  27
ENDBRANCH  17  19
ENDBRANCH  16  17
ENDBRANCH   1  16
BRANCH   5  32
ATOM     32  C   UNL     1      -8.266   1.029   0.336  0.00  0.00    +0.157 C 
BRANCH  32  33
ATOM     33  C   UNL     1      -8.446   1.352  -1.149  0.00  0.00    +0.138 C 
ATOM     34  C   UNL     1      -8.857   2.831  -1.317  0.00  0.00    +0.035 C 
ATOM     35  C   UNL     1      -9.902   2.754  -2.463  0.00  0.00    +0.031 C 
ATOM     36  C   UNL     1     -10.562   1.384  -2.168  0.00  0.00    +0.160 C 
ATOM     37  O   UNL     1      -9.493   0.545  -1.699  0.00  0.00    -0.375 OA
ENDBRANCH  32  33
ENDBRANCH   5  32
TORSDOF 7
