REMARK  Name = ZINC13688671
REMARK  6 active torsions:
REMARK  status: ('A' for Active; 'I' for Inactive)
REMARK    1  A    between atoms: C_7  and  C_13
REMARK    2  A    between atoms: C_13  and  C_14
REMARK    3  A    between atoms: C_19  and  C_22
REMARK    4  A    between atoms: N_24  and  C_25
REMARK    5  A    between atoms: C_25  and  C_26
REMARK    6  A    between atoms: C_26  and  C_27
REMARK                            x       y       z     vdW  Elec       q    Type
REMARK                         _______ _______ _______ _____ _____    ______ ____
ROOT
ATOM      1  C   UNL     1      -5.825  -4.617   1.989  0.00  0.00    +0.221 C 
ATOM      2  O   UNL     1      -5.810  -5.822   1.851  0.00  0.00    -0.275 OA
ATOM      3  N   UNL     1      -5.169  -3.830   1.113  0.00  0.00    -0.301 N 
ATOM      4  C   UNL     1      -4.432  -4.418  -0.014  0.00  0.00    +0.108 C 
ATOM      5  C   UNL     1      -2.993  -3.891   0.010  0.00  0.00    +0.032 C 
ATOM      6  C   UNL     1      -3.014  -2.361   0.018  0.00  0.00    +0.078 C 
ATOM      7  C   UNL     1      -3.731  -1.866   1.276  0.00  0.00    +0.032 C 
ATOM      8  C   UNL     1      -5.178  -2.369   1.267  0.00  0.00    +0.108 C 
ENDROOT
BRANCH   6   9
ATOM      9  C   UNL     1      -1.601  -1.839   0.007  0.00  0.00    +0.216 C 
ATOM     10  O   UNL     1      -0.668  -2.615  -0.006  0.00  0.00    -0.276 OA
ATOM     11  N   UNL     1      -1.372  -0.511   0.012  0.00  0.00    -0.315 N 
ATOM     12  H   UNL     1      -2.118   0.109   0.023  0.00  0.00    +0.149 HD
BRANCH  11  13
ATOM     13  C   UNL     1       0.002  -0.004   0.002  0.00  0.00    +0.109 C 
BRANCH  13  14
ATOM     14  C   UNL     1      -0.019   1.526   0.010  0.00  0.00    +0.056 C 
BRANCH  14  15
ATOM     15  C   UNL     1       1.395   2.047  -0.000  0.00  0.00    -0.021 A 
ATOM     16  C   UNL     1       2.120   2.412   1.069  0.00  0.00    +0.087 A 
ATOM     17  N   UNL     1       3.360   2.832   0.671  0.00  0.00    -0.360 N 
ATOM     18  H   UNL     1       4.061   3.141   1.266  0.00  0.00    +0.165 HD
ATOM     19  C   UNL     1       3.463   2.754  -0.699  0.00  0.00    +0.047 A 
ATOM     20  C   UNL     1       2.237   2.259  -1.180  0.00  0.00    +0.003 A 
ATOM     21  C   UNL     1       2.050   2.073  -2.551  0.00  0.00    +0.010 A 
ATOM     22  C   UNL     1       3.062   2.373  -3.420  0.00  0.00    +0.001 A 
ATOM     23  C   UNL     1       4.273   2.862  -2.951  0.00  0.00    +0.002 A 
ATOM     24  C   UNL     1       4.478   3.053  -1.602  0.00  0.00    +0.026 A 
ENDBRANCH  14  15
ENDBRANCH  13  14
ENDBRANCH  11  13
ENDBRANCH   6   9
BRANCH   1  25
ATOM     25  C   UNL     1      -6.576  -4.000   3.140  0.00  0.00    +0.153 C 
BRANCH  25  32
ATOM     26  C   UNL     1      -8.942  -3.145   6.655  0.00  0.00    +0.001 A 
ATOM     27  C   UNL     1      -9.520  -4.168   7.395  0.00  0.00    +0.001 A 
ATOM     28  C   UNL     1      -9.352  -5.485   7.025  0.00  0.00    +0.014 A 
ATOM     29  C   UNL     1      -8.593  -5.787   5.895  0.00  0.00    +0.050 A 
ATOM     30  C   UNL     1      -8.002  -4.742   5.148  0.00  0.00    +0.011 A 
ATOM     31  C   UNL     1      -8.193  -3.417   5.545  0.00  0.00    +0.010 A 
ATOM     32  C   UNL     1      -7.216  -5.088   3.964  0.00  0.00    +0.078 A 
ATOM     33  N   UNL     1      -7.065  -6.333   3.624  0.00  0.00    -0.175 NA
ATOM     34  N   UNL     1      -7.631  -7.385   4.346  0.00  0.00    -0.242 N 
ATOM     35  H   UNL     1      -7.485  -8.296   4.046  0.00  0.00    +0.192 HD
ATOM     36  C   UNL     1      -8.377  -7.168   5.449  0.00  0.00    +0.272 A 
ATOM     37  O   UNL     1      -8.862  -8.102   6.063  0.00  0.00    -0.266 OA
ENDBRANCH  25  32
ENDBRANCH   1  25
TORSDOF 6
