REMARK  Name = ZINC18165073
REMARK  6 active torsions:
REMARK  status: ('A' for Active; 'I' for Inactive)
REMARK    1  A    between atoms: C_1  and  C_2
REMARK    2  A    between atoms: C_5  and  N_8
REMARK    3  A    between atoms: C_13  and  C_27
REMARK    4  A    between atoms: C_30  and  O_35
REMARK    5  A    between atoms: C_31  and  O_33
REMARK    6  A    between atoms: O_33  and  C_34
REMARK                            x       y       z     vdW  Elec       q    Type
REMARK                         _______ _______ _______ _____ _____    ______ ____
ROOT
ATOM      1  N   UNL     1       0.059  -4.172  -0.021  0.00  0.00    -0.209 N 
ATOM      2  C   UNL     1       0.069  -4.923   1.112  0.00  0.00    +0.232 C 
ATOM      3  O   UNL     1      -0.139  -4.538   2.243  0.00  0.00    -0.274 OA
ATOM      4  C   UNL     1       0.389  -6.319   0.682  0.00  0.00    +0.110 C 
ATOM      5  C   UNL     1      -0.199  -7.479   1.446  0.00  0.00    +0.072 C 
ATOM      6  C   UNL     1       0.188  -8.754   0.750  0.00  0.00    +0.033 A 
ATOM      7  C   UNL     1       0.596  -8.947  -0.524  0.00  0.00    +0.088 A 
ATOM      8  N   UNL     1       0.894 -10.248  -0.846  0.00  0.00    -0.311 N 
ATOM      9  H   UNL     1       1.205 -10.467  -1.739  0.00  0.00    +0.170 HD
ATOM     10  C   UNL     1       0.755 -11.219   0.076  0.00  0.00    +0.289 A 
ATOM     11  O   UNL     1       0.971 -12.412  -0.045  0.00  0.00    -0.260 OA
ATOM     12  S   UNL     1       0.213 -10.389   1.435  0.00  0.00    -0.030 S 
ATOM     13  S   UNL     1       0.709  -7.583  -1.673  0.00  0.00    -0.093 S 
ATOM     14  C   UNL     1      -0.229  -6.325  -0.749  0.00  0.00    +0.152 C 
ATOM     15  C   UNL     1       0.062  -4.910  -1.161  0.00  0.00    +0.240 C 
ATOM     16  O   UNL     1       0.262  -4.508  -2.287  0.00  0.00    -0.274 OA
ENDROOT
BRANCH   1  21
ATOM     17  C   UNL     1      -0.018   1.503   0.010  0.00  0.00    +0.044 C 
ATOM     18  C   UNL     1       0.002  -0.004   0.002  0.00  0.00    -0.050 A 
ATOM     19  C   UNL     1       0.006  -0.688  -1.200  0.00  0.00    +0.005 A 
ATOM     20  C   UNL     1       0.025  -2.068  -1.211  0.00  0.00    +0.024 A 
ATOM     21  C   UNL     1       0.040  -2.771  -0.013  0.00  0.00    +0.044 A 
ATOM     22  C   UNL     1       0.037  -2.082   1.192  0.00  0.00    +0.024 A 
ATOM     23  C   UNL     1       0.023  -0.700   1.196  0.00  0.00    +0.005 A 
ENDBRANCH   1  21
BRANCH   5  24
ATOM     24  C   UNL     1       0.340  -7.483   2.853  0.00  0.00    -0.035 A 
ATOM     25  C   UNL     1       1.700  -7.591   3.071  0.00  0.00    +0.008 A 
ATOM     26  C   UNL     1       2.199  -7.595   4.361  0.00  0.00    +0.049 A 
ATOM     27  C   UNL     1       1.334  -7.490   5.438  0.00  0.00    +0.158 A 
ATOM     28  C   UNL     1      -0.035  -7.380   5.219  0.00  0.00    +0.162 A 
ATOM     29  C   UNL     1      -0.528  -7.372   3.924  0.00  0.00    +0.053 A 
BRANCH  28  30
ATOM     30  O   UNL     1      -0.888  -7.277   6.273  0.00  0.00    -0.491 OA
ATOM     31  C   UNL     1      -2.281  -7.168   5.973  0.00  0.00    +0.277 C 
ENDBRANCH  28  30
BRANCH  27  32
ATOM     32  O   UNL     1       1.823  -7.494   6.707  0.00  0.00    -0.503 OA
ATOM     33  H   UNL     1       2.039  -6.615   7.048  0.00  0.00    +0.292 HD
ENDBRANCH  27  32
ENDBRANCH   5  24
TORSDOF 4
