REMARK  Name = ZINC37742548
REMARK  8 active torsions:
REMARK  status: ('A' for Active; 'I' for Inactive)
REMARK    1  A    between atoms: C_1  and  C_2
REMARK    2  A    between atoms: C_2  and  N_3
REMARK    3  A    between atoms: N_3  and  C_4
REMARK    4  A    between atoms: N_3  and  S_6
REMARK    5  A    between atoms: C_4  and  C_5
REMARK    6  A    between atoms: S_6  and  N_9
REMARK    7  A    between atoms: N_9  and  C_10
REMARK    8  A    between atoms: C_15  and  C_16
REMARK                            x       y       z     vdW  Elec       q    Type
REMARK                         _______ _______ _______ _____ _____    ______ ____
ROOT
ATOM      1  N   UNL     1      -2.849   0.433   2.021  0.00  0.00    -0.206 N 
ATOM      2  H   UNL     1      -2.554   0.835   2.853  0.00  0.00    +0.175 HD
ENDROOT
BRANCH   1   3
ATOM      3  C   UNL     1      -3.844   1.043   1.270  0.00  0.00    +0.064 A 
ATOM      4  C   UNL     1      -4.771   0.272   0.581  0.00  0.00    +0.040 A 
ATOM      5  C   UNL     1      -5.760   0.881  -0.165  0.00  0.00    +0.020 A 
ATOM      6  C   UNL     1      -5.837   2.265  -0.233  0.00  0.00    +0.016 A 
ATOM      7  C   UNL     1      -4.928   3.047   0.443  0.00  0.00    +0.018 A 
ATOM      8  C   UNL     1      -3.923   2.445   1.208  0.00  0.00    +0.086 A 
ATOM      9 BR   UNL     1      -7.017  -0.177  -1.101  0.00  0.00    -0.050 Br
BRANCH   8  10
ATOM     10  C   UNL     1      -2.952   3.274   1.937  0.00  0.00    +0.388 C 
ATOM     11  O   UNL     1      -3.025   4.494   1.881  0.00  0.00    -0.241 OA
ATOM     12  O   UNL     1      -2.071   2.744   2.601  0.00  0.00    -0.241 OA
ENDBRANCH   8  10
ENDBRANCH   1   3
BRANCH   1  13
ATOM     13  S   UNL     1      -2.165  -0.981   1.496  0.00  0.00    +0.112 S 
ATOM     14  O   UNL     1      -3.235  -1.885   1.257  0.00  0.00    -0.138 OA
ATOM     15  O   UNL     1      -1.104  -1.276   2.393  0.00  0.00    -0.138 OA
BRANCH  13  16
ATOM     16  N   UNL     1      -1.470  -0.672   0.025  0.00  0.00    -0.164 NA
BRANCH  16  18
ATOM     17  C   UNL     1      -0.034   1.303  -0.116  0.00  0.00    +0.022 C 
ATOM     18  C   UNL     1      -0.077  -0.225  -0.047  0.00  0.00    +0.107 C 
ENDBRANCH  16  18
BRANCH  16  19
ATOM     19  C   UNL     1      -2.248  -0.845  -1.204  0.00  0.00    +0.107 C 
ATOM     20  C   UNL     1      -1.985  -2.238  -1.782  0.00  0.00    +0.022 C 
ENDBRANCH  16  19
ENDBRANCH  13  16
ENDBRANCH   1  13
TORSDOF 6
