REMARK  Name = ZINC50006685
REMARK  7 active torsions:
REMARK  status: ('A' for Active; 'I' for Inactive)
REMARK    1  A    between atoms: C_1  and  C_2
REMARK    2  A    between atoms: C_5  and  C_7
REMARK    3  A    between atoms: N_13  and  C_14
REMARK    4  A    between atoms: C_14  and  C_16
REMARK    5  A    between atoms: C_16  and  C_17
REMARK    6  A    between atoms: C_18  and  C_27
REMARK    7  A    between atoms: C_20  and  C_22
REMARK                            x       y       z     vdW  Elec       q    Type
REMARK                         _______ _______ _______ _____ _____    ______ ____
ROOT
ATOM      1  C   UNL     1       1.037  -4.029  -0.024  0.00  0.00    +0.167 A 
ATOM      2  N   UNL     1       2.371  -4.381  -0.026  0.00  0.00    -0.309 N 
ATOM      3  H   UNL     1       3.122  -3.767  -0.022  0.00  0.00    +0.170 HD
ATOM      4  C   UNL     1       2.450  -5.739  -0.036  0.00  0.00    +0.216 A 
ATOM      5  N   UNL     1       1.188  -6.218  -0.039  0.00  0.00    -0.246 N 
ATOM      6  N   UNL     1       0.318  -5.120  -0.027  0.00  0.00    -0.152 NA
ATOM      7  N   UNL     1       3.570  -6.464  -0.041  0.00  0.00    -0.145 NA
ATOM      8  H   UNL     1       0.930  -7.153  -0.046  0.00  0.00    +0.192 HD
ENDROOT
BRANCH   1  13
ATOM      9  C   UNL     1      -0.018   1.503   0.010  0.00  0.00    +0.051 C 
ATOM     10  C   UNL     1       0.002  -0.004   0.002  0.00  0.00    -0.013 A 
ATOM     11  C   UNL     1      -1.043  -0.872   0.002  0.00  0.00    +0.011 A 
ATOM     12  C   UNL     1      -0.791  -2.225  -0.007  0.00  0.00    +0.019 A 
ATOM     13  C   UNL     1       0.512  -2.653  -0.015  0.00  0.00    +0.056 A 
ATOM     14  S   UNL     1       1.406  -1.107  -0.018  0.00  0.00    -0.090 S 
ENDBRANCH   1  13
BRANCH   7  15
ATOM     15  C   UNL     1       4.752  -5.861  -0.037  0.00  0.00    +0.245 C 
ATOM     16  O   UNL     1       4.814  -4.646  -0.029  0.00  0.00    -0.273 OA
BRANCH  15  17
ATOM     17  C   UNL     1       6.016  -6.680  -0.043  0.00  0.00    +0.157 C 
BRANCH  17  18
ATOM     18  C   UNL     1       7.210  -5.761  -0.036  0.00  0.00    +0.092 A 
ATOM     19  C   UNL     1       7.834  -5.266  -1.120  0.00  0.00    +0.126 A 
ATOM     20  O   UNL     1       8.848  -4.492  -0.682  0.00  0.00    -0.440 OA
ATOM     21  C   UNL     1       8.833  -4.521   0.663  0.00  0.00    +0.234 A 
ATOM     22  N   UNL     1       7.836  -5.286   1.052  0.00  0.00    -0.213 NA
ATOM     23  C   UNL     1       7.469  -5.530  -2.558  0.00  0.00    +0.088 C 
BRANCH  21  24
ATOM     24  C   UNL     1       9.769  -3.813   1.548  0.00  0.00    +0.074 A 
ATOM     25  C   UNL     1      10.826  -2.986   1.216  0.00  0.00    +0.021 A 
ATOM     26  C   UNL     1      11.567  -2.431   2.234  0.00  0.00    +0.008 A 
ATOM     27  C   UNL     1      11.239  -2.709   3.523  0.00  0.00    +0.046 A 
ATOM     28  S   UNL     1       9.831  -3.788   3.332  0.00  0.00    -0.092 S 
ENDBRANCH  21  24
ENDBRANCH  17  18
ENDBRANCH  15  17
ENDBRANCH   7  15
TORSDOF 5
