REMARK  Name = ZINC39450695
REMARK  2 active torsions:
REMARK  status: ('A' for Active; 'I' for Inactive)
REMARK    1  A    between atoms: C_4  and  S_7
REMARK    2  A    between atoms: S_7  and  C_10
REMARK                            x       y       z     vdW  Elec       q    Type
REMARK                         _______ _______ _______ _____ _____    ______ ____
ROOT
ATOM      1  C   UNL     1       4.406  -1.094   1.637  0.00  0.00    +0.112 A 
ATOM      2  C   UNL     1       5.172  -0.151   2.300  0.00  0.00    +0.044 A 
ATOM      3  C   UNL     1       5.519  -0.406   3.627  0.00  0.00    +0.072 A 
ATOM      4  C   UNL     1       5.081  -1.602   4.237  0.00  0.00    +0.099 A 
ATOM      5  C   UNL     1       5.459  -1.847   5.636  0.00  0.00    +0.086 A 
ATOM      6  C   UNL     1       6.226  -0.916   6.312  0.00  0.00    +0.154 A 
ATOM      7  N   UNL     1       6.642   0.254   5.689  0.00  0.00    -0.088 N 
ATOM      8  C   UNL     1       6.328   0.536   4.412  0.00  0.00    +0.297 A 
ATOM      9  O   UNL     1       6.715   1.574   3.906  0.00  0.00    -0.264 OA
ATOM     10  O   UNL     1       7.422   1.179   6.424  0.00  0.00    -0.160 OA
ATOM     11  C   UNL     1       6.600  -1.157   7.655  0.00  0.00    +0.189 C 
ATOM     12  O   UNL     1       7.232  -0.316   8.262  0.00  0.00    -0.290 OA
ATOM     13  C   UNL     1       6.221  -2.444   8.338  0.00  0.00    +0.138 C 
ATOM     14  C   UNL     1       4.910  -2.969   7.742  0.00  0.00    +0.259 C 
ATOM     15  N   UNL     1       5.049  -2.999   6.278  0.00  0.00    -0.311 N 
ATOM     16  F   UNL     1       3.856  -2.120   8.100  0.00  0.00    -0.224 F 
ATOM     17  N   UNL     1       4.349  -2.471   3.552  0.00  0.00    -0.251 NA
ATOM     18  C   UNL     1       4.007  -2.245   2.302  0.00  0.00    +0.138 A 
ATOM     19  H   UNL     1       4.857  -3.807   5.777  0.00  0.00    +0.149 HD
ENDROOT
BRANCH   1  20
ATOM     20  S   UNL     1       3.934  -0.832  -0.041  0.00  0.00    +0.027 S 
ATOM     21  O   UNL     1       3.674  -2.114  -0.595  0.00  0.00    -0.164 OA
ATOM     22  O   UNL     1       4.890   0.060  -0.597  0.00  0.00    -0.164 OA
BRANCH  20  26
ATOM     23  C   UNL     1      -0.017   1.378   0.010  0.00  0.00    +0.000 A 
ATOM     24  C   UNL     1       1.171   2.086   0.002  0.00  0.00    +0.002 A 
ATOM     25  C   UNL     1       2.377   1.411  -0.013  0.00  0.00    +0.027 A 
ATOM     26  C   UNL     1       2.396   0.029  -0.020  0.00  0.00    +0.094 A 
ATOM     27  C   UNL     1       1.208  -0.679  -0.012  0.00  0.00    +0.027 A 
ATOM     28  C   UNL     1       0.002  -0.004   0.002  0.00  0.00    +0.002 A 
ENDBRANCH  20  26
ENDBRANCH   1  20
TORSDOF 2
