REMARK  Name = ZINC64541550
REMARK  5 active torsions:
REMARK  status: ('A' for Active; 'I' for Inactive)
REMARK    1  A    between atoms: C_1  and  O_2
REMARK    2  A    between atoms: O_2  and  C_3
REMARK    3  A    between atoms: C_8  and  C_9
REMARK    4  A    between atoms: C_12  and  C_15
REMARK    5  A    between atoms: C_21  and  C_23
REMARK                            x       y       z     vdW  Elec       q    Type
REMARK                         _______ _______ _______ _____ _____    ______ ____
ROOT
ATOM      1  C   UNL     1       0.874  -6.463  -0.415  0.00  0.00    +0.059 C 
ATOM      2  C   UNL     1      -0.298  -7.138  -1.131  0.00  0.00    +0.030 C 
ATOM      3  C   UNL     1      -0.140  -8.659  -1.038  0.00  0.00    +0.108 C 
ATOM      4  N   UNL     1       1.181  -9.030  -1.563  0.00  0.00    -0.299 N 
ATOM      5  C   UNL     1       2.372  -8.373  -1.007  0.00  0.00    +0.108 C 
ATOM      6  C   UNL     1       2.186  -6.855  -1.100  0.00  0.00    +0.030 C 
ATOM      7  C   UNL     1       1.299  -9.956  -2.536  0.00  0.00    +0.242 C 
ATOM      8  O   UNL     1       0.308 -10.492  -2.986  0.00  0.00    -0.273 OA
ENDROOT
BRANCH   7   9
ATOM      9  C   UNL     1       2.661 -10.325  -3.063  0.00  0.00    +0.190 C 
ATOM     10  C   UNL     1       3.317  -9.121  -3.702  0.00  0.00    +0.016 C 
ATOM     11  C   UNL     1       3.525  -9.451  -4.997  0.00  0.00    -0.002 A 
ATOM     12  C   UNL     1       4.117  -8.723  -6.126  0.00  0.00    +0.029 A 
ATOM     13  C   UNL     1       4.190  -9.331  -7.333  0.00  0.00    +0.042 A 
ATOM     14  C   UNL     1       3.715 -10.635  -7.532  0.00  0.00    +0.022 A 
ATOM     15  C   UNL     1       3.158 -11.367  -6.543  0.00  0.00    +0.027 A 
ATOM     16  C   UNL     1       3.031 -10.827  -5.233  0.00  0.00    +0.043 A 
ATOM     17  N   UNL     1       2.537 -11.329  -4.126  0.00  0.00    -0.370 N 
ATOM     18 CL   UNL     1       4.889  -8.473  -8.670  0.00  0.00    -0.084 Cl
ATOM     19  H   UNL     1       2.153 -12.214  -4.027  0.00  0.00    +0.161 HD
ENDBRANCH   7   9
BRANCH   1  22
ATOM     20  C   UNL     1       0.052  -2.828   0.005  0.00  0.00    +0.326 C 
ATOM     21  N   UNL     1      -0.047  -4.238   0.417  0.00  0.00    -0.289 N 
ATOM     22  C   UNL     1       0.704  -4.967  -0.474  0.00  0.00    +0.141 C 
ATOM     23  N   UNL     1       1.243  -4.214  -1.363  0.00  0.00    -0.071 NA
ATOM     24  O   UNL     1       0.897  -2.854  -1.156  0.00  0.00    -0.365 OA
ATOM     25  H   UNL     1      -0.546  -4.586   1.173  0.00  0.00    +0.151 HD
BRANCH  20  31
ATOM     26  C   UNL     1       0.626  -0.618   1.042  0.00  0.00    +0.128 A 
ATOM     27  C   UNL     1       1.202   0.139   2.051  0.00  0.00    +0.046 A 
ATOM     28  C   UNL     1       1.835  -0.488   3.107  0.00  0.00    +0.004 A 
ATOM     29  C   UNL     1       1.895  -1.869   3.158  0.00  0.00    +0.001 A 
ATOM     30  C   UNL     1       1.321  -2.625   2.153  0.00  0.00    +0.012 A 
ATOM     31  C   UNL     1       0.682  -2.003   1.097  0.00  0.00    +0.055 A 
BRANCH  26  33
ATOM     32  C   UNL     1      -0.017   1.425   0.010  0.00  0.00    +0.277 C 
ATOM     33  O   UNL     1       0.002  -0.004   0.002  0.00  0.00    -0.495 OA
ENDBRANCH  26  33
ENDBRANCH  20  31
ENDBRANCH   1  22
TORSDOF 4
