REMARK  Name = ZINC33069471
REMARK  10 active torsions:
REMARK  status: ('A' for Active; 'I' for Inactive)
REMARK    1  A    between atoms: C_1  and  C_2
REMARK    2  A    between atoms: C_6  and  C_8
REMARK    3  A    between atoms: C_8  and  C_9
REMARK    4  A    between atoms: C_9  and  N_10
REMARK    5  A    between atoms: C_11  and  C_13
REMARK    6  A    between atoms: N_16  and  C_19
REMARK    7  A    between atoms: C_20  and  N_32
REMARK    8  A    between atoms: C_21  and  C_31
REMARK    9  A    between atoms: N_23  and  C_24
REMARK   10  A    between atoms: C_33  and  C_35
REMARK                            x       y       z     vdW  Elec       q    Type
REMARK                         _______ _______ _______ _____ _____    ______ ____
ROOT
ATOM      1  C   UNL     1      -6.638   1.551   4.312  0.00  0.00    +0.078 C 
ATOM      2  C   UNL     1      -5.870   2.720   3.690  0.00  0.00    +0.031 C 
ATOM      3  C   UNL     1      -5.351   2.307   2.311  0.00  0.00    +0.107 C 
ATOM      4  N   UNL     1      -4.473   1.138   2.447  0.00  0.00    -0.314 N 
ATOM      5  C   UNL     1      -5.201  -0.012   2.999  0.00  0.00    +0.107 C 
ATOM      6  C   UNL     1      -5.715   0.332   4.398  0.00  0.00    +0.031 C 
ENDROOT
BRANCH   4   7
ATOM      7  C   UNL     1      -3.878   0.815   1.228  0.00  0.00    +0.147 A 
ATOM      8  C   UNL     1      -2.539   0.688   0.990  0.00  0.00    +0.097 A 
ATOM      9  C   UNL     1      -2.375   0.361  -0.362  0.00  0.00    +0.083 A 
ATOM     10  N   UNL     1      -3.558   0.283  -0.918  0.00  0.00    -0.168 NA
ATOM     11  N   UNL     1      -4.525   0.567   0.055  0.00  0.00    -0.216 N 
ATOM     12  C   UNL     1      -1.058   0.134  -1.060  0.00  0.00    +0.069 C 
BRANCH  11  13
ATOM     13  C   UNL     1      -5.913   0.592  -0.144  0.00  0.00    +0.068 A 
ATOM     14  C   UNL     1      -6.680  -0.522   0.169  0.00  0.00    +0.029 A 
ATOM     15  C   UNL     1      -8.047  -0.494  -0.023  0.00  0.00    +0.022 A 
ATOM     16  C   UNL     1      -8.652   0.640  -0.536  0.00  0.00    +0.041 A 
ATOM     17  C   UNL     1      -7.889   1.750  -0.853  0.00  0.00    +0.022 A 
ATOM     18  C   UNL     1      -6.522   1.729  -0.658  0.00  0.00    +0.029 A 
ATOM     19 CL   UNL     1     -10.370   0.670  -0.782  0.00  0.00    -0.084 Cl
ENDBRANCH  11  13
BRANCH   8  20
ATOM     20  N   UNL     1      -1.506   0.861   1.935  0.00  0.00    -0.282 N 
ATOM     21  C   UNL     1      -1.395   2.024   2.606  0.00  0.00    +0.214 C 
ATOM     22  O   UNL     1      -2.129   2.952   2.338  0.00  0.00    -0.276 OA
ATOM     23  C   UNL     1      -0.363   2.171   3.695  0.00  0.00    +0.109 C 
ATOM     24  H   UNL     1      -0.792   0.046   2.125  0.00  0.00    +0.155 HD
ENDBRANCH   8  20
ENDBRANCH   4   7
BRANCH   1  26
ATOM     25  N   UNL     1      -7.804   1.051   6.436  0.00  0.00    -0.315 N 
ATOM     26  C   UNL     1      -7.102   1.931   5.694  0.00  0.00    +0.216 C 
ATOM     27  O   UNL     1      -6.844   3.030   6.140  0.00  0.00    -0.276 OA
ATOM     28  H   UNL     1      -8.038   0.055   6.032  0.00  0.00    +0.149 HD
BRANCH  25  29
ATOM     29  C   UNL     1      -8.255   1.421   7.780  0.00  0.00    +0.109 C 
BRANCH  29  30
ATOM     30  C   UNL     1      -9.022   0.252   8.400  0.00  0.00    +0.054 C 
BRANCH  30  36
ATOM     31  C   UNL     1     -12.489   2.238  11.415  0.00  0.00    +0.044 C 
ATOM     32  C   UNL     1     -11.145   1.583  11.225  0.00  0.00    -0.050 A 
ATOM     33  C   UNL     1     -10.338   1.330  12.319  0.00  0.00    +0.003 A 
ATOM     34  C   UNL     1      -9.105   0.729  12.144  0.00  0.00    +0.001 A 
ATOM     35  C   UNL     1      -8.682   0.376  10.877  0.00  0.00    +0.004 A 
ATOM     36  C   UNL     1      -9.486   0.633   9.783  0.00  0.00    -0.046 A 
ATOM     37  C   UNL     1     -10.719   1.233   9.957  0.00  0.00    +0.007 A 
ENDBRANCH  30  36
ENDBRANCH  29  30
ENDBRANCH  25  29
ENDBRANCH   1  26
TORSDOF 7
