REMARK  Name = ZINC13707650
REMARK  9 active torsions:
REMARK  status: ('A' for Active; 'I' for Inactive)
REMARK    1  A    between atoms: C_1  and  C_2
REMARK    2  A    between atoms: C_9  and  C_28
REMARK    3  A    between atoms: C_10  and  N_13
REMARK    4  A    between atoms: C_14  and  C_16
REMARK    5  A    between atoms: C_16  and  C_18
REMARK    6  A    between atoms: C_16  and  O_19
REMARK    7  A    between atoms: O_19  and  C_20
REMARK    8  A    between atoms: C_23  and  C_27
REMARK    9  A    between atoms: C_24  and  C_26
REMARK                            x       y       z     vdW  Elec       q    Type
REMARK                         _______ _______ _______ _____ _____    ______ ____
ROOT
ATOM      1  N   UNL     1      -2.640   3.515   6.895  0.00  0.00    -0.277 N 
ATOM      2  C   UNL     1      -3.941   3.866   6.873  0.00  0.00    +0.258 C 
ATOM      3  O   UNL     1      -4.590   3.725   5.858  0.00  0.00    -0.271 OA
ATOM      4  H   UNL     1      -2.139   3.561   7.725  0.00  0.00    +0.155 HD
ENDROOT
BRANCH   1  14
ATOM      5  C   UNL     1       0.584   2.087  -0.067  0.00  0.00    +0.044 C 
ATOM      6  C   UNL     1      -0.097   2.563   1.190  0.00  0.00    -0.046 A 
ATOM      7  C   UNL     1      -0.684   3.836   1.236  0.00  0.00    +0.021 A 
ATOM      8  C   UNL     1      -1.298   4.261   2.362  0.00  0.00    +0.096 A 
ATOM      9  N   UNL     1      -1.349   3.467   3.470  0.00  0.00    -0.267 N 
ATOM     10  C   UNL     1      -0.782   2.223   3.457  0.00  0.00    +0.141 A 
ATOM     11  C   UNL     1      -0.142   1.762   2.291  0.00  0.00    +0.050 A 
ATOM     12  N   UNL     1      -0.826   1.440   4.533  0.00  0.00    -0.232 NA
ATOM     13  C   UNL     1      -1.417   1.834   5.650  0.00  0.00    +0.067 A 
ATOM     14  C   UNL     1      -2.009   3.085   5.717  0.00  0.00    +0.120 A 
ATOM     15  C   UNL     1      -1.965   3.916   4.585  0.00  0.00    +0.280 A 
ATOM     16  O   UNL     1      -2.476   5.025   4.608  0.00  0.00    -0.265 OA
ATOM     17  C   UNL     1      -1.448   0.921   6.849  0.00  0.00    +0.068 C 
ENDBRANCH   1  14
BRANCH   2  18
ATOM     18  C   UNL     1      -4.590   4.432   8.110  0.00  0.00    +0.256 C 
ATOM     19  C   UNL     1      -3.950   5.780   8.450  0.00  0.00    +0.062 C 
BRANCH  18  20
ATOM     20  O   UNL     1      -5.987   4.614   7.874  0.00  0.00    -0.480 OA
BRANCH  20  21
ATOM     21  C   UNL     1      -6.801   4.622   8.962  0.00  0.00    +0.122 A 
ATOM     22  C   UNL     1      -8.162   4.848   8.811  0.00  0.00    +0.046 A 
ATOM     23  C   UNL     1      -8.987   4.855   9.918  0.00  0.00    +0.007 A 
ATOM     24  C   UNL     1      -8.458   4.638  11.178  0.00  0.00    -0.047 A 
ATOM     25  C   UNL     1      -7.103   4.413  11.331  0.00  0.00    -0.044 A 
ATOM     26  C   UNL     1      -6.274   4.399  10.226  0.00  0.00    +0.049 A 
ATOM     27  C   UNL     1      -6.529   4.176  12.705  0.00  0.00    +0.044 C 
ATOM     28  C   UNL     1      -9.360   4.646  12.384  0.00  0.00    +0.044 C 
ENDBRANCH  20  21
ENDBRANCH  18  20
ENDBRANCH   2  18
TORSDOF 4
