REMARK  Name = ZINC60347425
REMARK  4 active torsions:
REMARK  status: ('A' for Active; 'I' for Inactive)
REMARK    1  A    between atoms: C_1  and  N_2
REMARK    2  A    between atoms: C_6  and  S_7
REMARK    3  A    between atoms: S_7  and  C_8
REMARK    4  A    between atoms: C_11  and  C_14
REMARK                            x       y       z     vdW  Elec       q    Type
REMARK                         _______ _______ _______ _____ _____    ______ ____
ROOT
ATOM      1  C   UNL     1      -0.014  -1.768   3.745  0.00  0.00    +0.123 A 
ATOM      2  C   UNL     1      -0.201  -1.758   5.128  0.00  0.00    +0.074 A 
ATOM      3  C   UNL     1      -0.158  -2.939   5.819  0.00  0.00    +0.037 A 
ATOM      4  C   UNL     1       0.075  -4.125   5.105  0.00  0.00    +0.057 A 
ATOM      5  C   UNL     1       0.253  -4.059   3.722  0.00  0.00    +0.125 A 
ATOM      6  N   UNL     1       0.199  -2.903   3.094  0.00  0.00    -0.246 NA
ATOM      7 CL   UNL     1      -0.485  -0.263   5.963  0.00  0.00    -0.081 Cl
ENDROOT
BRANCH   4   8
ATOM      8  C   UNL     1       0.131  -5.421   5.806  0.00  0.00    +0.253 C 
ATOM      9  O   UNL     1      -0.435  -6.391   5.337  0.00  0.00    -0.270 OA
ATOM     10  N   UNL     1       0.808  -5.532   6.965  0.00  0.00    -0.257 N 
ATOM     11  C   UNL     1       1.435  -4.359   7.593  0.00  0.00    +0.210 C 
ATOM     12  C   UNL     1       2.796  -4.747   8.110  0.00  0.00    +0.235 C 
ATOM     13  O   UNL     1       3.673  -3.910   8.174  0.00  0.00    -0.274 OA
ATOM     14  N   UNL     1       3.052  -6.009   8.501  0.00  0.00    -0.283 N 
ATOM     15  C   UNL     1       2.074  -7.004   8.391  0.00  0.00    +0.055 A 
ATOM     16  C   UNL     1       0.934  -6.769   7.615  0.00  0.00    +0.058 A 
ATOM     17  C   UNL     1      -0.042  -7.742   7.495  0.00  0.00    +0.025 A 
ATOM     18  C   UNL     1       0.109  -8.950   8.152  0.00  0.00    +0.002 A 
ATOM     19  C   UNL     1       1.230  -9.185   8.926  0.00  0.00    +0.002 A 
ATOM     20  C   UNL     1       2.220  -8.217   9.044  0.00  0.00    +0.025 A 
ATOM     21  H   UNL     1       3.924  -6.232   8.863  0.00  0.00    +0.155 HD
ENDBRANCH   4   8
BRANCH   1  22
ATOM     22  S   UNL     1      -0.069  -0.251   2.850  0.00  0.00    -0.031 S 
BRANCH  22  28
ATOM     23  C   UNL     1       0.081   1.560   0.128  0.00  0.00    +0.151 C 
ATOM     24  N   UNL     1       0.248   0.105   0.105  0.00  0.00    -0.328 N 
ATOM     25  C   UNL     1       0.486  -0.674  -1.003  0.00  0.00    +0.107 A 
ATOM     26  C   UNL     1       0.573  -1.946  -0.578  0.00  0.00    +0.131 A 
ATOM     27  N   UNL     1       0.394  -1.960   0.753  0.00  0.00    -0.230 NA
ATOM     28  C   UNL     1       0.203  -0.732   1.177  0.00  0.00    +0.175 A 
ENDBRANCH  22  28
ENDBRANCH   1  22
TORSDOF 3
