REMARK  Name = ZINC39531959
REMARK  10 active torsions:
REMARK  status: ('A' for Active; 'I' for Inactive)
REMARK    1  A    between atoms: C_1  and  C_2
REMARK    2  A    between atoms: C_5  and  C_8
REMARK    3  A    between atoms: C_8  and  C_10
REMARK    4  A    between atoms: C_8  and  N_19
REMARK    5  A    between atoms: C_10  and  N_11
REMARK    6  A    between atoms: N_11  and  C_12
REMARK    7  A    between atoms: C_12  and  C_13
REMARK    8  A    between atoms: C_23  and  S_26
REMARK    9  A    between atoms: S_26  and  O_29
REMARK   10  A    between atoms: O_29  and  C_30
REMARK                            x       y       z     vdW  Elec       q    Type
REMARK                         _______ _______ _______ _____ _____    ______ ____
ROOT
ATOM      1  C   UNL     1       0.059  -4.275  -0.021  0.00  0.00    +0.070 C 
ENDROOT
BRANCH   1   2
ATOM      2  N   UNL     1       1.050  -4.758   0.950  0.00  0.00    -0.299 NA
ATOM      3  C   UNL     1       0.678  -4.372   2.318  0.00  0.00    +0.066 C 
ATOM      4  C   UNL     1       1.701  -4.943   3.302  0.00  0.00    -0.064 C 
ATOM      5  N   UNL     1       3.036  -4.425   2.976  0.00  0.00    +0.398 N 
ATOM      6  C   UNL     1       3.405  -4.839   1.616  0.00  0.00    +0.130 C 
ATOM      7  C   UNL     1       2.396  -4.267   0.618  0.00  0.00    +0.095 C 
ATOM      8  H   UNL     1       3.028  -3.418   3.031  0.00  0.00    -0.083 HD
ATOM      9  H   UNL     1       3.709  -4.792   3.633  0.00  0.00    -0.083 HD
BRANCH   6  10
ATOM     10  S   UNL     1       5.063  -4.216   1.223  0.00  0.00    +0.109 S 
ATOM     11  O   UNL     1       5.507  -4.755  -0.015  0.00  0.00    -0.138 OA
ATOM     12  O   UNL     1       5.133  -2.819   1.472  0.00  0.00    -0.138 OA
BRANCH  10  13
ATOM     13  O   UNL     1       5.974  -4.844   2.268  0.00  0.00    -0.347 OA
BRANCH  13  14
ATOM     14  C   UNL     1       6.234  -6.161   2.057  0.00  0.00    +0.156 A 
ATOM     15  C   UNL     1       5.404  -7.129   2.603  0.00  0.00    +0.048 A 
ATOM     16  C   UNL     1       5.670  -8.467   2.385  0.00  0.00    +0.004 A 
ATOM     17  C   UNL     1       6.762  -8.842   1.625  0.00  0.00    +0.000 A 
ATOM     18  C   UNL     1       7.591  -7.878   1.080  0.00  0.00    +0.004 A 
ATOM     19  C   UNL     1       7.326  -6.539   1.289  0.00  0.00    +0.048 A 
ENDBRANCH  13  14
ENDBRANCH  10  13
ENDBRANCH   6  10
ENDBRANCH   1   2
BRANCH   1  24
ATOM     20  C   UNL     1      -0.392   1.471   0.384  0.00  0.00    +0.044 C 
ATOM     21  C   UNL     1      -0.275  -0.027   0.278  0.00  0.00    -0.050 A 
ATOM     22  C   UNL     1      -0.775  -0.833   1.284  0.00  0.00    +0.003 A 
ATOM     23  C   UNL     1      -0.667  -2.207   1.187  0.00  0.00    +0.005 A 
ATOM     24  C   UNL     1      -0.059  -2.777   0.084  0.00  0.00    -0.032 A 
ATOM     25  C   UNL     1       0.440  -1.971  -0.923  0.00  0.00    +0.005 A 
ATOM     26  C   UNL     1       0.329  -0.597  -0.828  0.00  0.00    +0.003 A 
ENDBRANCH   1  24
BRANCH   1  27
ATOM     27  C   UNL     1      -1.298  -4.916   0.274  0.00  0.00    -0.058 C 
BRANCH  27  28
ATOM     28  N   UNL     1      -1.156  -6.378   0.289  0.00  0.00    +0.383 N 
ATOM     29  H   UNL     1      -0.824  -6.694  -0.610  0.00  0.00    -0.085 HD
ATOM     30  H   UNL     1      -0.496  -6.645   1.004  0.00  0.00    -0.085 HD
BRANCH  28  31
ATOM     31  C   UNL     1      -2.460  -6.994   0.573  0.00  0.00    -0.047 C 
BRANCH  31  32
ATOM     32  C   UNL     1      -2.314  -8.494   0.589  0.00  0.00    -0.064 A 
ATOM     33  C   UNL     1      -2.480  -9.216  -0.578  0.00  0.00    +0.002 A 
ATOM     34  C   UNL     1      -2.347 -10.592  -0.564  0.00  0.00    +0.000 A 
ATOM     35  C   UNL     1      -2.047 -11.245   0.617  0.00  0.00    +0.000 A 
ATOM     36  C   UNL     1      -1.880 -10.522   1.784  0.00  0.00    +0.000 A 
ATOM     37  C   UNL     1      -2.009  -9.146   1.768  0.00  0.00    +0.002 A 
ENDBRANCH  31  32
ENDBRANCH  28  31
ENDBRANCH  27  28
ENDBRANCH   1  27
TORSDOF 9
