REMARK  Name = ZINC03409047
REMARK  3 active torsions:
REMARK  status: ('A' for Active; 'I' for Inactive)
REMARK    1  A    between atoms: C_9  and  C_12
REMARK    2  A    between atoms: N_14  and  N_15
REMARK    3  A    between atoms: C_16  and  C_18
REMARK                            x       y       z     vdW  Elec       q    Type
REMARK                         _______ _______ _______ _____ _____    ______ ____
ROOT
ATOM      1  C   UNL     1       8.673  -2.883  -1.939  0.00  0.00    +0.273 C 
ATOM      2  O   UNL     1       8.998  -1.717  -1.871  0.00  0.00    -0.270 OA
ATOM      3  N   UNL     1       7.369  -3.222  -1.906  0.00  0.00    -0.231 N 
ATOM      4  H   UNL     1       7.109  -4.155  -1.960  0.00  0.00    +0.173 HD
ENDROOT
BRANCH   1  13
ATOM      5  C   UNL     1      14.249  -5.681  -3.107  0.00  0.00    +0.004 A 
ATOM      6  C   UNL     1      14.443  -4.556  -2.329  0.00  0.00    +0.004 A 
ATOM      7  C   UNL     1      13.363  -3.784  -1.945  0.00  0.00    +0.049 A 
ATOM      8  C   UNL     1      12.081  -4.136  -2.341  0.00  0.00    +0.163 A 
ATOM      9  C   UNL     1      11.886  -5.269  -3.121  0.00  0.00    +0.162 A 
ATOM     10  C   UNL     1      12.975  -6.040  -3.503  0.00  0.00    +0.049 A 
ATOM     11  O   UNL     1      10.637  -5.636  -3.517  0.00  0.00    -0.484 OA
ATOM     12  C   UNL     1       9.615  -4.637  -3.430  0.00  0.00    +0.283 C 
ATOM     13  C   UNL     1       9.727  -3.954  -2.061  0.00  0.00    +0.297 C 
ATOM     14  O   UNL     1      11.028  -3.364  -1.958  0.00  0.00    -0.472 OA
ENDBRANCH   1  13
BRANCH   3  15
ATOM     15  N   UNL     1       6.389  -2.227  -1.793  0.00  0.00    -0.230 N 
ATOM     16  C   UNL     1       5.085  -2.566  -1.760  0.00  0.00    +0.267 C 
ATOM     17  O   UNL     1       4.759  -3.736  -1.828  0.00  0.00    -0.268 OA
ATOM     18  H   UNL     1       6.649  -1.294  -1.739  0.00  0.00    +0.173 HD
BRANCH  16  19
ATOM     19  C   UNL     1       4.060  -1.525  -1.642  0.00  0.00    +0.076 A 
ATOM     20  C   UNL     1       2.684  -1.656  -1.591  0.00  0.00    +0.024 A 
ATOM     21  C   UNL     1       1.918  -0.501  -1.472  0.00  0.00    -0.036 A 
ATOM     22  C   UNL     1       2.596   0.669  -1.443  0.00  0.00    -0.006 A 
ATOM     23  S   UNL     1       4.260   0.246  -1.526  0.00  0.00    -0.088 S 
ATOM     24  C   UNL     1       1.990   2.054  -1.378  0.00  0.00    +0.043 C 
ATOM     25  C   UNL     1       1.324   2.194   0.001  0.00  0.00    +0.005 C 
ATOM     26  C   UNL     1      -0.018   1.503   0.010  0.00  0.00    +0.001 C 
ATOM     27  C   UNL     1       0.002  -0.004   0.002  0.00  0.00    +0.005 C 
ATOM     28  C   UNL     1       0.391  -0.563  -1.368  0.00  0.00    +0.036 C 
ENDBRANCH  16  19
ENDBRANCH   3  15
TORSDOF 3
