REMARK  Name = ZINC39465419
REMARK  3 active torsions:
REMARK  status: ('A' for Active; 'I' for Inactive)
REMARK    1  A    between atoms: C_1  and  C_2
REMARK    2  A    between atoms: C_2  and  O_3
REMARK    3  A    between atoms: O_3  and  C_4
REMARK                            x       y       z     vdW  Elec       q    Type
REMARK                         _______ _______ _______ _____ _____    ______ ____
ROOT
ATOM      1  C   UNL     1       0.777  -1.810  -1.336  0.00  0.00    +0.135 A 
ATOM      2  C   UNL     1       0.244  -2.669  -0.389  0.00  0.00    +0.052 A 
ATOM      3  C   UNL     1       0.348  -4.042  -0.549  0.00  0.00    -0.020 A 
ATOM      4  C   UNL     1       0.987  -4.553  -1.659  0.00  0.00    -0.040 A 
ATOM      5  C   UNL     1       1.521  -3.696  -2.610  0.00  0.00    +0.023 A 
ATOM      6  C   UNL     1       1.414  -2.329  -2.455  0.00  0.00    +0.060 A 
ATOM      7 BR   UNL     1       2.139  -1.166  -3.758  0.00  0.00    -0.047 Br
ATOM      8  C   UNL     1       1.125  -6.039  -1.872  0.00  0.00    +0.052 C 
ATOM      9  C   UNL     1       0.107  -6.780  -1.005  0.00  0.00    +0.108 C 
ATOM     10  N   UNL     1       0.233  -6.306   0.382  0.00  0.00    -0.224 NA
ATOM     11  C   UNL     1      -0.250  -4.931   0.510  0.00  0.00    +0.130 C 
ATOM     12  C   UNL     1       0.084  -4.357   1.890  0.00  0.00    +0.196 C 
ATOM     13  O   UNL     1      -0.589  -5.144   2.892  0.00  0.00    -0.292 OA
ATOM     14  P   UNL     1      -0.434  -6.762   2.834  0.00  0.00    +0.448 P 
ATOM     15  O   UNL     1      -1.620  -7.438   3.558  0.00  0.00    -0.236 OA
ATOM     16  N   UNL     1      -0.448  -7.153   1.228  0.00  0.00    -0.154 NA
ATOM     17  O   UNL     1       0.901  -7.194   3.480  0.00  0.00    -0.126 OA
ATOM     18  H   UNL     1      -0.912  -7.938   0.898  0.00  0.00    +0.153 HD
ENDROOT
BRANCH   1  19
ATOM     19  O   UNL     1       0.671  -0.465  -1.174  0.00  0.00    -0.491 OA
BRANCH  19  21
ATOM     20  C   UNL     1      -0.019   1.526   0.010  0.00  0.00    +0.048 C 
ATOM     21  C   UNL     1       0.002  -0.004   0.002  0.00  0.00    +0.226 C 
ENDBRANCH  19  21
ENDBRANCH   1  19
TORSDOF 2
