REMARK  Name = ZINC09497101
REMARK  10 active torsions:
REMARK  status: ('A' for Active; 'I' for Inactive)
REMARK    1  A    between atoms: C_1  and  C_2
REMARK    2  A    between atoms: C_2  and  C_26
REMARK    3  A    between atoms: N_5  and  C_9
REMARK    4  A    between atoms: C_9  and  C_10
REMARK    5  A    between atoms: N_12  and  C_13
REMARK    6  A    between atoms: C_13  and  C_14
REMARK    7  A    between atoms: C_13  and  C_20
REMARK    8  A    between atoms: C_26  and  C_27
REMARK    9  A    between atoms: C_32  and  O_33
REMARK   10  A    between atoms: O_33  and  C_34
REMARK                            x       y       z     vdW  Elec       q    Type
REMARK                         _______ _______ _______ _____ _____    ______ ____
ROOT
ATOM      1  C   UNL     1      -0.666  -0.558   1.262  0.00  0.00    +0.042 C 
ATOM      2  C   UNL     1       0.002  -0.004   0.002  0.00  0.00    +0.114 C 
ATOM      3  C   UNL     1       1.480  -0.340  -0.014  0.00  0.00    +0.247 C 
ATOM      4  O   UNL     1       1.980  -1.445  -0.024  0.00  0.00    -0.273 OA
ATOM      5  N   UNL     1       2.123   0.844  -0.014  0.00  0.00    -0.215 N 
ATOM      6  C   UNL     1       1.266   1.871   0.000  0.00  0.00    +0.310 C 
ATOM      7  O   UNL     1       1.608   3.037   0.003  0.00  0.00    -0.252 OA
ATOM      8  N   UNL     1      -0.018   1.469   0.010  0.00  0.00    -0.285 N 
ATOM      9  H   UNL     1      -0.803   2.038   0.017  0.00  0.00    +0.151 HD
ENDROOT
BRANCH   5  10
ATOM     10  C   UNL     1       3.581   0.989  -0.027  0.00  0.00    +0.213 C 
BRANCH  10  11
ATOM     11  C   UNL     1       4.067   1.047  -1.453  0.00  0.00    +0.232 C 
ATOM     12  O   UNL     1       3.273   0.974  -2.367  0.00  0.00    -0.274 OA
ATOM     13  N   UNL     1       5.383   1.179  -1.711  0.00  0.00    -0.303 N 
ATOM     14  H   UNL     1       6.017   1.238  -0.980  0.00  0.00    +0.150 HD
BRANCH  13  15
ATOM     15  C   UNL     1       5.855   1.235  -3.097  0.00  0.00    +0.134 C 
BRANCH  15  16
ATOM     16  C   UNL     1       7.170   1.970  -3.150  0.00  0.00    -0.023 A 
ATOM     17  C   UNL     1       8.115   1.767  -2.162  0.00  0.00    +0.006 A 
ATOM     18  C   UNL     1       9.323   2.438  -2.213  0.00  0.00    +0.000 A 
ATOM     19  C   UNL     1       9.582   3.317  -3.248  0.00  0.00    +0.000 A 
ATOM     20  C   UNL     1       8.634   3.524  -4.233  0.00  0.00    +0.000 A 
ATOM     21  C   UNL     1       7.428   2.850  -4.184  0.00  0.00    +0.006 A 
ENDBRANCH  15  16
BRANCH  15  22
ATOM     22  C   UNL     1       6.040  -0.165  -3.621  0.00  0.00    -0.023 A 
ATOM     23  C   UNL     1       6.585  -1.141  -2.808  0.00  0.00    +0.006 A 
ATOM     24  C   UNL     1       6.751  -2.427  -3.288  0.00  0.00    +0.000 A 
ATOM     25  C   UNL     1       6.381  -2.735  -4.584  0.00  0.00    +0.000 A 
ATOM     26  C   UNL     1       5.841  -1.757  -5.399  0.00  0.00    +0.000 A 
ATOM     27  C   UNL     1       5.671  -0.473  -4.918  0.00  0.00    +0.006 A 
ENDBRANCH  15  22
ENDBRANCH  13  15
ENDBRANCH  10  11
ENDBRANCH   5  10
BRANCH   2  28
ATOM     28  C   UNL     1      -0.686  -0.545  -1.253  0.00  0.00    +0.073 C 
BRANCH  28  29
ATOM     29  C   UNL     1      -2.092  -0.005  -1.327  0.00  0.00    -0.003 A 
ATOM     30  C   UNL     1      -3.145  -0.748  -0.829  0.00  0.00    +0.007 A 
ATOM     31  C   UNL     1      -4.434  -0.254  -0.897  0.00  0.00    +0.000 A 
ATOM     32  C   UNL     1      -4.673   0.985  -1.462  0.00  0.00    +0.004 A 
ATOM     33  C   UNL     1      -3.623   1.733  -1.960  0.00  0.00    +0.046 A 
ATOM     34  C   UNL     1      -2.328   1.240  -1.889  0.00  0.00    +0.123 A 
BRANCH  34  35
ATOM     35  O   UNL     1      -1.293   1.976  -2.374  0.00  0.00    -0.495 OA
ATOM     36  C   UNL     1      -1.611   3.249  -2.939  0.00  0.00    +0.277 C 
ENDBRANCH  34  35
ENDBRANCH  28  29
ENDBRANCH   2  28
TORSDOF 8
