REMARK  Name = ZINC01372086
REMARK  8 active torsions:
REMARK  status: ('A' for Active; 'I' for Inactive)
REMARK    1  A    between atoms: C_1  and  C_2
REMARK    2  A    between atoms: C_11  and  N_18
REMARK    3  A    between atoms: C_13  and  C_15
REMARK    4  A    between atoms: C_15  and  C_16
REMARK    5  A    between atoms: C_15  and  C_17
REMARK    6  A    between atoms: C_24  and  C_26
REMARK    7  A    between atoms: C_29  and  S_32
REMARK    8  A    between atoms: S_32  and  N_35
REMARK                            x       y       z     vdW  Elec       q    Type
REMARK                         _______ _______ _______ _____ _____    ______ ____
ROOT
ATOM      1  N   UNL     1       0.951  -3.175  -1.296  0.00  0.00    -0.312 N 
ATOM      2  C   UNL     1       0.538  -3.147   0.113  0.00  0.00    +0.125 C 
ATOM      3  C   UNL     1       0.684  -4.550   0.713  0.00  0.00    +0.127 C 
ATOM      4  N   UNL     1       2.058  -5.018   0.477  0.00  0.00    -0.295 N 
ATOM      5  C   UNL     1       2.592  -4.947  -0.892  0.00  0.00    +0.127 C 
ATOM      6  C   UNL     1       2.371  -3.529  -1.428  0.00  0.00    +0.125 C 
ATOM      7  C   UNL     1       2.808  -5.499   1.488  0.00  0.00    +0.247 C 
ATOM      8  O   UNL     1       2.318  -5.651   2.590  0.00  0.00    -0.270 OA
ENDROOT
BRANCH   1  18
ATOM      9  C   UNL     1      -3.539  -5.936  -5.507  0.00  0.00    +0.008 C 
ATOM     10  C   UNL     1      -2.893  -4.880  -4.608  0.00  0.00    -0.009 C 
ATOM     11  C   UNL     1      -1.495  -5.347  -4.191  0.00  0.00    +0.008 C 
ATOM     12  C   UNL     1      -0.942  -4.424  -3.104  0.00  0.00    +0.037 C 
ATOM     13  C   UNL     1      -1.037  -2.980  -3.588  0.00  0.00    -0.025 A 
ATOM     14  C   UNL     1      -1.860  -2.646  -4.602  0.00  0.00    -0.004 A 
ATOM     15  S   UNL     1      -1.650  -0.898  -4.813  0.00  0.00    -0.073 S 
ATOM     16  C   UNL     1      -0.447  -0.619  -3.540  0.00  0.00    +0.114 A 
ATOM     17  C   UNL     1      -0.253  -1.900  -2.986  0.00  0.00    +0.051 A 
ATOM     18  C   UNL     1       0.681  -1.968  -1.916  0.00  0.00    +0.133 A 
ATOM     19  N   UNL     1       1.288  -0.861  -1.520  0.00  0.00    -0.216 NA
ATOM     20  C   UNL     1       1.057   0.310  -2.087  0.00  0.00    +0.135 A 
ATOM     21  N   UNL     1       0.201   0.435  -3.083  0.00  0.00    -0.224 NA
ATOM     22  C   UNL     1      -2.761  -3.558  -5.378  0.00  0.00    +0.046 C 
BRANCH  20  23
ATOM     23  C   UNL     1       1.785   1.529  -1.583  0.00  0.00    +0.051 C 
ATOM     24  C   UNL     1       2.612   2.134  -2.719  0.00  0.00    +0.015 C 
ATOM     25  C   UNL     1       0.770   2.560  -1.086  0.00  0.00    +0.015 C 
ENDBRANCH  20  23
ENDBRANCH   1  18
BRANCH   7  26
ATOM     26  C   UNL     1       4.228  -5.842   1.257  0.00  0.00    +0.037 A 
ATOM     27  C   UNL     1       4.990  -5.099   0.354  0.00  0.00    +0.015 A 
ATOM     28  C   UNL     1       6.316  -5.422   0.147  0.00  0.00    +0.029 A 
ATOM     29  C   UNL     1       6.886  -6.485   0.824  0.00  0.00    +0.106 A 
ATOM     30  C   UNL     1       6.135  -7.229   1.716  0.00  0.00    +0.029 A 
ATOM     31  C   UNL     1       4.810  -6.914   1.936  0.00  0.00    +0.015 A 
BRANCH  29  32
ATOM     32  S   UNL     1       8.578  -6.894   0.548  0.00  0.00    +0.061 S 
ATOM     33  O   UNL     1       9.211  -5.712   0.079  0.00  0.00    -0.153 OA
ATOM     34  O   UNL     1       9.022  -7.587   1.706  0.00  0.00    -0.153 OA
BRANCH  32  35
ATOM     35  N   UNL     1       8.621  -7.982  -0.700  0.00  0.00    -0.177 NA
ATOM     36  C   UNL     1       8.560  -9.444  -0.565  0.00  0.00    +0.109 C 
ATOM     37  C   UNL     1       8.658 -10.040  -1.985  0.00  0.00    +0.018 C 
ATOM     38  C   UNL     1       9.345  -8.906  -2.789  0.00  0.00    +0.018 C 
ATOM     39  C   UNL     1       8.735  -7.644  -2.131  0.00  0.00    +0.109 C 
ENDBRANCH  32  35
ENDBRANCH  29  32
ENDBRANCH   7  26
TORSDOF 5
