REMARK  Name = ZINC54226709
REMARK  10 active torsions:
REMARK  status: ('A' for Active; 'I' for Inactive)
REMARK    1  A    between atoms: C_1  and  C_2
REMARK    2  A    between atoms: C_2  and  C_3
REMARK    3  A    between atoms: C_3  and  C_5
REMARK    4  A    between atoms: C_3  and  C_6
REMARK    5  A    between atoms: C_6  and  C_8
REMARK    6  A    between atoms: C_6  and  N_26
REMARK    7  A    between atoms: N_10  and  C_11
REMARK    8  A    between atoms: N_15  and  C_17
REMARK    9  A    between atoms: C_17  and  C_19
REMARK   10  A    between atoms: C_17  and  C_20
REMARK                            x       y       z     vdW  Elec       q    Type
REMARK                         _______ _______ _______ _____ _____    ______ ____
ROOT
ATOM      1  C   UNL     1      -2.827  -2.581   0.141  0.00  0.00    +0.234 C 
ATOM      2  O   UNL     1      -3.354  -2.882   1.191  0.00  0.00    -0.274 OA
ATOM      3  N   UNL     1      -3.506  -2.712  -1.016  0.00  0.00    -0.313 N 
ATOM      4  H   UNL     1      -3.084  -2.471  -1.856  0.00  0.00    +0.149 HD
ENDROOT
BRANCH   3   5
ATOM      5  C   UNL     1      -4.880  -3.219  -1.006  0.00  0.00    +0.055 C 
ATOM      6  C   UNL     1      -4.903  -4.766  -1.129  0.00  0.00    +0.002 C 
ATOM      7  C   UNL     1      -6.280  -5.043  -1.768  0.00  0.00    -0.076 C 
ATOM      8  N   UNL     1      -6.700  -3.808  -2.453  0.00  0.00    +0.385 N 
ATOM      9  C   UNL     1      -5.639  -2.792  -2.287  0.00  0.00    -0.056 C 
ATOM     10  H   UNL     1      -7.560  -3.470  -2.047  0.00  0.00    -0.081 HD
BRANCH   8  11
ATOM     11  C   UNL     1      -6.905  -4.080  -3.882  0.00  0.00    -0.041 C 
ATOM     12  C   UNL     1      -8.014  -5.121  -4.049  0.00  0.00    -0.008 C 
BRANCH  11  13
ATOM     13  C   UNL     1      -7.301  -2.807  -4.585  0.00  0.00    -0.061 A 
ATOM     14  C   UNL     1      -8.169  -1.922  -3.974  0.00  0.00    +0.002 A 
ATOM     15  C   UNL     1      -8.532  -0.754  -4.618  0.00  0.00    +0.000 A 
ATOM     16  C   UNL     1      -8.027  -0.471  -5.873  0.00  0.00    +0.000 A 
ATOM     17  C   UNL     1      -7.157  -1.356  -6.484  0.00  0.00    +0.000 A 
ATOM     18  C   UNL     1      -6.791  -2.522  -5.838  0.00  0.00    +0.002 A 
ENDBRANCH  11  13
ENDBRANCH   8  11
ENDBRANCH   3   5
BRANCH   1  19
ATOM     19  C   UNL     1      -1.413  -2.059   0.130  0.00  0.00    +0.163 C 
BRANCH  19  20
ATOM     20  N   UNL     1      -0.741  -2.444   1.374  0.00  0.00    -0.288 N 
ATOM     21  C   UNL     1      -1.231  -2.033   2.560  0.00  0.00    +0.298 C 
ATOM     22  O   UNL     1      -2.231  -1.342   2.598  0.00  0.00    -0.253 OA
ATOM     23  N   UNL     1      -0.613  -2.387   3.704  0.00  0.00    -0.313 N 
ATOM     24  H   UNL     1       0.056  -2.996   1.343  0.00  0.00    +0.151 HD
ATOM     25  H   UNL     1       0.185  -2.939   3.673  0.00  0.00    +0.146 HD
ATOM     26  H   UNL     1      -0.965  -2.091   4.558  0.00  0.00    +0.146 HD
ENDBRANCH  19  20
BRANCH  19  27
ATOM     27  C   UNL     1      -1.433  -0.534   0.013  0.00  0.00    +0.015 C 
ATOM     28  C   UNL     1      -2.135  -0.131  -1.286  0.00  0.00    +0.010 C 
BRANCH  27  30
ATOM     29  C   UNL     1      -0.019   1.526   0.010  0.00  0.00    +0.004 C 
ATOM     30  C   UNL     1       0.002  -0.004   0.002  0.00  0.00    +0.002 C 
ENDBRANCH  27  30
ENDBRANCH  19  27
ENDBRANCH   1  19
TORSDOF 7
