REMARK  Name = ZINC16389120
REMARK  8 active torsions:
REMARK  status: ('A' for Active; 'I' for Inactive)
REMARK    1  A    between atoms: C_1  and  C_2
REMARK    2  A    between atoms: C_2  and  C_3
REMARK    3  A    between atoms: C_3  and  N_4
REMARK    4  A    between atoms: N_9  and  C_12
REMARK    5  A    between atoms: C_16  and  C_17
REMARK    6  A    between atoms: C_19  and  O_25
REMARK    7  A    between atoms: C_20  and  O_24
REMARK    8  A    between atoms: O_25  and  C_26
REMARK                            x       y       z     vdW  Elec       q    Type
REMARK                         _______ _______ _______ _____ _____    ______ ____
ROOT
ATOM      1  N   UNL     1       6.087   3.514  -4.807  0.00  0.00    -0.281 N 
ATOM      2  C   UNL     1       6.130   3.580  -3.436  0.00  0.00    +0.123 A 
ATOM      3  C   UNL     1       7.304   4.041  -2.832  0.00  0.00    +0.126 A 
ATOM      4  C   UNL     1       8.428   4.430  -3.680  0.00  0.00    +0.269 A 
ATOM      5  O   UNL     1       9.467   4.836  -3.192  0.00  0.00    -0.267 OA
ATOM      6  N   UNL     1       8.287   4.328  -5.020  0.00  0.00    -0.263 N 
ATOM      7  C   UNL     1       7.140   3.879  -5.554  0.00  0.00    +0.333 A 
ATOM      8  O   UNL     1       7.051   3.801  -6.764  0.00  0.00    -0.246 OA
ATOM      9  C   UNL     1       9.396   4.710  -5.898  0.00  0.00    +0.157 C 
ATOM     10  C   UNL     1       7.092   4.016  -1.385  0.00  0.00    +0.216 C 
ATOM     11  O   UNL     1       7.881   4.342  -0.513  0.00  0.00    -0.285 OA
ATOM     12  C   UNL     1       5.720   3.510  -1.211  0.00  0.00    +0.081 C 
ATOM     13  C   UNL     1       5.074   3.312  -0.033  0.00  0.00    +0.035 C 
ATOM     14  N   UNL     1       5.213   3.267  -2.486  0.00  0.00    -0.297 N 
ATOM     15  H   UNL     1       4.325   2.923  -2.669  0.00  0.00    +0.154 HD
ENDROOT
BRANCH  13  16
ATOM     16  C   UNL     1       3.648   2.964  -0.026  0.00  0.00    -0.018 A 
ATOM     17  C   UNL     1       3.102   2.257   1.053  0.00  0.00    +0.057 A 
ATOM     18  C   UNL     1       1.759   1.939   1.056  0.00  0.00    +0.163 A 
ATOM     19  C   UNL     1       0.951   2.310  -0.019  0.00  0.00    +0.173 A 
ATOM     20  C   UNL     1       1.491   3.010  -1.090  0.00  0.00    +0.063 A 
ATOM     21  C   UNL     1       2.830   3.338  -1.099  0.00  0.00    +0.027 A 
ATOM     22 BR   UNL     1       0.386   3.516  -2.539  0.00  0.00    -0.046 Br
BRANCH  19  23
ATOM     23  O   UNL     1      -0.369   1.990  -0.015  0.00  0.00    -0.503 OA
ATOM     24  H   UNL     1      -0.568   1.135  -0.420  0.00  0.00    +0.292 HD
ENDBRANCH  19  23
BRANCH  18  25
ATOM     25  O   UNL     1       1.224   1.258   2.105  0.00  0.00    -0.491 OA
ATOM     26  C   UNL     1       2.110   0.910   3.171  0.00  0.00    +0.277 C 
ENDBRANCH  18  25
ENDBRANCH  13  16
BRANCH   1  27
ATOM     27  C   UNL     1       4.869   3.034  -5.466  0.00  0.00    +0.128 C 
BRANCH  27  29
ATOM     28  C   UNL     1       3.679   1.016  -6.333  0.00  0.00    +0.005 C 
ATOM     29  C   UNL     1       4.950   1.517  -5.645  0.00  0.00    +0.018 C 
ENDBRANCH  27  29
ENDBRANCH   1  27
TORSDOF 5
