REMARK  Name = ZINC03359814
REMARK  6 active torsions:
REMARK  status: ('A' for Active; 'I' for Inactive)
REMARK    1  A    between atoms: C_3  and  C_6
REMARK    2  A    between atoms: C_6  and  C_8
REMARK    3  A    between atoms: C_6  and  N_43
REMARK    4  A    between atoms: C_8  and  N_9
REMARK    5  A    between atoms: C_10  and  C_12
REMARK    6  A    between atoms: C_15  and  N_17
REMARK                            x       y       z     vdW  Elec       q    Type
REMARK                         _______ _______ _______ _____ _____    ______ ____
ROOT
ATOM      1  C   UNL     1      -0.145   1.004  -2.408  0.00  0.00    +0.016 C 
ENDROOT
BRANCH   1   7
ATOM      2  C   UNL     1       0.012   1.096   0.006  0.00  0.00    -0.078 C 
ATOM      3  C   UNL     1      -0.639   1.675   1.264  0.00  0.00    -0.019 C 
ATOM      4  C   UNL     1      -0.512   3.201   1.241  0.00  0.00    -0.004 C 
ATOM      5  C   UNL     1      -1.168   3.741  -0.033  0.00  0.00    -0.019 C 
ATOM      6  C   UNL     1      -0.502   3.101  -1.254  0.00  0.00    -0.078 C 
ATOM      7  N   UNL     1      -0.680   1.635  -1.184  0.00  0.00    +0.387 N 
ATOM      8  H   UNL     1      -1.682   1.424  -1.111  0.00  0.00    -0.081 HD
ENDBRANCH   1   7
BRANCH   1  11
ATOM      9  C   UNL     1      -0.302  -2.675  -2.555  0.00  0.00    +0.041 A 
ATOM     10  C   UNL     1       0.375  -1.455  -2.779  0.00  0.00    +0.043 A 
ATOM     11  C   UNL     1      -0.446  -0.472  -2.365  0.00  0.00    +0.093 A 
ATOM     12  O   UNL     1      -1.581  -1.030  -1.913  0.00  0.00    -0.469 OA
ATOM     13  C   UNL     1      -1.499  -2.366  -2.026  0.00  0.00    +0.195 A 
ENDBRANCH   1  11
BRANCH   1  14
ATOM     14  C   UNL     1      -0.826   1.627  -3.628  0.00  0.00    +0.097 C 
BRANCH  14  15
ATOM     15  N   UNL     1      -2.280   1.549  -3.469  0.00  0.00    -0.312 N 
ATOM     16  C   UNL     1      -3.091   1.947  -4.470  0.00  0.00    +0.251 C 
ATOM     17  O   UNL     1      -2.614   2.371  -5.506  0.00  0.00    -0.270 OA
ATOM     18  H   UNL     1      -2.660   1.212  -2.643  0.00  0.00    +0.149 HD
BRANCH  16  19
ATOM     19  C   UNL     1      -4.545   1.869  -4.310  0.00  0.00    +0.076 A 
ATOM     20  C   UNL     1      -5.543   2.222  -5.206  0.00  0.00    +0.023 A 
ATOM     21  C   UNL     1      -6.841   2.043  -4.798  0.00  0.00    +0.041 A 
ATOM     22  C   UNL     1      -7.084   1.540  -3.559  0.00  0.00    +0.164 A 
ATOM     23  S   UNL     1      -5.494   1.287  -2.916  0.00  0.00    -0.060 S 
BRANCH  22  24
ATOM     24  N   UNL     1      -8.390   1.267  -2.918  0.00  0.00    +0.063 N 
ATOM     25  O   UNL     1      -9.424   1.500  -3.518  0.00  0.00    -0.126 OA
ATOM     26  O   UNL     1      -8.430   0.809  -1.790  0.00  0.00    -0.126 OA
ENDBRANCH  22  24
ENDBRANCH  16  19
ENDBRANCH  14  15
ENDBRANCH   1  14
TORSDOF 6
