REMARK  Name = ZINC59489252
REMARK  10 active torsions:
REMARK  status: ('A' for Active; 'I' for Inactive)
REMARK    1  A    between atoms: C_1  and  C_2
REMARK    2  A    between atoms: C_2  and  C_24
REMARK    3  A    between atoms: N_3  and  N_4
REMARK    4  A    between atoms: C_5  and  S_7
REMARK    5  A    between atoms: S_7  and  C_8
REMARK    6  A    between atoms: N_13  and  C_16
REMARK    7  A    between atoms: C_19  and  O_22
REMARK    8  A    between atoms: O_22  and  C_23
REMARK    9  A    between atoms: C_27  and  O_31
REMARK   10  A    between atoms: O_31  and  C_32
REMARK                            x       y       z     vdW  Elec       q    Type
REMARK                         _______ _______ _______ _____ _____    ______ ____
ROOT
ATOM      1  N   UNL     1      -0.326   0.906   2.602  0.00  0.00    -0.217 N 
ATOM      2  C   UNL     1      -0.244  -0.001   3.635  0.00  0.00    +0.146 C 
ATOM      3  N   UNL     1      -0.301  -1.280   3.386  0.00  0.00    -0.380 N 
ATOM      4  H   UNL     1      -0.283   1.857   2.788  0.00  0.00    +0.176 HD
ATOM      5  H   UNL     1      -0.243  -1.919   4.114  0.00  0.00    +0.158 HD
ATOM      6  H   UNL     1      -0.401  -1.593   2.473  0.00  0.00    +0.158 HD
ENDROOT
BRANCH   1   9
ATOM      7  C   UNL     1      -0.482   2.787   0.598  0.00  0.00    +0.068 C 
ATOM      8  C   UNL     1      -0.548   1.310   0.310  0.00  0.00    +0.063 C 
ATOM      9  N   UNL     1      -0.470   0.455   1.284  0.00  0.00    -0.185 NA
BRANCH   8  10
ATOM     10  C   UNL     1      -0.700   0.835  -1.077  0.00  0.00    -0.001 A 
ATOM     11  C   UNL     1      -0.777   1.753  -2.128  0.00  0.00    +0.013 A 
ATOM     12  C   UNL     1      -0.919   1.305  -3.423  0.00  0.00    +0.047 A 
ATOM     13  C   UNL     1      -0.986  -0.057  -3.686  0.00  0.00    +0.134 A 
ATOM     14  C   UNL     1      -0.909  -0.974  -2.645  0.00  0.00    +0.060 A 
ATOM     15  C   UNL     1      -0.761  -0.535  -1.346  0.00  0.00    +0.028 A 
ATOM     16 BR   UNL     1      -1.000  -2.827  -3.011  0.00  0.00    -0.046 Br
BRANCH  13  17
ATOM     17  O   UNL     1      -1.126  -0.494  -4.965  0.00  0.00    -0.494 OA
ATOM     18  C   UNL     1      -1.199   0.502  -5.987  0.00  0.00    +0.277 C 
ENDBRANCH  13  17
ENDBRANCH   8  10
ENDBRANCH   1   9
BRANCH   2  19
ATOM     19  S   UNL     1      -0.062   0.567   5.293  0.00  0.00    -0.078 S 
BRANCH  19  20
ATOM     20  C   UNL     1      -0.000  -0.958   6.275  0.00  0.00    +0.149 C 
ATOM     21  C   UNL     1       0.231  -0.635   7.765  0.00  0.00    +0.120 C 
ATOM     22  C   UNL     1      -1.008  -1.180   8.442  0.00  0.00    +0.228 C 
ATOM     23  O   UNL     1      -1.236  -1.134   9.632  0.00  0.00    -0.275 OA
ATOM     24  N   UNL     1      -1.813  -1.720   7.519  0.00  0.00    -0.209 N 
ATOM     25  C   UNL     1      -1.344  -1.653   6.263  0.00  0.00    +0.240 C 
ATOM     26  O   UNL     1      -1.906  -2.079   5.277  0.00  0.00    -0.274 OA
BRANCH  24  27
ATOM     27  C   UNL     1      -3.045  -2.311   7.838  0.00  0.00    +0.044 A 
ATOM     28  C   UNL     1      -3.219  -3.680   7.686  0.00  0.00    +0.027 A 
ATOM     29  C   UNL     1      -4.432  -4.261   8.000  0.00  0.00    +0.047 A 
ATOM     30  C   UNL     1      -5.476  -3.476   8.468  0.00  0.00    +0.120 A 
ATOM     31  C   UNL     1      -5.303  -2.108   8.620  0.00  0.00    +0.047 A 
ATOM     32  C   UNL     1      -4.089  -1.527   8.311  0.00  0.00    +0.027 A 
BRANCH  30  33
ATOM     33  O   UNL     1      -6.670  -4.049   8.777  0.00  0.00    -0.495 OA
ATOM     34  C   UNL     1      -7.701  -3.181   9.254  0.00  0.00    +0.277 C 
ENDBRANCH  30  33
ENDBRANCH  24  27
ENDBRANCH  19  20
ENDBRANCH   2  19
TORSDOF 7
