REMARK  Name = ZINC41793712
REMARK  5 active torsions:
REMARK  status: ('A' for Active; 'I' for Inactive)
REMARK    1  A    between atoms: C_10  and  C_11
REMARK    2  A    between atoms: C_11  and  C_12
REMARK    3  A    between atoms: C_12  and  N_13
REMARK    4  A    between atoms: C_14  and  C_16
REMARK    5  A    between atoms: N_18  and  C_19
REMARK                            x       y       z     vdW  Elec       q    Type
REMARK                         _______ _______ _______ _____ _____    ______ ____
ROOT
ATOM      1  N   UNL     1       6.591   1.300   1.377  0.00  0.00    -0.307 N 
ATOM      2  C   UNL     1       7.132   1.722   2.537  0.00  0.00    +0.299 C 
ATOM      3  O   UNL     1       6.572   1.487   3.588  0.00  0.00    -0.265 OA
ATOM      4  H   UNL     1       7.039   1.488   0.537  0.00  0.00    +0.149 HD
ENDROOT
BRANCH   2   5
ATOM      5  C   UNL     1       8.418   2.480   2.530  0.00  0.00    +0.303 C 
ATOM      6  O   UNL     1       8.978   2.716   1.479  0.00  0.00    -0.265 OA
ATOM      7  N   UNL     1       8.958   2.903   3.690  0.00  0.00    -0.275 N 
ATOM      8  H   UNL     1       8.480   2.772   4.524  0.00  0.00    +0.155 HD
BRANCH   7   9
ATOM      9  C   UNL     1      10.209   3.530   3.692  0.00  0.00    +0.072 A 
ATOM     10  C   UNL     1      10.578   4.348   2.632  0.00  0.00    +0.029 A 
ATOM     11  C   UNL     1      11.813   4.967   2.635  0.00  0.00    +0.043 A 
ATOM     12  C   UNL     1      12.684   4.774   3.693  0.00  0.00    +0.161 A 
ATOM     13  C   UNL     1      12.320   3.959   4.754  0.00  0.00    +0.195 A 
ATOM     14  C   UNL     1      11.081   3.341   4.758  0.00  0.00    +0.182 A 
ATOM     15  F   UNL     1      10.722   2.552   5.794  0.00  0.00    -0.200 F 
ATOM     16  F   UNL     1      13.172   3.772   5.786  0.00  0.00    -0.199 F 
ATOM     17  F   UNL     1      13.891   5.381   3.693  0.00  0.00    -0.202 F 
ENDBRANCH   7   9
ENDBRANCH   2   5
BRANCH   1  18
ATOM     18  C   UNL     1       5.329   0.556   1.384  0.00  0.00    +0.109 C 
BRANCH  18  19
ATOM     19  C   UNL     1       4.940   0.198  -0.051  0.00  0.00    +0.054 C 
BRANCH  19  29
ATOM     20  C   UNL     1      -0.027   1.433   0.004  0.00  0.00    +0.001 A 
ATOM     21  C   UNL     1       1.164   2.158  -0.002  0.00  0.00    +0.001 A 
ATOM     22  C   UNL     1       2.369   1.525  -0.018  0.00  0.00    +0.009 A 
ATOM     23  C   UNL     1       2.417   0.121  -0.028  0.00  0.00    -0.015 A 
ATOM     24  C   UNL     1       1.206  -0.616  -0.021  0.00  0.00    -0.018 A 
ATOM     25  C   UNL     1      -0.019   0.072  -0.005  0.00  0.00    +0.008 A 
ATOM     26  C   UNL     1       1.254  -2.020  -0.031  0.00  0.00    +0.008 A 
ATOM     27  C   UNL     1       2.459  -2.653  -0.046  0.00  0.00    +0.001 A 
ATOM     28  C   UNL     1       3.650  -1.929  -0.052  0.00  0.00    +0.004 A 
ATOM     29  C   UNL     1       3.642  -0.567  -0.044  0.00  0.00    -0.038 A 
ENDBRANCH  19  29
ENDBRANCH  18  19
ENDBRANCH   1  18
TORSDOF 5
