REMARK  Name = ZINC38745890
REMARK  7 active torsions:
REMARK  status: ('A' for Active; 'I' for Inactive)
REMARK    1  A    between atoms: C_1  and  O_2
REMARK    2  A    between atoms: O_2  and  C_3
REMARK    3  A    between atoms: C_6  and  C_9
REMARK    4  A    between atoms: C_11  and  C_15
REMARK    5  A    between atoms: C_19  and  C_24
REMARK    6  A    between atoms: C_28  and  O_30
REMARK    7  A    between atoms: O_30  and  C_31
REMARK                            x       y       z     vdW  Elec       q    Type
REMARK                         _______ _______ _______ _____ _____    ______ ____
ROOT
ATOM      1  C   UNL     1      -7.097  -4.886  -1.204  0.00  0.00    +0.182 C 
ATOM      2  N   UNL     1      -8.573  -5.069  -1.219  0.00  0.00    -0.265 N 
ATOM      3  N   UNL     1      -9.001  -6.254  -1.740  0.00  0.00    -0.220 N 
ATOM      4  C   UNL     1     -10.174  -6.767  -2.286  0.00  0.00    +0.182 A 
ATOM      5  N   UNL     1      -9.964  -8.028  -2.569  0.00  0.00    -0.127 NA
ATOM      6  N   UNL     1      -8.756  -8.352  -2.264  0.00  0.00    -0.120 NA
ATOM      7  C   UNL     1      -8.136  -7.318  -1.782  0.00  0.00    +0.211 A 
ATOM      8  S   UNL     1      -6.602  -6.663  -1.155  0.00  0.00    -0.058 S 
ATOM      9  H   UNL     1      -8.966  -4.913  -0.303  0.00  0.00    +0.168 HD
ENDROOT
BRANCH   4  10
ATOM     10  C   UNL     1     -11.431  -6.022  -2.506  0.00  0.00    +0.024 A 
ATOM     11  C   UNL     1     -11.630  -4.785  -1.889  0.00  0.00    +0.012 A 
ATOM     12  C   UNL     1     -12.805  -4.092  -2.096  0.00  0.00    +0.004 A 
ATOM     13  C   UNL     1     -13.788  -4.619  -2.913  0.00  0.00    +0.045 A 
ATOM     14  C   UNL     1     -13.600  -5.848  -3.531  0.00  0.00    +0.121 A 
ATOM     15  C   UNL     1     -12.421  -6.549  -3.335  0.00  0.00    +0.057 A 
BRANCH  14  16
ATOM     16  O   UNL     1     -14.570  -6.361  -4.333  0.00  0.00    -0.495 OA
ATOM     17  C   UNL     1     -15.757  -5.582  -4.495  0.00  0.00    +0.277 C 
ENDBRANCH  14  16
ENDBRANCH   4  10
BRANCH   1  20
ATOM     18  C   UNL     1      -4.963  -2.620   0.035  0.00  0.00    +0.091 C 
ATOM     19  C   UNL     1      -5.128  -3.957   0.039  0.00  0.00    +0.034 C 
ATOM     20  C   UNL     1      -6.635  -4.138   0.048  0.00  0.00    +0.185 C 
ATOM     21  N   UNL     1      -7.139  -2.755   0.047  0.00  0.00    -0.177 NA
ATOM     22  N   UNL     1      -6.170  -1.994   0.045  0.00  0.00    -0.154 NA
BRANCH  18  26
ATOM     23  C   UNL     1      -1.200  -0.637   0.010  0.00  0.00    +0.120 A 
ATOM     24  C   UNL     1      -2.374   0.104   0.019  0.00  0.00    +0.046 A 
ATOM     25  C   UNL     1      -3.595  -0.536   0.027  0.00  0.00    +0.013 A 
ATOM     26  C   UNL     1      -3.651  -1.928   0.026  0.00  0.00    +0.002 A 
ATOM     27  C   UNL     1      -2.471  -2.670   0.016  0.00  0.00    +0.013 A 
ATOM     28  C   UNL     1      -1.252  -2.025   0.003  0.00  0.00    +0.046 A 
BRANCH  23  30
ATOM     29  C   UNL     1      -0.017   1.425   0.010  0.00  0.00    +0.277 C 
ATOM     30  O   UNL     1       0.002  -0.004   0.002  0.00  0.00    -0.495 OA
ENDBRANCH  23  30
ENDBRANCH  18  26
ENDBRANCH   1  20
TORSDOF 5
