REMARK  Name = ZINC38792833
REMARK  4 active torsions:
REMARK  status: ('A' for Active; 'I' for Inactive)
REMARK    1  A    between atoms: C_1  and  C_2
REMARK    2  A    between atoms: C_2  and  C_4
REMARK    3  A    between atoms: C_2  and  N_17
REMARK    4  A    between atoms: C_23  and  C_25
REMARK                            x       y       z     vdW  Elec       q    Type
REMARK                         _______ _______ _______ _____ _____    ______ ____
ROOT
ATOM      1  C   UNL     1      -0.441   2.533   0.178  0.00  0.00    +0.034 C 
ATOM      2  C   UNL     1      -0.124   1.037   0.217  0.00  0.00    +0.140 C 
ENDROOT
BRANCH   2   3
ATOM      3  C   UNL     1       0.763   0.681  -0.948  0.00  0.00    +0.234 C 
ATOM      4  O   UNL     1       0.392  -0.131  -1.768  0.00  0.00    -0.274 OA
ATOM      5  N   UNL     1       1.970   1.266  -1.078  0.00  0.00    -0.284 N 
ATOM      6  C   UNL     1       3.058   0.524  -1.157  0.00  0.00    +0.036 C 
ATOM      7  C   UNL     1       2.947  -0.939  -1.199  0.00  0.00    +0.025 C 
ATOM      8  C   UNL     1       4.053  -1.703  -1.279  0.00  0.00    +0.032 C 
ATOM      9  C   UNL     1       5.378  -1.077  -1.325  0.00  0.00    +0.095 C 
ATOM     10  N   UNL     1       6.612  -1.538  -1.401  0.00  0.00    -0.190 NA
ATOM     11  C   UNL     1       7.471  -0.505  -1.410  0.00  0.00    +0.369 C 
ATOM     12  O   UNL     1       8.818  -0.635  -1.482  0.00  0.00    -0.243 OA
ATOM     13  N   UNL     1       6.842   0.645  -1.341  0.00  0.00    -0.190 NA
ATOM     14  C   UNL     1       5.502   0.393  -1.283  0.00  0.00    +0.097 C 
ATOM     15  C   UNL     1       4.389   1.166  -1.208  0.00  0.00    +0.053 C 
ATOM     16  H   UNL     1       2.039   2.233  -1.115  0.00  0.00    +0.155 HD
ENDBRANCH   2   3
BRANCH   2  17
ATOM     17  N   UNL     1      -1.374   0.270   0.132  0.00  0.00    -0.289 NA
ATOM     18  C   UNL     1      -2.099   0.580  -1.107  0.00  0.00    +0.104 C 
ATOM     19  C   UNL     1      -3.297  -0.367  -1.245  0.00  0.00    +0.123 C 
ATOM     20  N   UNL     1      -4.101  -0.285  -0.016  0.00  0.00    -0.295 N 
ATOM     21  C   UNL     1      -3.417  -0.449   1.275  0.00  0.00    +0.123 C 
ATOM     22  C   UNL     1      -2.215   0.501   1.314  0.00  0.00    +0.104 C 
ATOM     23  C   UNL     1      -5.430  -0.065  -0.073  0.00  0.00    +0.247 C 
ATOM     24  O   UNL     1      -6.063   0.099   0.952  0.00  0.00    -0.270 OA
BRANCH  23  25
ATOM     25  C   UNL     1      -6.117  -0.024  -1.380  0.00  0.00    +0.037 A 
ATOM     26  C   UNL     1      -5.670  -0.825  -2.433  0.00  0.00    +0.014 A 
ATOM     27  C   UNL     1      -6.315  -0.782  -3.651  0.00  0.00    +0.021 A 
ATOM     28  C   UNL     1      -7.405   0.054  -3.831  0.00  0.00    +0.041 A 
ATOM     29  C   UNL     1      -7.853   0.851  -2.791  0.00  0.00    +0.021 A 
ATOM     30  C   UNL     1      -7.219   0.813  -1.567  0.00  0.00    +0.014 A 
ATOM     31 CL   UNL     1      -8.212   0.103  -5.367  0.00  0.00    -0.084 Cl
ENDBRANCH  23  25
ENDBRANCH   2  17
TORSDOF 3
