REMARK  Name = ZINC63993943
REMARK  7 active torsions:
REMARK  status: ('A' for Active; 'I' for Inactive)
REMARK    1  A    between atoms: C_1  and  N_2
REMARK    2  A    between atoms: C_5  and  C_7
REMARK    3  A    between atoms: N_9  and  C_10
REMARK    4  A    between atoms: C_10  and  C_11
REMARK    5  A    between atoms: C_19  and  N_23
REMARK    6  A    between atoms: N_23  and  C_24
REMARK    7  A    between atoms: C_24  and  C_25
REMARK                            x       y       z     vdW  Elec       q    Type
REMARK                         _______ _______ _______ _____ _____    ______ ____
ROOT
ATOM      1  C   UNL     1      -0.018   1.461   0.010  0.00  0.00    +0.172 C 
ATOM      2  N   UNL     1       0.002  -0.004   0.002  0.00  0.00    -0.270 N 
ATOM      3  C   UNL     1       0.007  -0.768  -1.103  0.00  0.00    +0.043 A 
ATOM      4  C   UNL     1       0.025  -2.061  -0.696  0.00  0.00    +0.004 A 
ATOM      5  C   UNL     1       0.032  -2.024   0.708  0.00  0.00    +0.150 A 
ATOM      6  N   UNL     1       0.023  -0.748   1.054  0.00  0.00    -0.166 NA
ATOM      7  C   UNL     1       0.032  -3.247  -1.621  0.00  0.00    +0.023 C 
ATOM      8  C   UNL     1      -0.390  -2.772  -3.018  0.00  0.00    -0.067 C 
ATOM      9  C   UNL     1       0.429  -1.538  -3.407  0.00  0.00    -0.009 C 
ATOM     10  C   UNL     1      -0.001  -0.342  -2.548  0.00  0.00    +0.054 C 
ENDROOT
BRANCH   5  11
ATOM     11  C   UNL     1       0.053  -3.185   1.621  0.00  0.00    +0.265 C 
ATOM     12  O   UNL     1       0.065  -4.314   1.169  0.00  0.00    -0.268 OA
ATOM     13  N   UNL     1       0.058  -2.994   2.955  0.00  0.00    -0.306 N 
ATOM     14  H   UNL     1       0.048  -2.093   3.316  0.00  0.00    +0.149 HD
BRANCH  13  15
ATOM     15  C   UNL     1       0.079  -4.145   3.861  0.00  0.00    +0.140 C 
BRANCH  15  16
ATOM     16  C   UNL     1       0.080  -3.662   5.288  0.00  0.00    -0.030 A 
ATOM     17  C   UNL     1       1.278  -3.419   5.934  0.00  0.00    +0.008 A 
ATOM     18  C   UNL     1       1.281  -2.975   7.242  0.00  0.00    +0.038 A 
ATOM     19  C   UNL     1       0.084  -2.774   7.907  0.00  0.00    +0.123 A 
ATOM     20  C   UNL     1      -1.116  -3.017   7.260  0.00  0.00    +0.038 A 
ATOM     21  C   UNL     1      -1.116  -3.456   5.949  0.00  0.00    +0.008 A 
ATOM     22  F   UNL     1       0.085  -2.340   9.187  0.00  0.00    -0.205 F 
ENDBRANCH  15  16
ENDBRANCH  13  15
ENDBRANCH   5  11
BRANCH   8  23
ATOM     23  N   UNL     1      -0.153  -3.845  -3.992  0.00  0.00    +0.383 N 
ATOM     24  H   UNL     1       0.838  -4.025  -4.059  0.00  0.00    -0.085 HD
ATOM     25  H   UNL     1      -0.627  -4.683  -3.692  0.00  0.00    -0.085 HD
BRANCH  23  26
ATOM     26  C   UNL     1      -0.666  -3.435  -5.306  0.00  0.00    -0.053 C 
BRANCH  26  27
ATOM     27  C   UNL     1      -0.418  -4.552  -6.322  0.00  0.00    +0.086 C 
ATOM     28  C   UNL     1      -1.099  -4.226  -7.632  0.00  0.00    +0.005 C 
ATOM     29  C   UNL     1      -1.993  -5.218  -7.847  0.00  0.00    -0.004 A 
ATOM     30  C   UNL     1      -2.951  -5.476  -8.929  0.00  0.00    +0.010 A 
ATOM     31  C   UNL     1      -3.731  -6.579  -8.865  0.00  0.00    +0.001 A 
ATOM     32  C   UNL     1      -3.648  -7.479  -7.794  0.00  0.00    +0.002 A 
ATOM     33  C   UNL     1      -2.793  -7.310  -6.763  0.00  0.00    +0.026 A 
ATOM     34  C   UNL     1      -1.925  -6.184  -6.728  0.00  0.00    +0.043 A 
ATOM     35  N   UNL     1      -1.023  -5.804  -5.853  0.00  0.00    -0.380 N 
ATOM     36  H   UNL     1      -0.794  -6.272  -5.035  0.00  0.00    +0.160 HD
ENDBRANCH  26  27
ENDBRANCH  23  26
ENDBRANCH   8  23
TORSDOF 6
