REMARK  Name = ZINC05727907
REMARK  10 active torsions:
REMARK  status: ('A' for Active; 'I' for Inactive)
REMARK    1  A    between atoms: C_1  and  C_2
REMARK    2  A    between atoms: C_2  and  C_28
REMARK    3  A    between atoms: C_7  and  C_11
REMARK    4  A    between atoms: C_11  and  S_12
REMARK    5  A    between atoms: S_12  and  N_15
REMARK    6  A    between atoms: N_15  and  C_16
REMARK    7  A    between atoms: C_16  and  C_17
REMARK    8  A    between atoms: C_17  and  C_18
REMARK    9  A    between atoms: C_21  and  S_24
REMARK   10  A    between atoms: S_24  and  N_27
REMARK                            x       y       z     vdW  Elec       q    Type
REMARK                         _______ _______ _______ _____ _____    ______ ____
ROOT
ATOM      1  N   UNL     1       1.356   2.033   0.000  0.00  0.00    -0.194 NA
ATOM      2  H   UNL     1       2.094   1.438   0.207  0.00  0.00    +0.148 HD
ENDROOT
BRANCH   1   3
ATOM      3  S   UNL     1       1.650   3.621  -0.365  0.00  0.00    +0.030 S 
ATOM      4  O   UNL     1       3.063   3.751  -0.305  0.00  0.00    -0.158 OA
ATOM      5  O   UNL     1       0.952   3.848  -1.583  0.00  0.00    -0.158 OA
BRANCH   3   6
ATOM      6  C   UNL     1       0.878   4.560   0.981  0.00  0.00    +0.200 C 
BRANCH   6  12
ATOM      7  C   UNL     1      -1.021   6.927   1.929  0.00  0.00    +0.012 C 
ATOM      8  C   UNL     1       0.503   7.018   1.839  0.00  0.00    -0.018 C 
ATOM      9  C   UNL     1       0.976   8.347   1.149  0.00  0.00    +0.003 C 
ATOM     10  C   UNL     1       2.498   8.056   0.977  0.00  0.00    +0.005 C 
ATOM     11  C   UNL     1       2.572   6.536   0.703  0.00  0.00    +0.017 C 
ATOM     12  C   UNL     1       1.089   6.057   0.746  0.00  0.00    +0.055 C 
ATOM     13  C   UNL     1       0.462   6.628  -0.534  0.00  0.00    +0.142 C 
ATOM     14  O   UNL     1       0.119   6.016  -1.517  0.00  0.00    -0.297 OA
ATOM     15  C   UNL     1       0.381   8.145  -0.278  0.00  0.00    +0.079 C 
ATOM     16  C   UNL     1       1.167   6.811   3.202  0.00  0.00    +0.012 C 
ENDBRANCH   6  12
ENDBRANCH   3   6
ENDBRANCH   1   3
BRANCH   1  17
ATOM     17  C   UNL     1      -0.019   1.526   0.010  0.00  0.00    +0.110 C 
BRANCH  17  18
ATOM     18  C   UNL     1       0.002  -0.004   0.002  0.00  0.00    +0.052 C 
BRANCH  18  19
ATOM     19  C   UNL     1      -1.412  -0.526   0.013  0.00  0.00    -0.046 A 
ATOM     20  C   UNL     1      -2.047  -0.777   1.215  0.00  0.00    +0.005 A 
ATOM     21  C   UNL     1      -3.345  -1.251   1.224  0.00  0.00    +0.029 A 
ATOM     22  C   UNL     1      -4.005  -1.483   0.032  0.00  0.00    +0.105 A 
ATOM     23  C   UNL     1      -3.369  -1.237  -1.170  0.00  0.00    +0.029 A 
ATOM     24  C   UNL     1      -2.072  -0.758  -1.179  0.00  0.00    +0.005 A 
BRANCH  22  25
ATOM     25  S   UNL     1      -5.659  -2.092   0.045  0.00  0.00    +0.056 S 
ATOM     26  O   UNL     1      -6.218  -1.723   1.298  0.00  0.00    -0.153 OA
ATOM     27  O   UNL     1      -6.242  -1.708  -1.192  0.00  0.00    -0.153 OA
BRANCH  25  28
ATOM     28  N   UNL     1      -5.572  -3.745   0.034  0.00  0.00    -0.204 NA
ATOM     29  H   UNL     1      -6.269  -4.271   0.458  0.00  0.00    +0.144 HD
ATOM     30  H   UNL     1      -4.824  -4.189  -0.396  0.00  0.00    +0.144 HD
ENDBRANCH  25  28
ENDBRANCH  22  25
ENDBRANCH  18  19
ENDBRANCH  17  18
ENDBRANCH   1  17
TORSDOF 8
