REMARK  Name = ZINC39675552
REMARK  9 active torsions:
REMARK  status: ('A' for Active; 'I' for Inactive)
REMARK    1  A    between atoms: C_1  and  C_2
REMARK    2  A    between atoms: C_7  and  C_8
REMARK    3  A    between atoms: C_12  and  C_21
REMARK    4  A    between atoms: N_23  and  C_24
REMARK    5  A    between atoms: C_24  and  C_25
REMARK    6  A    between atoms: C_25  and  C_27
REMARK    7  A    between atoms: C_25  and  N_33
REMARK    8  A    between atoms: N_33  and  C_34
REMARK    9  A    between atoms: N_33  and  C_35
REMARK                            x       y       z     vdW  Elec       q    Type
REMARK                         _______ _______ _______ _____ _____    ______ ____
ROOT
ATOM      1  C   UNL     1       0.210   0.534   2.707  0.00  0.00    +0.247 C 
ATOM      2  O   UNL     1       0.043   1.738   2.742  0.00  0.00    -0.270 OA
ATOM      3  N   UNL     1       0.382  -0.156   3.852  0.00  0.00    -0.296 N 
ATOM      4  C   UNL     1       0.701  -1.595   4.006  0.00  0.00    +0.121 C 
ATOM      5  C   UNL     1       1.703  -1.649   5.180  0.00  0.00    +0.100 C 
ATOM      6  C   UNL     1       1.431  -0.369   5.988  0.00  0.00    -0.004 C 
ATOM      7  C   UNL     1       0.302   0.355   5.241  0.00  0.00    +0.115 C 
ATOM      8  C   UNL     1       2.679   0.508   6.024  0.00  0.00    -0.010 C 
ATOM      9  C   UNL     1       2.401   1.747   6.880  0.00  0.00    -0.082 C 
ATOM     10  N   UNL     1       2.031   1.332   8.239  0.00  0.00    +0.379 N 
ATOM     11  C   UNL     1       0.779   0.567   8.205  0.00  0.00    -0.082 C 
ATOM     12  C   UNL     1       0.988  -0.722   7.405  0.00  0.00    -0.010 C 
ATOM     13  H   UNL     1       2.764   0.758   8.625  0.00  0.00    -0.086 HD
ATOM     14  H   UNL     1       1.908   2.150   8.817  0.00  0.00    -0.086 HD
ENDROOT
BRANCH   1  21
ATOM     15  C   UNL     1      -1.966   0.922   0.840  0.00  0.00    +0.044 C 
ATOM     16  C   UNL     1      -0.818   0.007   0.500  0.00  0.00    -0.038 A 
ATOM     17  C   UNL     1      -0.794  -0.652  -0.712  0.00  0.00    +0.004 A 
ATOM     18  C   UNL     1       0.259  -1.492  -1.026  0.00  0.00    +0.000 A 
ATOM     19  C   UNL     1       1.294  -1.679  -0.128  0.00  0.00    +0.001 A 
ATOM     20  C   UNL     1       1.283  -1.026   1.088  0.00  0.00    +0.013 A 
ATOM     21  C   UNL     1       0.226  -0.173   1.408  0.00  0.00    +0.040 A 
ENDBRANCH   1  21
BRANCH   5  22
ATOM     22  C   UNL     1       1.453  -2.870   6.028  0.00  0.00    +0.218 C 
ATOM     23  O   UNL     1       0.323  -3.285   6.176  0.00  0.00    -0.275 OA
ATOM     24  N   UNL     1       2.486  -3.502   6.621  0.00  0.00    -0.316 N 
ATOM     25  H   UNL     1       3.389  -3.170   6.503  0.00  0.00    +0.149 HD
BRANCH  24  26
ATOM     26  C   UNL     1       2.243  -4.689   7.445  0.00  0.00    +0.093 C 
BRANCH  26  27
ATOM     27  C   UNL     1       3.554  -5.137   8.092  0.00  0.00    -0.021 C 
BRANCH  27  28
ATOM     28  C   UNL     1       4.519  -5.577   7.021  0.00  0.00    -0.059 A 
ATOM     29  C   UNL     1       4.401  -6.833   6.458  0.00  0.00    +0.002 A 
ATOM     30  C   UNL     1       5.285  -7.237   5.475  0.00  0.00    +0.000 A 
ATOM     31  C   UNL     1       6.288  -6.383   5.055  0.00  0.00    +0.000 A 
ATOM     32  C   UNL     1       6.405  -5.125   5.617  0.00  0.00    +0.000 A 
ATOM     33  C   UNL     1       5.518  -4.721   6.597  0.00  0.00    +0.002 A 
ENDBRANCH  27  28
BRANCH  27  34
ATOM     34  N   UNL     1       3.292  -6.258   9.004  0.00  0.00    +0.382 N 
ATOM     35  C   UNL     1       4.535  -6.633   9.691  0.00  0.00    -0.096 C 
ATOM     36  C   UNL     1       2.286  -5.857   9.997  0.00  0.00    -0.096 C 
ATOM     37  H   UNL     1       2.947  -7.047   8.477  0.00  0.00    -0.082 HD
ENDBRANCH  27  34
ENDBRANCH  26  27
ENDBRANCH  24  26
ENDBRANCH   5  22
TORSDOF 6
