REMARK  Name = ZINC39691301
REMARK  8 active torsions:
REMARK  status: ('A' for Active; 'I' for Inactive)
REMARK    1  A    between atoms: C_1  and  C_2
REMARK    2  A    between atoms: C_5  and  C_8
REMARK    3  A    between atoms: C_12  and  C_21
REMARK    4  A    between atoms: N_23  and  C_24
REMARK    5  A    between atoms: C_24  and  C_25
REMARK    6  A    between atoms: C_25  and  N_26
REMARK    7  A    between atoms: C_27  and  C_29
REMARK    8  A    between atoms: C_29  and  C_30
REMARK                            x       y       z     vdW  Elec       q    Type
REMARK                         _______ _______ _______ _____ _____    ______ ____
ROOT
ATOM      1  C   UNL     1       0.057  -4.258  -0.024  0.00  0.00    +0.247 C 
ATOM      2  O   UNL     1      -0.050  -4.864  -1.073  0.00  0.00    -0.270 OA
ATOM      3  N   UNL     1       0.174  -4.934   1.136  0.00  0.00    -0.296 N 
ATOM      4  C   UNL     1       0.186  -4.383   2.511  0.00  0.00    +0.121 C 
ATOM      5  C   UNL     1      -0.633  -5.396   3.344  0.00  0.00    +0.100 C 
ATOM      6  C   UNL     1      -0.539  -6.715   2.560  0.00  0.00    -0.004 C 
ATOM      7  C   UNL     1       0.314  -6.398   1.324  0.00  0.00    +0.115 C 
ATOM      8  C   UNL     1      -1.929  -7.175   2.131  0.00  0.00    -0.010 C 
ATOM      9  C   UNL     1      -1.815  -8.518   1.404  0.00  0.00    -0.082 C 
ATOM     10  N   UNL     1      -1.204  -9.510   2.296  0.00  0.00    +0.379 N 
ATOM     11  C   UNL     1       0.167  -9.105   2.630  0.00  0.00    -0.082 C 
ATOM     12  C   UNL     1       0.138  -7.787   3.409  0.00  0.00    -0.010 C 
ATOM     13  H   UNL     1      -1.748  -9.579   3.143  0.00  0.00    -0.086 HD
ATOM     14  H   UNL     1      -1.185 -10.408   1.837  0.00  0.00    -0.086 HD
ENDROOT
BRANCH   1  19
ATOM     15  C   UNL     1       0.061   1.497  -0.011  0.00  0.00    +0.044 C 
ATOM     16  C   UNL     1       0.060  -0.010  -0.015  0.00  0.00    -0.050 A 
ATOM     17  C   UNL     1      -0.547  -0.696  -1.052  0.00  0.00    +0.004 A 
ATOM     18  C   UNL     1      -0.551  -2.076  -1.061  0.00  0.00    +0.013 A 
ATOM     19  C   UNL     1       0.058  -2.780  -0.021  0.00  0.00    +0.037 A 
ATOM     20  C   UNL     1       0.668  -2.081   1.022  0.00  0.00    +0.013 A 
ATOM     21  C   UNL     1       0.671  -0.702   1.016  0.00  0.00    +0.004 A 
ENDBRANCH   1  19
BRANCH   5  22
ATOM     22  C   UNL     1      -2.068  -4.947   3.452  0.00  0.00    +0.218 C 
ATOM     23  O   UNL     1      -2.595  -4.375   2.522  0.00  0.00    -0.275 OA
ATOM     24  N   UNL     1      -2.764  -5.184   4.581  0.00  0.00    -0.314 N 
ATOM     25  H   UNL     1      -2.342  -5.642   5.324  0.00  0.00    +0.149 HD
BRANCH  24  26
ATOM     26  C   UNL     1      -4.159  -4.748   4.686  0.00  0.00    +0.123 C 
BRANCH  26  27
ATOM     27  C   UNL     1      -4.713  -5.136   6.058  0.00  0.00    +0.123 C 
BRANCH  27  28
ATOM     28  N   UNL     1      -6.108  -4.700   6.163  0.00  0.00    -0.314 N 
ATOM     29  C   UNL     1      -6.804  -4.936   7.293  0.00  0.00    +0.217 C 
ATOM     30  O   UNL     1      -6.277  -5.509   8.222  0.00  0.00    -0.275 OA
ATOM     31  H   UNL     1      -6.530  -4.242   5.420  0.00  0.00    +0.149 HD
BRANCH  29  32
ATOM     32  C   UNL     1      -8.239  -4.488   7.400  0.00  0.00    +0.131 C 
BRANCH  32  33
ATOM     33  C   UNL     1      -8.784  -4.870   8.752  0.00  0.00    -0.031 A 
ATOM     34  C   UNL     1      -9.472  -6.035   8.909  0.00  0.00    +0.005 A 
ATOM     35  C   UNL     1      -9.983  -6.405  10.151  0.00  0.00    +0.001 A 
ATOM     36  C   UNL     1      -9.811  -5.612  11.244  0.00  0.00    +0.008 A 
ATOM     37  C   UNL     1      -9.107  -4.402  11.121  0.00  0.00    -0.018 A 
ATOM     38  C   UNL     1      -8.581  -4.029   9.859  0.00  0.00    -0.014 A 
ATOM     39  C   UNL     1      -7.872  -2.822   9.738  0.00  0.00    +0.009 A 
ATOM     40  C   UNL     1      -7.694  -2.032  10.832  0.00  0.00    +0.001 A 
ATOM     41  C   UNL     1      -8.206  -2.402  12.075  0.00  0.00    +0.001 A 
ATOM     42  C   UNL     1      -8.909  -3.557  12.227  0.00  0.00    +0.008 A 
ENDBRANCH  32  33
ENDBRANCH  29  32
ENDBRANCH  27  28
ENDBRANCH  26  27
ENDBRANCH  24  26
ENDBRANCH   5  22
TORSDOF 7
