REMARK  Name = ZINC39664685
REMARK  9 active torsions:
REMARK  status: ('A' for Active; 'I' for Inactive)
REMARK    1  A    between atoms: C_1  and  C_2
REMARK    2  A    between atoms: C_2  and  C_3
REMARK    3  A    between atoms: C_7  and  C_16
REMARK    4  A    between atoms: N_18  and  C_19
REMARK    5  A    between atoms: C_19  and  C_21
REMARK    6  A    between atoms: C_19  and  C_25
REMARK    7  A    between atoms: C_21  and  N_22
REMARK    8  A    between atoms: N_22  and  C_23
REMARK    9  A    between atoms: N_22  and  C_24
REMARK                            x       y       z     vdW  Elec       q    Type
REMARK                         _______ _______ _______ _____ _____    ______ ____
ROOT
ATOM      1  C   UNL     1       0.043  -0.378   0.918  0.00  0.00    +0.215 C 
ATOM      2  O   UNL     1      -0.003   0.512   1.741  0.00  0.00    -0.276 OA
ATOM      3  N   UNL     1       0.187  -1.657   1.317  0.00  0.00    -0.300 N 
ATOM      4  C   UNL     1       0.270  -2.869   0.468  0.00  0.00    +0.121 C 
ATOM      5  C   UNL     1       1.341  -3.751   1.149  0.00  0.00    +0.100 C 
ATOM      6  C   UNL     1       1.354  -3.288   2.616  0.00  0.00    -0.004 C 
ATOM      7  C   UNL     1       0.306  -2.169   2.703  0.00  0.00    +0.115 C 
ATOM      8  C   UNL     1       2.730  -2.744   2.986  0.00  0.00    -0.010 C 
ATOM      9  C   UNL     1       2.735  -2.344   4.465  0.00  0.00    -0.082 C 
ATOM     10  N   UNL     1       2.410  -3.513   5.291  0.00  0.00    +0.379 N 
ATOM     11  C   UNL     1       1.049  -3.974   4.994  0.00  0.00    -0.082 C 
ATOM     12  C   UNL     1       0.973  -4.443   3.538  0.00  0.00    -0.010 C 
ATOM     13  H   UNL     1       3.066  -4.255   5.094  0.00  0.00    -0.086 HD
ATOM     14  H   UNL     1       2.474  -3.263   6.266  0.00  0.00    -0.086 HD
ENDROOT
BRANCH   5  15
ATOM     15  C   UNL     1       0.958  -5.205   1.058  0.00  0.00    +0.219 C 
ATOM     16  O   UNL     1       1.776  -6.027   0.704  0.00  0.00    -0.275 OA
ATOM     17  N   UNL     1      -0.295  -5.593   1.371  0.00  0.00    -0.310 N 
ATOM     18  H   UNL     1      -0.969  -4.929   1.585  0.00  0.00    +0.149 HD
BRANCH  17  19
ATOM     19  C   UNL     1      -0.638  -7.017   1.387  0.00  0.00    +0.087 C 
BRANCH  19  20
ATOM     20  C   UNL     1      -1.529  -7.306   2.567  0.00  0.00    -0.029 A 
ATOM     21  C   UNL     1      -2.525  -6.413   2.916  0.00  0.00    +0.005 A 
ATOM     22  C   UNL     1      -3.343  -6.678   3.998  0.00  0.00    +0.000 A 
ATOM     23  C   UNL     1      -3.165  -7.836   4.732  0.00  0.00    +0.000 A 
ATOM     24  C   UNL     1      -2.169  -8.729   4.383  0.00  0.00    +0.000 A 
ATOM     25  C   UNL     1      -1.354  -8.466   3.298  0.00  0.00    +0.005 A 
ENDBRANCH  19  20
BRANCH  19  26
ATOM     26  C   UNL     1      -1.371  -7.380   0.094  0.00  0.00    -0.052 C 
BRANCH  26  27
ATOM     27  N   UNL     1      -0.510  -7.079  -1.058  0.00  0.00    +0.377 N 
ATOM     28  C   UNL     1       0.639  -7.995  -1.063  0.00  0.00    -0.097 C 
ATOM     29  C   UNL     1      -1.276  -7.247  -2.300  0.00  0.00    -0.097 C 
ATOM     30  H   UNL     1      -0.180  -6.128  -0.992  0.00  0.00    -0.083 HD
ENDBRANCH  26  27
ENDBRANCH  19  26
ENDBRANCH  17  19
ENDBRANCH   5  15
BRANCH   1  32
ATOM     31  C   UNL     1      -0.218   1.459  -0.727  0.00  0.00    +0.013 C 
ATOM     32  C   UNL     1      -0.061  -0.053  -0.549  0.00  0.00    +0.092 C 
ENDBRANCH   1  32
TORSDOF 6
