REMARK  Name = ZINC39672474
REMARK  3 active torsions:
REMARK  status: ('A' for Active; 'I' for Inactive)
REMARK    1  A    between atoms: C_9  and  C_12
REMARK    2  A    between atoms: N_14  and  C_15
REMARK    3  A    between atoms: C_16  and  C_26
REMARK                            x       y       z     vdW  Elec       q    Type
REMARK                         _______ _______ _______ _____ _____    ______ ____
ROOT
ATOM      1  C   UNL     1      -0.878  -5.021  -0.092  0.00  0.00    +0.076 C 
ATOM      2  C   UNL     1      -0.954  -6.379  -0.218  0.00  0.00    +0.046 C 
ATOM      3  C   UNL     1      -2.323  -7.014  -0.276  0.00  0.00    +0.040 C 
ATOM      4  C   UNL     1      -2.633  -7.291  -1.747  0.00  0.00    +0.009 C 
ATOM      5  C   UNL     1      -4.087  -7.731  -1.907  0.00  0.00    +0.001 C 
ATOM      6  C   UNL     1      -4.979  -6.541  -1.553  0.00  0.00    +0.001 C 
ATOM      7  C   UNL     1      -4.764  -6.140  -0.109  0.00  0.00    +0.015 C 
ATOM      8  C   UNL     1      -3.357  -6.078   0.352  0.00  0.00    +0.060 C 
ATOM      9  S   UNL     1      -2.568  -4.458   0.039  0.00  0.00    -0.106 S 
ENDROOT
BRANCH   2  10
ATOM     10  C   UNL     1       0.208  -7.163  -0.292  0.00  0.00    +0.245 C 
ATOM     11  O   UNL     1       0.644  -7.507  -1.377  0.00  0.00    -0.270 OA
ATOM     12  N   UNL     1       0.843  -7.536   0.838  0.00  0.00    -0.293 N 
ATOM     13  C   UNL     1       0.272  -7.238   2.161  0.00  0.00    +0.136 C 
ATOM     14  C   UNL     1       0.259  -8.531   2.984  0.00  0.00    +0.179 C 
ATOM     15  O   UNL     1       1.566  -9.110   2.972  0.00  0.00    -0.377 OA
ATOM     16  C   UNL     1       2.023  -9.497   1.674  0.00  0.00    +0.179 C 
ATOM     17  C   UNL     1       2.124  -8.258   0.784  0.00  0.00    +0.136 C 
ENDBRANCH   2  10
BRANCH   1  20
ATOM     18  C   UNL     1       0.167  -2.911   0.072  0.00  0.00    +0.246 C 
ATOM     19  O   UNL     1      -0.925  -2.387   0.172  0.00  0.00    -0.270 OA
ATOM     20  N   UNL     1       0.262  -4.248  -0.065  0.00  0.00    -0.276 N 
ATOM     21  H   UNL     1       1.133  -4.667  -0.144  0.00  0.00    +0.156 HD
BRANCH  18  30
ATOM     22  C   UNL     1       0.027   1.346   0.111  0.00  0.00    +0.001 A 
ATOM     23  C   UNL     1       1.215   2.087   0.137  0.00  0.00    +0.002 A 
ATOM     24  C   UNL     1       2.440   1.506   0.152  0.00  0.00    +0.024 A 
ATOM     25  C   UNL     1       2.565   0.100   0.141  0.00  0.00    +0.041 A 
ATOM     26  N   UNL     1       3.765  -0.461   0.156  0.00  0.00    -0.285 N 
ATOM     27  C   UNL     1       3.957  -1.775   0.147  0.00  0.00    +0.222 C 
ATOM     28  O   UNL     1       5.085  -2.225   0.162  0.00  0.00    -0.275 OA
ATOM     29  C   UNL     1       2.769  -2.711   0.118  0.00  0.00    +0.137 C 
ATOM     30  C   UNL     1       1.389  -2.083   0.101  0.00  0.00    +0.032 C 
ATOM     31  C   UNL     1       1.325  -0.705   0.113  0.00  0.00    +0.005 A 
ATOM     32  C   UNL     1       0.038  -0.010   0.098  0.00  0.00    +0.010 A 
ATOM     33  H   UNL     1       4.543   0.117   0.174  0.00  0.00    +0.155 HD
ENDBRANCH  18  30
ENDBRANCH   1  20
TORSDOF 3
