REMARK  Name = ZINC04942490
REMARK  6 active torsions:
REMARK  status: ('A' for Active; 'I' for Inactive)
REMARK    1  A    between atoms: C_1  and  O_2
REMARK    2  A    between atoms: O_2  and  C_3
REMARK    3  A    between atoms: C_6  and  C_9
REMARK    4  A    between atoms: C_12  and  C_22
REMARK    5  A    between atoms: C_15  and  C_17
REMARK    6  A    between atoms: C_27  and  O_28
REMARK                            x       y       z     vdW  Elec       q    Type
REMARK                         _______ _______ _______ _____ _____    ______ ____
ROOT
ATOM      1  C   UNL     1       2.505  -2.503  -4.381  0.00  0.00    +0.137 C 
ATOM      2  C   UNL     1       3.907  -3.009  -3.990  0.00  0.00    +0.087 C 
ATOM      3  C   UNL     1       3.824  -4.505  -4.191  0.00  0.00    +0.072 C 
ATOM      4  N   UNL     1       2.645  -4.819  -4.607  0.00  0.00    -0.180 NA
ATOM      5  N   UNL     1       1.784  -3.730  -4.759  0.00  0.00    -0.179 N 
ATOM      6  C   UNL     1       0.505  -3.790  -5.179  0.00  0.00    +0.302 C 
ATOM      7  O   UNL     1      -0.153  -2.770  -5.272  0.00  0.00    -0.265 OA
ENDROOT
BRANCH   1  11
ATOM      8  C   UNL     1       0.606  -0.607  -1.056  0.00  0.00    +0.120 A 
ATOM      9  C   UNL     1       1.173   0.161  -2.062  0.00  0.00    +0.046 A 
ATOM     10  C   UNL     1       1.786  -0.455  -3.136  0.00  0.00    +0.009 A 
ATOM     11  C   UNL     1       1.835  -1.835  -3.209  0.00  0.00    -0.024 A 
ATOM     12  C   UNL     1       1.270  -2.602  -2.207  0.00  0.00    +0.009 A 
ATOM     13  C   UNL     1       0.661  -1.992  -1.128  0.00  0.00    +0.046 A 
BRANCH   8  15
ATOM     14  C   UNL     1      -0.017   1.425   0.010  0.00  0.00    +0.277 C 
ATOM     15  O   UNL     1       0.002  -0.004   0.002  0.00  0.00    -0.495 OA
ENDBRANCH   8  15
ENDBRANCH   1  11
BRANCH   3  16
ATOM     16  C   UNL     1       4.922  -5.458  -3.950  0.00  0.00    +0.039 A 
ATOM     17  C   UNL     1       6.161  -5.001  -3.493  0.00  0.00    +0.013 A 
ATOM     18  C   UNL     1       7.184  -5.898  -3.269  0.00  0.00    +0.001 A 
ATOM     19  C   UNL     1       6.989  -7.250  -3.495  0.00  0.00    +0.004 A 
ATOM     20  C   UNL     1       5.769  -7.715  -3.948  0.00  0.00    +0.046 A 
ATOM     21  C   UNL     1       4.728  -6.828  -4.173  0.00  0.00    +0.126 A 
BRANCH  21  22
ATOM     22  O   UNL     1       3.527  -7.284  -4.612  0.00  0.00    -0.506 OA
ATOM     23  H   UNL     1       3.448  -7.319  -5.575  0.00  0.00    +0.292 HD
ENDBRANCH  21  22
ENDBRANCH   3  16
BRANCH   6  24
ATOM     24  C   UNL     1      -0.093  -5.083  -5.525  0.00  0.00    +0.191 A 
ATOM     25  C   UNL     1      -1.369  -5.284  -5.967  0.00  0.00    +0.054 A 
ATOM     26  C   UNL     1      -1.512  -6.665  -6.173  0.00  0.00    +0.042 A 
ATOM     27  C   UNL     1      -0.331  -7.239  -5.852  0.00  0.00    +0.196 A 
ATOM     28  O   UNL     1       0.523  -6.282  -5.467  0.00  0.00    -0.458 OA
ENDBRANCH   6  24
TORSDOF 5
