REMARK  Name = ZINC17161021
REMARK  6 active torsions:
REMARK  status: ('A' for Active; 'I' for Inactive)
REMARK    1  A    between atoms: C_1  and  C_2
REMARK    2  A    between atoms: C_4  and  C_26
REMARK    3  A    between atoms: C_5  and  N_9
REMARK    4  A    between atoms: C_6  and  C_8
REMARK    5  A    between atoms: C_13  and  N_14
REMARK    6  A    between atoms: N_14  and  N_15
REMARK                            x       y       z     vdW  Elec       q    Type
REMARK                         _______ _______ _______ _____ _____    ______ ____
ROOT
ATOM      1  N   UNL     1      -0.012  -4.203  -0.743  0.00  0.00    -0.188 N 
ATOM      2  C   UNL     1      -1.161  -4.883  -0.544  0.00  0.00    +0.265 C 
ATOM      3  O   UNL     1      -2.241  -4.324  -0.606  0.00  0.00    -0.269 OA
ATOM      4  C   UNL     1      -1.067  -6.322  -0.252  0.00  0.00    +0.116 C 
ATOM      5  C   UNL     1      -2.196  -7.092  -0.036  0.00  0.00    +0.102 C 
ATOM      6  C   UNL     1       0.288  -6.908  -0.199  0.00  0.00    +0.278 C 
ATOM      7  N   UNL     1       1.341  -6.102  -0.419  0.00  0.00    -0.123 NA
ATOM      8  C   UNL     1       1.195  -4.827  -0.680  0.00  0.00    +0.340 C 
ATOM      9  O   UNL     1       2.304  -4.091  -0.894  0.00  0.00    -0.250 OA
ATOM     10  O   UNL     1       0.448  -8.093   0.038  0.00  0.00    -0.268 OA
ENDROOT
BRANCH   1  15
ATOM     11  C   UNL     1      -0.222   1.353  -1.879  0.00  0.00    +0.044 C 
ATOM     12  C   UNL     1      -0.166  -0.122  -1.577  0.00  0.00    -0.050 A 
ATOM     13  C   UNL     1      -0.205  -1.040  -2.611  0.00  0.00    +0.008 A 
ATOM     14  C   UNL     1      -0.154  -2.393  -2.338  0.00  0.00    -0.028 A 
ATOM     15  C   UNL     1      -0.063  -2.831  -1.023  0.00  0.00    +0.052 A 
ATOM     16  C   UNL     1      -0.025  -1.907   0.012  0.00  0.00    -0.028 A 
ATOM     17  C   UNL     1      -0.071  -0.555  -0.268  0.00  0.00    +0.008 A 
ATOM     18  C   UNL     1       0.073  -2.379   1.440  0.00  0.00    +0.046 C 
ATOM     19  C   UNL     1      -0.197  -3.392  -3.465  0.00  0.00    +0.046 C 
ENDBRANCH   1  15
BRANCH   5  20
ATOM     20  N   UNL     1      -3.403  -6.503   0.069  0.00  0.00    -0.284 N 
ATOM     21  H   UNL     1      -3.472  -5.535   0.074  0.00  0.00    +0.166 HD
BRANCH  20  22
ATOM     22  N   UNL     1      -4.531  -7.268   0.167  0.00  0.00    -0.230 NA
ATOM     23  C   UNL     1      -5.405  -7.069  -0.996  0.00  0.00    +0.105 C 
ATOM     24  C   UNL     1      -6.582  -8.045  -0.923  0.00  0.00    +0.017 C 
ATOM     25  C   UNL     1      -7.361  -7.802   0.372  0.00  0.00    +0.003 C 
ATOM     26  C   UNL     1      -6.416  -7.968   1.565  0.00  0.00    +0.017 C 
ATOM     27  C   UNL     1      -5.244  -6.994   1.421  0.00  0.00    +0.105 C 
ENDBRANCH  20  22
ENDBRANCH   5  20
TORSDOF 3
