REMARK  Name = ZINC36305258
REMARK  13 active torsions:
REMARK  status: ('A' for Active; 'I' for Inactive)
REMARK    1  A    between atoms: C_1  and  N_2
REMARK    2  A    between atoms: C_3  and  O_30
REMARK    3  A    between atoms: C_4  and  C_13
REMARK    4  A    between atoms: C_5  and  C_7
REMARK    5  A    between atoms: C_13  and  N_14
REMARK    6  A    between atoms: N_14  and  C_15
REMARK    7  A    between atoms: N_14  and  C_19
REMARK    8  A    between atoms: C_15  and  C_16
REMARK    9  A    between atoms: C_19  and  C_20
REMARK   10  A    between atoms: C_20  and  C_22
REMARK   11  A    between atoms: C_20  and  O_29
REMARK   12  A    between atoms: C_22  and  N_23
REMARK   13  A    between atoms: O_30  and  C_31
REMARK                            x       y       z     vdW  Elec       q    Type
REMARK                         _______ _______ _______ _____ _____    ______ ____
ROOT
ATOM      1  C   UNL     1       2.368   1.156   0.583  0.00  0.00    +0.176 C 
ATOM      2  N   UNL     1       1.527  -0.041   0.656  0.00  0.00    -0.235 N 
ATOM      3  C   UNL     1       1.296  -0.917  -0.355  0.00  0.00    +0.221 A 
ATOM      4  C   UNL     1       0.467  -1.884   0.115  0.00  0.00    +0.025 A 
ATOM      5  C   UNL     1       0.182  -1.589   1.462  0.00  0.00    +0.098 A 
ATOM      6  N   UNL     1       0.825  -0.486   1.784  0.00  0.00    -0.168 NA
ENDROOT
BRANCH   5   7
ATOM      7  C   UNL     1      -0.686  -2.386   2.364  0.00  0.00    +0.002 A 
ATOM      8  C   UNL     1      -0.284  -2.644   3.672  0.00  0.00    +0.010 A 
ATOM      9  C   UNL     1      -1.096  -3.386   4.507  0.00  0.00    +0.001 A 
ATOM     10  C   UNL     1      -2.305  -3.873   4.045  0.00  0.00    +0.000 A 
ATOM     11  C   UNL     1      -2.708  -3.621   2.747  0.00  0.00    +0.001 A 
ATOM     12  C   UNL     1      -1.908  -2.874   1.906  0.00  0.00    +0.010 A 
ENDBRANCH   5   7
BRANCH   4  13
ATOM     13  C   UNL     1      -0.054  -3.063  -0.665  0.00  0.00    -0.035 C 
BRANCH  13  14
ATOM     14  N   UNL     1       0.955  -4.130  -0.673  0.00  0.00    +0.384 N 
ATOM     15  H   UNL     1       1.809  -3.782  -1.082  0.00  0.00    -0.081 HD
BRANCH  14  16
ATOM     16  C   UNL     1       1.215  -4.569   0.705  0.00  0.00    -0.075 C 
BRANCH  16  17
ATOM     17  C   UNL     1       2.364  -5.579   0.710  0.00  0.00    -0.028 C 
ATOM     18  C   UNL     1       3.664  -5.167   1.402  0.00  0.00    +0.002 C 
ATOM     19  C   UNL     1       2.748  -6.205   2.053  0.00  0.00    +0.002 C 
ENDBRANCH  16  17
ENDBRANCH  14  16
BRANCH  14  20
ATOM     20  C   UNL     1       0.461  -5.266  -1.463  0.00  0.00    -0.045 C 
BRANCH  20  21
ATOM     21  C   UNL     1       0.359  -4.858  -2.934  0.00  0.00    +0.112 C 
BRANCH  21  22
ATOM     22  O   UNL     1      -0.687  -3.898  -3.091  0.00  0.00    -0.392 OA
ATOM     23  H   UNL     1      -1.559  -4.219  -2.823  0.00  0.00    +0.210 HD
ENDBRANCH  21  22
BRANCH  21  24
ATOM     24  C   UNL     1       0.052  -6.091  -3.785  0.00  0.00    +0.114 C 
BRANCH  24  25
ATOM     25  N   UNL     1      -0.021  -5.704  -5.200  0.00  0.00    -0.296 NA
ATOM     26  C   UNL     1      -0.750  -6.711  -5.986  0.00  0.00    +0.112 C 
ATOM     27  C   UNL     1      -0.854  -6.240  -7.439  0.00  0.00    +0.175 C 
ATOM     28  O   UNL     1       0.459  -5.999  -7.952  0.00  0.00    -0.377 OA
ATOM     29  C   UNL     1       1.196  -5.023  -7.211  0.00  0.00    +0.175 C 
ATOM     30  C   UNL     1       1.321  -5.481  -5.756  0.00  0.00    +0.112 C 
ENDBRANCH  24  25
ENDBRANCH  21  24
ENDBRANCH  20  21
ENDBRANCH  14  20
ENDBRANCH  13  14
ENDBRANCH   4  13
BRANCH   3  31
ATOM     31  O   UNL     1       1.802  -0.839  -1.613  0.00  0.00    -0.438 OA
BRANCH  31  32
ATOM     32  C   UNL     1       1.120  -0.105  -2.531  0.00  0.00    +0.130 A 
ATOM     33  C   UNL     1      -0.108   0.451  -2.202  0.00  0.00    +0.048 A 
ATOM     34  C   UNL     1      -0.800   1.197  -3.136  0.00  0.00    +0.023 A 
ATOM     35  C   UNL     1      -0.269   1.389  -4.400  0.00  0.00    +0.041 A 
ATOM     36  C   UNL     1       0.955   0.835  -4.730  0.00  0.00    +0.023 A 
ATOM     37  C   UNL     1       1.653   0.093  -3.796  0.00  0.00    +0.048 A 
ATOM     38 CL   UNL     1      -1.141   2.326  -5.573  0.00  0.00    -0.084 Cl
ENDBRANCH  31  32
ENDBRANCH   3  31
TORSDOF 12
