REMARK  Name = ZINC36065798
REMARK  13 active torsions:
REMARK  status: ('A' for Active; 'I' for Inactive)
REMARK    1  A    between atoms: C_1  and  C_2
REMARK    2  A    between atoms: C_2  and  C_3
REMARK    3  A    between atoms: C_3  and  C_5
REMARK    4  A    between atoms: C_3  and  N_6
REMARK    5  A    between atoms: C_7  and  C_9
REMARK    6  A    between atoms: C_12  and  C_14
REMARK    7  A    between atoms: C_14  and  N_15
REMARK    8  A    between atoms: N_15  and  C_16
REMARK    9  A    between atoms: N_15  and  C_30
REMARK   10  A    between atoms: C_16  and  C_17
REMARK   11  A    between atoms: C_21  and  O_23
REMARK   12  A    between atoms: O_23  and  C_24
REMARK   13  A    between atoms: C_30  and  C_31
REMARK                            x       y       z     vdW  Elec       q    Type
REMARK                         _______ _______ _______ _____ _____    ______ ____
ROOT
ATOM      1  N   UNL     1       8.221   0.073  -0.004  0.00  0.00    +0.391 N 
ATOM      2  H   UNL     1       8.709  -0.619  -0.554  0.00  0.00    -0.080 HD
ENDROOT
BRANCH   1   3
ATOM      3  C   UNL     1       7.533   1.012  -0.899  0.00  0.00    +0.020 C 
BRANCH   3   7
ATOM      4  C   UNL     1       9.709   1.855  -3.670  0.00  0.00    +0.163 A 
ATOM      5  C   UNL     1      10.026   2.851  -2.798  0.00  0.00    +0.230 A 
ATOM      6  O   UNL     1       9.278   2.662  -1.699  0.00  0.00    -0.449 OA
ATOM      7  C   UNL     1       8.518   1.575  -1.891  0.00  0.00    +0.179 A 
ATOM      8  N   UNL     1       8.763   1.084  -3.070  0.00  0.00    -0.210 NA
BRANCH   4  10
ATOM      9  N   UNL     1       9.799   0.679  -5.811  0.00  0.00    -0.307 N 
ATOM     10  C   UNL     1      10.280   1.654  -5.014  0.00  0.00    +0.266 C 
ATOM     11  O   UNL     1      11.184   2.368  -5.404  0.00  0.00    -0.268 OA
ATOM     12  H   UNL     1       9.132   0.061  -5.473  0.00  0.00    +0.149 HD
BRANCH   9  13
ATOM     13  C   UNL     1      10.285   0.551  -7.187  0.00  0.00    +0.070 C 
ATOM     14  C   UNL     1      11.573  -0.275  -7.199  0.00  0.00    +0.028 C 
BRANCH  13  16
ATOM     15  C   UNL     1       7.979   0.740  -8.130  0.00  0.00    +0.005 C 
ATOM     16  C   UNL     1       9.224  -0.146  -8.040  0.00  0.00    +0.018 C 
ENDBRANCH  13  16
ENDBRANCH   9  13
ENDBRANCH   4  10
ENDBRANCH   3   7
ENDBRANCH   1   3
BRANCH   1  17
ATOM     17  C   UNL     1       9.184   0.806   0.828  0.00  0.00    -0.042 C 
BRANCH  17  18
ATOM     18  C   UNL     1       9.976  -0.171   1.658  0.00  0.00    -0.060 A 
ATOM     19  C   UNL     1       9.520  -0.543   2.910  0.00  0.00    +0.002 A 
ATOM     20  C   UNL     1      10.244  -1.440   3.674  0.00  0.00    +0.004 A 
ATOM     21  C   UNL     1      11.426  -1.966   3.188  0.00  0.00    +0.046 A 
ATOM     22  C   UNL     1      11.886  -1.595   1.933  0.00  0.00    +0.129 A 
ATOM     23  C   UNL     1      11.154  -0.699   1.166  0.00  0.00    +0.048 A 
BRANCH  22  24
ATOM     24  O   UNL     1      13.047  -2.111   1.453  0.00  0.00    -0.456 OA
BRANCH  24  25
ATOM     25  C   UNL     1      14.159  -1.331   1.498  0.00  0.00    +0.128 A 
ATOM     26  C   UNL     1      14.104  -0.077   2.091  0.00  0.00    +0.046 A 
ATOM     27  C   UNL     1      15.236   0.715   2.135  0.00  0.00    +0.004 A 
ATOM     28  C   UNL     1      16.421   0.259   1.588  0.00  0.00    +0.000 A 
ATOM     29  C   UNL     1      16.478  -0.990   0.997  0.00  0.00    +0.004 A 
ATOM     30  C   UNL     1      15.351  -1.788   0.956  0.00  0.00    +0.046 A 
ENDBRANCH  24  25
ENDBRANCH  22  24
ENDBRANCH  17  18
ENDBRANCH   1  17
BRANCH   1  31
ATOM     31  C   UNL     1       7.235  -0.593   0.858  0.00  0.00    -0.042 C 
BRANCH  31  32
ATOM     32  C   UNL     1       6.326  -1.448   0.014  0.00  0.00    -0.060 A 
ATOM     33  C   UNL     1       5.111  -0.948  -0.415  0.00  0.00    +0.005 A 
ATOM     34  C   UNL     1       4.273  -1.729  -1.190  0.00  0.00    +0.050 A 
ATOM     35  C   UNL     1       4.650  -3.015  -1.538  0.00  0.00    +0.166 A 
ATOM     36  C   UNL     1       5.874  -3.520  -1.105  0.00  0.00    +0.166 A 
ATOM     37  C   UNL     1       6.711  -2.730  -0.334  0.00  0.00    +0.051 A 
ATOM     38  O   UNL     1       6.011  -4.794  -1.575  0.00  0.00    -0.453 OA
ATOM     39  C   UNL     1       4.686  -5.209  -1.953  0.00  0.00    +0.466 C 
ATOM     40  O   UNL     1       4.020  -3.974  -2.278  0.00  0.00    -0.453 OA
ENDBRANCH  31  32
ENDBRANCH   1  31
TORSDOF 11
