REMARK  Name = ZINC04745204
REMARK  5 active torsions:
REMARK  status: ('A' for Active; 'I' for Inactive)
REMARK    1  A    between atoms: C_13  and  C_28
REMARK    2  A    between atoms: N_30  and  C_31
REMARK    3  A    between atoms: C_31  and  C_32
REMARK    4  A    between atoms: C_32  and  C_33
REMARK    5  A    between atoms: C_33  and  O_34
REMARK                            x       y       z     vdW  Elec       q    Type
REMARK                         _______ _______ _______ _____ _____    ______ ____
ROOT
ATOM      1  C   UNL     1       1.400   7.016  -3.927  0.00  0.00    +0.000 C 
ATOM      2  C   UNL     1       2.317   7.048  -2.703  0.00  0.00    +0.005 C 
ATOM      3  C   UNL     1       1.667   6.264  -1.560  0.00  0.00    +0.065 C 
ATOM      4  C   UNL     1       1.434   4.820  -1.999  0.00  0.00    +0.171 C 
ATOM      5  C   UNL     1       0.532   4.779  -3.230  0.00  0.00    +0.065 C 
ATOM      6  C   UNL     1       1.185   5.567  -4.368  0.00  0.00    +0.005 C 
ATOM      7  O   UNL     1       0.818   4.075  -0.940  0.00  0.00    -0.340 OA
ATOM      8  C   UNL     1       1.781   3.121  -0.526  0.00  0.00    +0.187 C 
ATOM      9  C   UNL     1       2.540   2.866  -1.864  0.00  0.00    +0.191 C 
ATOM     10  O   UNL     1       2.708   4.207  -2.318  0.00  0.00    -0.340 OA
ATOM     11  C   UNL     1       3.781   2.050  -1.569  0.00  0.00    +0.238 C 
ATOM     12  O   UNL     1       3.315   0.772  -1.045  0.00  0.00    -0.333 OA
ATOM     13  C   UNL     1       1.907   0.729  -1.010  0.00  0.00    +0.286 C 
ATOM     14  C   UNL     1       1.368   1.788  -0.001  0.00  0.00    +0.209 C 
ATOM     15  O   UNL     1      -0.018   1.444   0.010  0.00  0.00    -0.338 OA
ATOM     16  C   UNL     1       0.002  -0.004   0.002  0.00  0.00    +0.174 C 
ATOM     17  O   UNL     1       1.242  -0.450  -0.589  0.00  0.00    -0.317 OA
ATOM     18  C   UNL     1      -1.172  -0.523  -0.825  0.00  0.00    +0.065 C 
ATOM     19  C   UNL     1      -2.487  -0.061  -0.192  0.00  0.00    +0.005 C 
ATOM     20  C   UNL     1      -2.580  -0.595   1.238  0.00  0.00    +0.000 C 
ATOM     21  C   UNL     1      -1.409  -0.055   2.062  0.00  0.00    +0.005 C 
ATOM     22  C   UNL     1      -0.091  -0.518   1.437  0.00  0.00    +0.065 C 
ENDROOT
BRANCH  11  23
ATOM     23  C   UNL     1       4.569   1.832  -2.835  0.00  0.00    +0.245 C 
ATOM     24  O   UNL     1       4.701   0.713  -3.282  0.00  0.00    -0.273 OA
ATOM     25  N   UNL     1       5.127   2.882  -3.471  0.00  0.00    -0.313 N 
ATOM     26  H   UNL     1       5.021   3.777  -3.113  0.00  0.00    +0.149 HD
BRANCH  25  27
ATOM     27  C   UNL     1       5.893   2.671  -4.701  0.00  0.00    +0.106 C 
BRANCH  27  28
ATOM     28  C   UNL     1       6.413   4.014  -5.215  0.00  0.00    +0.046 C 
BRANCH  28  29
ATOM     29  C   UNL     1       7.214   3.793  -6.500  0.00  0.00    +0.157 C 
BRANCH  29  30
ATOM     30  O   UNL     1       7.700   5.048  -6.981  0.00  0.00    -0.395 OA
ATOM     31  H   UNL     1       8.217   4.984  -7.795  0.00  0.00    +0.209 HD
ENDBRANCH  29  30
ENDBRANCH  28  29
ENDBRANCH  27  28
ENDBRANCH  25  27
ENDBRANCH  11  23
TORSDOF 5
