REMARK  Name = ZINC67571699
REMARK  5 active torsions:
REMARK  status: ('A' for Active; 'I' for Inactive)
REMARK    1  A    between atoms: C_1  and  C_2
REMARK    2  A    between atoms: C_2  and  C_24
REMARK    3  A    between atoms: N_5  and  N_9
REMARK    4  A    between atoms: C_10  and  C_12
REMARK    5  A    between atoms: C_15  and  C_17
REMARK                            x       y       z     vdW  Elec       q    Type
REMARK                         _______ _______ _______ _____ _____    ______ ____
ROOT
ATOM      1  C   UNL     1      -0.019   1.526   0.010  0.00  0.00    +0.047 C 
ATOM      2  C   UNL     1       0.002  -0.004   0.002  0.00  0.00    +0.137 C 
ATOM      3  C   UNL     1       0.815  -0.520  -1.169  0.00  0.00    +0.267 C 
ATOM      4  O   UNL     1       0.595  -0.342  -2.348  0.00  0.00    -0.271 OA
ATOM      5  N   UNL     1       1.833  -1.217  -0.627  0.00  0.00    -0.137 N 
ATOM      6  C   UNL     1       1.777  -1.214   0.710  0.00  0.00    +0.327 C 
ATOM      7  O   UNL     1       2.586  -1.776   1.421  0.00  0.00    -0.251 OA
ATOM      8  N   UNL     1       0.724  -0.519   1.178  0.00  0.00    -0.280 N 
ATOM      9  H   UNL     1       0.487  -0.383   2.109  0.00  0.00    +0.152 HD
ENDROOT
BRANCH   2  10
ATOM     10  C   UNL     1      -1.401  -0.551  -0.040  0.00  0.00    -0.015 A 
ATOM     11  C   UNL     1      -2.005  -0.815  -1.256  0.00  0.00    +0.006 A 
ATOM     12  C   UNL     1      -3.292  -1.317  -1.294  0.00  0.00    +0.000 A 
ATOM     13  C   UNL     1      -3.976  -1.556  -0.117  0.00  0.00    +0.000 A 
ATOM     14  C   UNL     1      -3.372  -1.294   1.099  0.00  0.00    +0.000 A 
ATOM     15  C   UNL     1      -2.083  -0.796   1.137  0.00  0.00    +0.006 A 
ENDBRANCH   2  10
BRANCH   5  16
ATOM     16  N   UNL     1       2.826  -1.867  -1.372  0.00  0.00    -0.223 N 
ATOM     17  C   UNL     1       4.063  -1.337  -1.451  0.00  0.00    +0.233 C 
ATOM     18  O   UNL     1       4.316  -0.299  -0.878  0.00  0.00    -0.274 OA
ATOM     19  H   UNL     1       2.623  -2.697  -1.830  0.00  0.00    +0.174 HD
BRANCH  17  20
ATOM     20  C   UNL     1       5.131  -2.036  -2.252  0.00  0.00    +0.084 C 
ATOM     21  C   UNL     1       5.608  -1.357  -3.538  0.00  0.00    +0.022 C 
ATOM     22  C   UNL     1       6.514  -1.383  -2.305  0.00  0.00    +0.032 C 
BRANCH  22  23
ATOM     23  C   UNL     1       7.713  -2.296  -2.342  0.00  0.00    -0.041 A 
ATOM     24  C   UNL     1       7.867  -3.193  -3.383  0.00  0.00    +0.004 A 
ATOM     25  C   UNL     1       8.966  -4.030  -3.419  0.00  0.00    +0.003 A 
ATOM     26  C   UNL     1       9.912  -3.972  -2.413  0.00  0.00    +0.038 A 
ATOM     27  C   UNL     1       9.760  -3.075  -1.371  0.00  0.00    +0.124 A 
ATOM     28  C   UNL     1       8.661  -2.232  -1.339  0.00  0.00    +0.042 A 
ATOM     29  F   UNL     1      10.684  -3.018  -0.387  0.00  0.00    -0.205 F 
ENDBRANCH  22  23
ENDBRANCH  17  20
ENDBRANCH   5  16
TORSDOF 4
