REMARK  Name = ZINC59095141
REMARK  11 active torsions:
REMARK  status: ('A' for Active; 'I' for Inactive)
REMARK    1  A    between atoms: C_1  and  C_2
REMARK    2  A    between atoms: C_7  and  C_8
REMARK    3  A    between atoms: C_8  and  N_9
REMARK    4  A    between atoms: N_9  and  C_10
REMARK    5  A    between atoms: N_9  and  C_20
REMARK    6  A    between atoms: C_12  and  C_18
REMARK    7  A    between atoms: C_12  and  C_19
REMARK    8  A    between atoms: C_14  and  C_16
REMARK    9  A    between atoms: C_14  and  C_17
REMARK   10  A    between atoms: C_20  and  N_22
REMARK   11  A    between atoms: N_22  and  C_23
REMARK                            x       y       z     vdW  Elec       q    Type
REMARK                         _______ _______ _______ _____ _____    ______ ____
ROOT
ATOM      1  N   UNL     1      -1.642  -0.001   2.729  0.00  0.00    -0.305 N 
ENDROOT
BRANCH   1   2
ATOM      2  C   UNL     1      -2.478  -0.997   3.410  0.00  0.00    +0.073 C 
ATOM      3  C   UNL     1      -2.846  -0.478   4.801  0.00  0.00    +0.009 C 
ATOM      4  C   UNL     1      -3.727  -1.500   5.519  0.00  0.00    -0.072 C 
ATOM      5  N   UNL     1      -4.896  -1.865   4.732  0.00  0.00    +0.386 N 
ATOM      6  C   UNL     1      -4.692  -2.183   3.328  0.00  0.00    -0.072 C 
ATOM      7  C   UNL     1      -3.768  -1.200   2.616  0.00  0.00    +0.009 C 
ATOM      8  C   UNL     1      -6.071  -2.103   2.629  0.00  0.00    -0.010 C 
ATOM      9  C   UNL     1      -4.178  -3.612   3.139  0.00  0.00    -0.010 C 
ATOM     10  C   UNL     1      -2.900  -2.720   5.922  0.00  0.00    -0.010 C 
ATOM     11  C   UNL     1      -4.230  -0.836   6.822  0.00  0.00    -0.010 C 
ATOM     12  H   UNL     1      -5.348  -2.665   5.181  0.00  0.00    -0.084 HD
ATOM     13  H   UNL     1      -5.575  -1.102   4.794  0.00  0.00    -0.084 HD
ENDBRANCH   1   2
BRANCH   1  14
ATOM     14  C   UNL     1      -2.129   1.232   2.482  0.00  0.00    +0.138 C 
ATOM     15  S   UNL     1      -3.672   1.677   3.074  0.00  0.00    -0.018 S 
BRANCH  14  16
ATOM     16  N   UNL     1      -1.400   2.114   1.770  0.00  0.00    -0.296 N 
ATOM     17  H   UNL     1      -1.656   2.332   0.860  0.00  0.00    +0.154 HD
BRANCH  16  18
ATOM     18  C   UNL     1      -0.274   2.716   2.343  0.00  0.00    +0.051 A 
ATOM     19  C   UNL     1       0.136   2.353   3.619  0.00  0.00    +0.025 A 
ATOM     20  C   UNL     1       1.248   2.948   4.181  0.00  0.00    +0.002 A 
ATOM     21  C   UNL     1       1.953   3.906   3.476  0.00  0.00    +0.002 A 
ATOM     22  C   UNL     1       1.548   4.271   2.205  0.00  0.00    +0.022 A 
ATOM     23  C   UNL     1       0.440   3.675   1.634  0.00  0.00    +0.062 A 
ATOM     24 CL   UNL     1      -0.064   4.127   0.035  0.00  0.00    -0.082 Cl
ENDBRANCH  16  18
ENDBRANCH  14  16
ENDBRANCH   1  14
BRANCH   1  25
ATOM     25  C   UNL     1      -0.279  -0.346   2.317  0.00  0.00    +0.142 C 
BRANCH  25  32
ATOM     26  C   UNL     1       2.145  -1.343   1.102  0.00  0.00    +0.044 C 
ATOM     27  C   UNL     1       0.872  -1.276   0.299  0.00  0.00    -0.046 A 
ATOM     28  C   UNL     1       0.862  -1.697  -1.018  0.00  0.00    +0.003 A 
ATOM     29  C   UNL     1      -0.305  -1.636  -1.755  0.00  0.00    +0.000 A 
ATOM     30  C   UNL     1      -1.464  -1.153  -1.175  0.00  0.00    +0.000 A 
ATOM     31  C   UNL     1      -1.455  -0.733   0.142  0.00  0.00    +0.005 A 
ATOM     32  C   UNL     1      -0.288  -0.799   0.880  0.00  0.00    -0.027 A 
ENDBRANCH  25  32
ENDBRANCH   1  25
TORSDOF 6
