REMARK  Name = ZINC15958405
REMARK  9 active torsions:
REMARK  status: ('A' for Active; 'I' for Inactive)
REMARK    1  A    between atoms: C_1  and  C_2
REMARK    2  A    between atoms: C_2  and  C_3
REMARK    3  A    between atoms: C_17  and  C_20
REMARK    4  A    between atoms: C_20  and  C_22
REMARK    5  A    between atoms: C_20  and  O_23
REMARK    6  A    between atoms: N_26  and  C_29
REMARK    7  A    between atoms: C_29  and  C_30
REMARK    8  A    between atoms: C_35  and  O_36
REMARK    9  A    between atoms: O_36  and  C_37
REMARK                            x       y       z     vdW  Elec       q    Type
REMARK                         _______ _______ _______ _____ _____    ______ ____
ROOT
ATOM      1  C   UNL     1      -1.534  -0.541   0.250  0.00  0.00    -0.026 A 
ATOM      2  C   UNL     1      -2.156  -1.021   1.384  0.00  0.00    +0.005 A 
ATOM      3  C   UNL     1      -3.427  -1.560   1.308  0.00  0.00    +0.001 A 
ATOM      4  C   UNL     1      -4.079  -1.617   0.089  0.00  0.00    +0.008 A 
ATOM      5  C   UNL     1      -3.463  -1.139  -1.045  0.00  0.00    +0.004 A 
ATOM      6  C   UNL     1      -2.185  -0.590  -0.980  0.00  0.00    +0.042 A 
ATOM      7  N   UNL     1      -1.775  -0.171  -2.248  0.00  0.00    -0.283 N 
ATOM      8  C   UNL     1      -2.712  -0.400  -3.187  0.00  0.00    +0.243 C 
ATOM      9  O   UNL     1      -2.632  -0.141  -4.369  0.00  0.00    -0.273 OA
ATOM     10  C   UNL     1      -3.874  -1.051  -2.487  0.00  0.00    +0.136 C 
ATOM     11  C   UNL     1      -4.190  -2.435  -3.068  0.00  0.00    +0.123 C 
ATOM     12  C   UNL     1      -5.739  -2.543  -2.998  0.00  0.00    +0.109 C 
ATOM     13  C   UNL     1      -6.201  -1.219  -2.353  0.00  0.00    +0.096 C 
ATOM     14  N   UNL     1      -5.103  -0.252  -2.652  0.00  0.00    -0.293 NA
ATOM     15  C   UNL     1      -6.153  -2.579  -4.451  0.00  0.00    +0.228 C 
ATOM     16  O   UNL     1      -7.295  -2.651  -4.853  0.00  0.00    -0.275 OA
ATOM     17  N   UNL     1      -5.064  -2.518  -5.225  0.00  0.00    -0.237 N 
ATOM     18  C   UNL     1      -3.893  -2.443  -4.551  0.00  0.00    +0.229 C 
ATOM     19  O   UNL     1      -2.787  -2.388  -5.044  0.00  0.00    -0.275 OA
ATOM     20  H   UNL     1      -0.914   0.239  -2.430  0.00  0.00    +0.155 HD
ATOM     21  H   UNL     1      -5.121   0.521  -2.004  0.00  0.00    +0.124 HD
ENDROOT
BRANCH   1  23
ATOM     22  C   UNL     1      -0.246   1.563   0.499  0.00  0.00    +0.009 C 
ATOM     23  C   UNL     1      -0.148   0.044   0.344  0.00  0.00    +0.033 C 
ENDBRANCH   1  23
BRANCH  13  24
ATOM     24  C   UNL     1      -7.504  -0.740  -2.995  0.00  0.00    +0.129 C 
ATOM     25  C   UNL     1      -8.630  -1.719  -2.654  0.00  0.00    +0.039 C 
BRANCH  24  26
ATOM     26  O   UNL     1      -7.833   0.557  -2.494  0.00  0.00    -0.390 OA
ATOM     27  H   UNL     1      -7.959   0.589  -1.536  0.00  0.00    +0.210 HD
ENDBRANCH  24  26
ENDBRANCH  13  24
BRANCH  17  28
ATOM     28  C   UNL     1      -5.130  -2.537  -6.689  0.00  0.00    +0.155 C 
BRANCH  28  29
ATOM     29  C   UNL     1      -5.242  -1.126  -7.205  0.00  0.00    +0.012 A 
ATOM     30  C   UNL     1      -6.473  -0.621  -7.578  0.00  0.00    +0.009 A 
ATOM     31  C   UNL     1      -6.576   0.673  -8.052  0.00  0.00    +0.001 A 
ATOM     32  C   UNL     1      -5.448   1.466  -8.154  0.00  0.00    +0.004 A 
ATOM     33  C   UNL     1      -4.215   0.967  -7.783  0.00  0.00    +0.046 A 
ATOM     34  C   UNL     1      -4.109  -0.330  -7.301  0.00  0.00    +0.125 A 
BRANCH  34  35
ATOM     35  O   UNL     1      -2.898  -0.822  -6.930  0.00  0.00    -0.495 OA
ATOM     36  C   UNL     1      -1.776   0.054  -7.056  0.00  0.00    +0.277 C 
ENDBRANCH  34  35
ENDBRANCH  28  29
ENDBRANCH  17  28
TORSDOF 6
