REMARK  Name = ZINC43549212
REMARK  12 active torsions:
REMARK  status: ('A' for Active; 'I' for Inactive)
REMARK    1  A    between atoms: C_1  and  C_2
REMARK    2  A    between atoms: C_7  and  C_9
REMARK    3  A    between atoms: C_9  and  S_10
REMARK    4  A    between atoms: S_10  and  C_13
REMARK    5  A    between atoms: C_13  and  C_14
REMARK    6  A    between atoms: C_13  and  C_15
REMARK    7  A    between atoms: C_13  and  C_16
REMARK    8  A    between atoms: C_18  and  C_39
REMARK    9  A    between atoms: C_21  and  O_38
REMARK   10  A    between atoms: C_23  and  C_27
REMARK   11  A    between atoms: C_27  and  C_29
REMARK   12  A    between atoms: C_27  and  C_30
REMARK                            x       y       z     vdW  Elec       q    Type
REMARK                         _______ _______ _______ _____ _____    ______ ____
ROOT
ATOM      1  C   UNL     1       2.345   3.281   1.207  0.00  0.00    +0.014 C 
ATOM      2  C   UNL     1       1.336   2.204   0.802  0.00  0.00    +0.042 C 
ATOM      3  C   UNL     1      -0.074   2.707   1.062  0.00  0.00    +0.055 A 
ATOM      4  C   UNL     1      -1.017   1.880   1.586  0.00  0.00    +0.014 A 
ATOM      5  S   UNL     1      -2.439   2.931   1.682  0.00  0.00    -0.075 S 
ATOM      6  C   UNL     1      -1.723   4.322   1.056  0.00  0.00    +0.100 A 
ATOM      7  N   UNL     1      -0.495   3.942   0.813  0.00  0.00    -0.247 NA
ATOM      8  C   UNL     1      -0.856   0.450   1.973  0.00  0.00    +0.051 C 
ATOM      9  C   UNL     1       0.456  -0.076   1.386  0.00  0.00    -0.022 C 
ATOM     10  C   UNL     1       1.583   0.935   1.627  0.00  0.00    +0.033 C 
ATOM     11  C   UNL     1       2.895   0.300   1.136  0.00  0.00    +0.123 C 
ATOM     12  C   UNL     1       2.781   0.037  -0.367  0.00  0.00    +0.029 C 
ATOM     13  C   UNL     1       1.623  -0.922  -0.644  0.00  0.00    +0.007 C 
ATOM     14  C   UNL     1       0.315  -0.324  -0.114  0.00  0.00    +0.008 C 
ATOM     15  C   UNL     1       0.828  -1.387   2.081  0.00  0.00    +0.012 C 
ENDROOT
BRANCH  12  16
ATOM     16  C   UNL     1       4.084  -0.585  -0.874  0.00  0.00    +0.078 C 
ATOM     17  C   UNL     1       3.927  -0.968  -2.347  0.00  0.00    +0.017 C 
BRANCH  16  18
ATOM     18  C   UNL     1       4.401  -1.817  -0.065  0.00  0.00    +0.219 C 
ATOM     19  O   UNL     1       3.513  -2.408   0.512  0.00  0.00    -0.275 OA
ATOM     20  N   UNL     1       5.670  -2.261   0.017  0.00  0.00    -0.300 N 
ATOM     21  C   UNL     1       6.750  -1.481  -0.590  0.00  0.00    +0.118 C 
ATOM     22  C   UNL     1       7.678  -0.951   0.510  0.00  0.00    +0.088 C 
ATOM     23  S   UNL     1       8.304  -2.362   1.471  0.00  0.00    -0.158 S 
ATOM     24  C   UNL     1       6.786  -3.231   1.967  0.00  0.00    +0.088 C 
ATOM     25  C   UNL     1       5.954  -3.515   0.717  0.00  0.00    +0.118 C 
ENDBRANCH  16  18
ENDBRANCH  12  16
BRANCH  11  26
ATOM     26  O   UNL     1       3.983   1.191   1.389  0.00  0.00    -0.391 OA
ATOM     27  H   UNL     1       4.837   0.870   1.069  0.00  0.00    +0.210 HD
ENDBRANCH  11  26
BRANCH   6  28
ATOM     28  C   UNL     1      -2.347   5.675   0.830  0.00  0.00    +0.229 C 
BRANCH  28  29
ATOM     29  S   UNL     1      -3.055   5.744  -0.839  0.00  0.00    -0.020 S 
ATOM     30  O   UNL     1      -1.995   5.650  -1.781  0.00  0.00    -0.173 OA
ATOM     31  O   UNL     1      -4.127   4.814  -0.911  0.00  0.00    -0.173 OA
BRANCH  29  32
ATOM     32  C   UNL     1      -3.743   7.420  -0.914  0.00  0.00    +0.080 C 
ATOM     33  C   UNL     1      -2.623   8.441  -0.706  0.00  0.00    +0.035 C 
ATOM     34  C   UNL     1      -4.390   7.645  -2.282  0.00  0.00    +0.035 C 
ATOM     35  C   UNL     1      -4.797   7.588   0.182  0.00  0.00    +0.035 C 
ENDBRANCH  29  32
ENDBRANCH  28  29
ENDBRANCH   6  28
TORSDOF 6
