REMARK  Name = ZINC20997243
REMARK  6 active torsions:
REMARK  status: ('A' for Active; 'I' for Inactive)
REMARK    1  A    between atoms: C_6  and  C_7
REMARK    2  A    between atoms: C_8  and  C_13
REMARK    3  A    between atoms: C_13  and  N_14
REMARK    4  A    between atoms: C_19  and  C_21
REMARK    5  A    between atoms: C_21  and  C_22
REMARK    6  A    between atoms: C_22  and  N_23
REMARK                            x       y       z     vdW  Elec       q    Type
REMARK                         _______ _______ _______ _____ _____    ______ ____
ROOT
ATOM      1  C   UNL     1       0.611   0.997   2.616  0.00  0.00    -0.039 C 
ENDROOT
BRANCH   1   2
ATOM      2  N   UNL     1       0.455   2.456   2.554  0.00  0.00    +0.384 N 
ATOM      3  C   UNL     1      -0.155   2.974   3.785  0.00  0.00    -0.078 C 
ATOM      4  C   UNL     1      -0.168   4.503   3.745  0.00  0.00    -0.019 C 
ATOM      5  C   UNL     1      -0.965   4.971   2.523  0.00  0.00    -0.003 C 
ATOM      6  C   UNL     1      -0.337   4.378   1.258  0.00  0.00    -0.015 C 
ATOM      7  C   UNL     1      -0.319   2.852   1.370  0.00  0.00    -0.067 C 
ATOM      8  H   UNL     1       1.457   2.901   2.463  0.00  0.00    -0.081 HD
BRANCH   7   9
ATOM      9  C   UNL     1       0.325   2.257   0.117  0.00  0.00    +0.000 C 
BRANCH   9  10
ATOM     10  C   UNL     1      -0.546   2.569  -1.102  0.00  0.00    +0.083 C 
BRANCH  10  11
ATOM     11  N   UNL     1       0.070   1.993  -2.305  0.00  0.00    -0.298 NA
ATOM     12  C   UNL     1       1.344   2.658  -2.614  0.00  0.00    +0.112 C 
ATOM     13  C   UNL     1       1.979   1.989  -3.836  0.00  0.00    +0.175 C 
ATOM     14  O   UNL     1       1.061   2.040  -4.932  0.00  0.00    -0.377 OA
ATOM     15  C   UNL     1      -0.190   1.401  -4.665  0.00  0.00    +0.175 C 
ATOM     16  C   UNL     1      -0.847   2.064  -3.452  0.00  0.00    +0.112 C 
ENDBRANCH  10  11
ENDBRANCH   9  10
ENDBRANCH   7   9
ENDBRANCH   1   2
BRANCH   1  18
ATOM     17  C   UNL     1       2.888   0.819   3.857  0.00  0.00    +0.094 A 
ATOM     18  C   UNL     1       1.493   0.636   3.783  0.00  0.00    -0.019 A 
ATOM     19  C   UNL     1       1.086   0.084   4.947  0.00  0.00    +0.107 A 
ATOM     20  N   UNL     1       2.173  -0.087   5.730  0.00  0.00    -0.284 N 
ATOM     21  H   UNL     1       2.066  -0.532   6.730  0.00  0.00    +0.188 HD
ATOM     22  N   UNL     1       3.292   0.383   5.031  0.00  0.00    -0.174 NA
BRANCH  17  28
ATOM     23  C   UNL     1       3.554   1.046   1.466  0.00  0.00    +0.014 A 
ATOM     24  C   UNL     1       4.355   1.588   0.481  0.00  0.00    +0.050 A 
ATOM     25  C   UNL     1       5.355   2.489   0.814  0.00  0.00    +0.166 A 
ATOM     26  C   UNL     1       5.554   2.849   2.146  0.00  0.00    +0.167 A 
ATOM     27  C   UNL     1       4.750   2.311   3.134  0.00  0.00    +0.059 A 
ATOM     28  C   UNL     1       3.749   1.402   2.798  0.00  0.00    +0.006 A 
ATOM     29  O   UNL     1       6.588   3.739   2.207  0.00  0.00    -0.453 OA
ATOM     30  C   UNL     1       7.283   3.607   0.953  0.00  0.00    +0.466 C 
ATOM     31  O   UNL     1       6.264   3.154   0.042  0.00  0.00    -0.453 OA
ENDBRANCH  17  28
ENDBRANCH   1  18
TORSDOF 6
