REMARK  Name = ZINC39912221
REMARK  10 active torsions:
REMARK  status: ('A' for Active; 'I' for Inactive)
REMARK    1  A    between atoms: C_1  and  C_2
REMARK    2  A    between atoms: C_2  and  O_3
REMARK    3  A    between atoms: O_3  and  C_4
REMARK    4  A    between atoms: C_8  and  C_10
REMARK    5  A    between atoms: C_13  and  C_27
REMARK    6  A    between atoms: N_20  and  C_21
REMARK    7  A    between atoms: C_21  and  C_22
REMARK    8  A    between atoms: C_29  and  C_35
REMARK    9  A    between atoms: C_31  and  C_34
REMARK   10  A    between atoms: C_32  and  O_33
REMARK                            x       y       z     vdW  Elec       q    Type
REMARK                         _______ _______ _______ _____ _____    ______ ____
ROOT
ATOM      1  C   UNL     1       1.893  -4.397   3.434  0.00  0.00    +0.142 C 
ATOM      2  C   UNL     1       1.115  -4.694   4.687  0.00  0.00    +0.035 A 
ATOM      3  C   UNL     1       0.285  -4.209   5.703  0.00  0.00    +0.102 A 
ATOM      4  N   UNL     1       0.012  -5.220   6.505  0.00  0.00    -0.173 NA
ATOM      5  N   UNL     1       0.588  -6.294   6.097  0.00  0.00    -0.272 N 
ATOM      6  H   UNL     1       0.527  -7.158   6.532  0.00  0.00    +0.189 HD
ATOM      7  C   UNL     1       1.299  -6.037   4.959  0.00  0.00    +0.126 A 
ATOM      8  C   UNL     1       2.167  -6.608   3.924  0.00  0.00    +0.266 C 
ATOM      9  O   UNL     1       2.519  -7.771   3.877  0.00  0.00    -0.268 OA
ATOM     10  N   UNL     1       2.519  -5.663   3.032  0.00  0.00    -0.278 N 
ENDROOT
BRANCH   3  11
ATOM     11  C   UNL     1      -0.201  -2.815   5.850  0.00  0.00    +0.044 A 
ATOM     12  C   UNL     1       0.264  -1.819   4.995  0.00  0.00    +0.017 A 
ATOM     13  C   UNL     1      -0.190  -0.523   5.136  0.00  0.00    -0.049 A 
ATOM     14  C   UNL     1      -1.106  -0.209   6.125  0.00  0.00    +0.010 A 
ATOM     15  C   UNL     1      -1.573  -1.190   6.979  0.00  0.00    -0.008 A 
ATOM     16  C   UNL     1      -1.130  -2.496   6.844  0.00  0.00    +0.129 A 
ATOM     17  C   UNL     1      -2.570  -0.840   8.053  0.00  0.00    +0.047 C 
ATOM     18  C   UNL     1       0.314   0.554   4.210  0.00  0.00    +0.044 C 
BRANCH  16  19
ATOM     19  O   UNL     1      -1.593  -3.462   7.679  0.00  0.00    -0.506 OA
ATOM     20  H   UNL     1      -1.067  -3.572   8.483  0.00  0.00    +0.292 HD
ENDBRANCH  16  19
ENDBRANCH   3  11
BRANCH   1  25
ATOM     21  C   UNL     1       0.171  -2.147   0.934  0.00  0.00    +0.121 A 
ATOM     22  C   UNL     1      -0.743  -3.021   0.362  0.00  0.00    +0.045 A 
ATOM     23  C   UNL     1      -0.799  -4.335   0.786  0.00  0.00    +0.004 A 
ATOM     24  C   UNL     1       0.054  -4.779   1.780  0.00  0.00    +0.006 A 
ATOM     25  C   UNL     1       0.965  -3.910   2.351  0.00  0.00    -0.019 A 
ATOM     26  C   UNL     1       1.029  -2.596   1.927  0.00  0.00    +0.051 A 
BRANCH  21  27
ATOM     27  O   UNL     1       0.228  -0.855   0.518  0.00  0.00    -0.492 OA
BRANCH  27  29
ATOM     28  C   UNL     1      -0.473   1.016  -0.842  0.00  0.00    +0.048 C 
ATOM     29  C   UNL     1      -0.686  -0.462  -0.508  0.00  0.00    +0.225 C 
ENDBRANCH  27  29
ENDBRANCH  21  27
ENDBRANCH   1  25
BRANCH  10  30
ATOM     30  C   UNL     1       3.378  -5.862   1.862  0.00  0.00    +0.183 C 
BRANCH  30  31
ATOM     31  C   UNL     1       4.814  -5.614   2.244  0.00  0.00    +0.122 A 
ATOM     32  C   UNL     1       5.677  -6.540   2.700  0.00  0.00    +0.046 A 
ATOM     33  C   UNL     1       6.904  -5.877   2.933  0.00  0.00    +0.041 A 
ATOM     34  C   UNL     1       6.717  -4.586   2.604  0.00  0.00    +0.195 A 
ATOM     35  O   UNL     1       5.451  -4.434   2.183  0.00  0.00    -0.466 OA
ENDBRANCH  30  31
ENDBRANCH  10  30
TORSDOF 7
