REMARK  Name = ZINC32400869
REMARK  6 active torsions:
REMARK  status: ('A' for Active; 'I' for Inactive)
REMARK    1  A    between atoms: C_1  and  O_2
REMARK    2  A    between atoms: O_2  and  C_3
REMARK    3  A    between atoms: C_5  and  N_19
REMARK    4  A    between atoms: C_8  and  S_9
REMARK    5  A    between atoms: S_9  and  N_12
REMARK    6  A    between atoms: N_12  and  C_13
REMARK                            x       y       z     vdW  Elec       q    Type
REMARK                         _______ _______ _______ _____ _____    ______ ____
ROOT
ATOM      1  C   UNL     1      -3.703   1.907   0.030  0.00  0.00    +0.148 A 
ATOM      2  C   UNL     1      -2.492   1.229   0.021  0.00  0.00    +0.080 A 
ATOM      3  C   UNL     1      -1.306   1.936   0.019  0.00  0.00    +0.130 A 
ATOM      4  C   UNL     1      -1.324   3.319   0.032  0.00  0.00    +0.035 A 
ATOM      5  C   UNL     1      -2.529   3.997   0.037  0.00  0.00    +0.034 A 
ATOM      6  C   UNL     1      -3.719   3.294   0.038  0.00  0.00    +0.147 A 
ENDROOT
BRANCH   6   7
ATOM      7  S   UNL     1      -5.254   4.159   0.052  0.00  0.00    +0.062 S 
ATOM      8  O   UNL     1      -6.042   3.571   1.078  0.00  0.00    -0.153 OA
ATOM      9  O   UNL     1      -4.939   5.544   0.031  0.00  0.00    -0.153 OA
BRANCH   7  10
ATOM     10  N   UNL     1      -6.016   3.825  -1.380  0.00  0.00    -0.187 NA
ATOM     11  H   UNL     1      -6.045   4.594  -2.166  0.00  0.00    +0.148 HD
BRANCH  10  12
ATOM     12  C   UNL     1      -6.449   2.457  -1.677  0.00  0.00    +0.077 C 
ATOM     13  C   UNL     1      -5.375   1.750  -2.506  0.00  0.00    +0.020 C 
ATOM     14  C   UNL     1      -5.827   0.322  -2.817  0.00  0.00    +0.002 C 
ATOM     15  C   UNL     1      -7.136   0.363  -3.608  0.00  0.00    +0.000 C 
ATOM     16  C   UNL     1      -8.211   1.070  -2.779  0.00  0.00    +0.002 C 
ATOM     17  C   UNL     1      -7.758   2.498  -2.469  0.00  0.00    +0.020 C 
ENDBRANCH  10  12
ENDBRANCH   7  10
ENDBRANCH   6   7
BRANCH   3  18
ATOM     18  N   UNL     1      -0.014   1.214   0.009  0.00  0.00    +0.057 N 
ATOM     19  O   UNL     1       0.002  -0.004   0.002  0.00  0.00    -0.126 OA
ATOM     20  O   UNL     1       1.032   1.837   0.002  0.00  0.00    -0.126 OA
ENDBRANCH   3  18
BRANCH   1  22
ATOM     21  C   UNL     1      -4.780  -0.213   0.024  0.00  0.00    +0.277 C 
ATOM     22  O   UNL     1      -4.872   1.213   0.033  0.00  0.00    -0.493 OA
ENDBRANCH   1  22
TORSDOF 5
