REMARK  Name = ZINC39355749
REMARK  6 active torsions:
REMARK  status: ('A' for Active; 'I' for Inactive)
REMARK    1  A    between atoms: C_13  and  S_15
REMARK    2  A    between atoms: S_15  and  C_16
REMARK    3  A    between atoms: C_16  and  C_17
REMARK    4  A    between atoms: N_19  and  C_20
REMARK    5  A    between atoms: C_20  and  C_21
REMARK    6  A    between atoms: C_24  and  C_27
REMARK                            x       y       z     vdW  Elec       q    Type
REMARK                         _______ _______ _______ _____ _____    ______ ____
ROOT
ATOM      1  S   UNL     1       3.325  -5.124  -2.510  0.00  0.00    -0.075 S 
ENDROOT
BRANCH   1  13
ATOM      2  C   UNL     1      -0.016   1.348   0.009  0.00  0.00    +0.001 A 
ATOM      3  C   UNL     1       1.156   2.116   0.002  0.00  0.00    +0.002 A 
ATOM      4  C   UNL     1       2.382   1.544  -0.006  0.00  0.00    +0.026 A 
ATOM      5  C   UNL     1       2.491   0.080  -0.009  0.00  0.00    +0.046 A 
ATOM      6  N   UNL     1       3.530  -0.719  -0.048  0.00  0.00    -0.358 N 
ATOM      7  C   UNL     1       3.072  -2.091   0.097  0.00  0.00    +0.252 C 
ATOM      8  C   UNL     1       1.560  -2.038  -0.034  0.00  0.00    +0.117 C 
ATOM      9  C   UNL     1       1.230  -0.705  -0.013  0.00  0.00    +0.025 A 
ATOM     10  C   UNL     1       0.002  -0.004   0.002  0.00  0.00    +0.012 A 
ATOM     11  N   UNL     1       0.837  -3.136  -0.265  0.00  0.00    -0.147 NA
ATOM     12  N   UNL     1       1.456  -4.093  -0.888  0.00  0.00    -0.122 NA
ATOM     13  C   UNL     1       2.730  -3.957  -1.333  0.00  0.00    +0.208 C 
ATOM     14  N   UNL     1       3.548  -3.009  -0.936  0.00  0.00    -0.227 NA
ATOM     15  H   UNL     1       4.453  -0.440  -0.157  0.00  0.00    +0.162 HD
ENDBRANCH   1  13
BRANCH   1  16
ATOM     16  C   UNL     1       5.030  -4.593  -2.831  0.00  0.00    +0.173 C 
BRANCH  16  17
ATOM     17  C   UNL     1       5.665  -5.520  -3.836  0.00  0.00    +0.224 C 
ATOM     18  O   UNL     1       5.029  -6.447  -4.291  0.00  0.00    -0.275 OA
ATOM     19  N   UNL     1       6.938  -5.319  -4.228  0.00  0.00    -0.311 N 
ATOM     20  H   UNL     1       7.446  -4.577  -3.864  0.00  0.00    +0.149 HD
BRANCH  19  21
ATOM     21  C   UNL     1       7.555  -6.220  -5.205  0.00  0.00    +0.139 C 
BRANCH  21  22
ATOM     22  C   UNL     1       8.971  -5.779  -5.471  0.00  0.00    -0.030 A 
ATOM     23  C   UNL     1       9.231  -4.870  -6.482  0.00  0.00    +0.006 A 
ATOM     24  C   UNL     1      10.525  -4.462  -6.731  0.00  0.00    +0.015 A 
ATOM     25  C   UNL     1      11.574  -4.968  -5.960  0.00  0.00    +0.063 A 
ATOM     26  C   UNL     1      11.304  -5.886  -4.941  0.00  0.00    +0.015 A 
ATOM     27  C   UNL     1      10.005  -6.280  -4.700  0.00  0.00    +0.006 A 
BRANCH  25  28
ATOM     28  C   UNL     1      12.961  -4.537  -6.221  0.00  0.00    +0.387 C 
ATOM     29  O   UNL     1      13.194  -3.735  -7.114  0.00  0.00    -0.241 OA
ATOM     30  O   UNL     1      13.877  -4.983  -5.545  0.00  0.00    -0.241 OA
ENDBRANCH  25  28
ENDBRANCH  21  22
ENDBRANCH  19  21
ENDBRANCH  16  17
ENDBRANCH   1  16
TORSDOF 6
