REMARK  Name = ZINC04940826
REMARK  3 active torsions:
REMARK  status: ('A' for Active; 'I' for Inactive)
REMARK    1  A    between atoms: C_1  and  C_2
REMARK    2  A    between atoms: C_2  and  C_4
REMARK    3  A    between atoms: C_2  and  N_16
REMARK                            x       y       z     vdW  Elec       q    Type
REMARK                         _______ _______ _______ _____ _____    ______ ____
ROOT
ATOM      1  C   UNL     1       1.423   1.615  -0.003  0.00  0.00    +0.040 C 
ATOM      2  C   UNL     1      -0.013   1.086   0.008  0.00  0.00    +0.184 C 
ENDROOT
BRANCH   2   3
ATOM      3  C   UNL     1      -0.742   1.585  -1.213  0.00  0.00    +0.241 C 
ATOM      4  O   UNL     1      -1.736   2.268  -1.088  0.00  0.00    -0.273 OA
ATOM      5  N   UNL     1      -0.288   1.272  -2.443  0.00  0.00    -0.263 N 
ATOM      6  C   UNL     1      -0.959   1.731  -3.565  0.00  0.00    +0.165 A 
ATOM      7  N   UNL     1      -0.674   1.534  -4.832  0.00  0.00    -0.225 NA
ATOM      8  C   UNL     1      -1.423   2.047  -5.832  0.00  0.00    +0.080 A 
ATOM      9  C   UNL     1      -1.229   1.911  -7.226  0.00  0.00    +0.029 A 
ATOM     10  C   UNL     1      -2.091   2.501  -8.114  0.00  0.00    +0.002 A 
ATOM     11  C   UNL     1      -3.178   3.247  -7.682  0.00  0.00    +0.001 A 
ATOM     12  C   UNL     1      -3.398   3.401  -6.326  0.00  0.00    +0.017 A 
ATOM     13  C   UNL     1      -2.540   2.814  -5.429  0.00  0.00    +0.041 A 
ATOM     14  S   UNL     1      -2.434   2.735  -3.658  0.00  0.00    -0.052 S 
ATOM     15  H   UNL     1       0.507   0.726  -2.543  0.00  0.00    +0.157 HD
ENDBRANCH   2   3
BRANCH   2  16
ATOM     16  N   UNL     1      -0.698   1.558   1.213  0.00  0.00    -0.156 N 
ATOM     17  C   UNL     1      -0.917   2.831   1.577  0.00  0.00    +0.268 C 
ATOM     18  O   UNL     1      -0.535   3.753   0.883  0.00  0.00    -0.268 OA
ATOM     19  C   UNL     1      -1.631   3.080   2.836  0.00  0.00    +0.065 A 
ATOM     20  C   UNL     1      -1.989   4.294   3.448  0.00  0.00    +0.015 A 
ATOM     21  C   UNL     1      -2.666   4.296   4.646  0.00  0.00    +0.001 A 
ATOM     22  C   UNL     1      -3.006   3.110   5.273  0.00  0.00    +0.002 A 
ATOM     23  C   UNL     1      -2.661   1.902   4.684  0.00  0.00    +0.029 A 
ATOM     24  C   UNL     1      -1.990   1.896   3.494  0.00  0.00    +0.121 A 
ATOM     25  S   UNL     1      -1.379   0.624   2.423  0.00  0.00    +0.078 S 
ATOM     26  O   UNL     1      -2.500  -0.051   1.868  0.00  0.00    -0.150 OA
ATOM     27  O   UNL     1      -0.323  -0.040   3.102  0.00  0.00    -0.150 OA
ENDBRANCH   2  16
TORSDOF 2
