REMARK  Name = ZINC08157078
REMARK  7 active torsions:
REMARK  status: ('A' for Active; 'I' for Inactive)
REMARK    1  A    between atoms: C_3  and  O_27
REMARK    2  A    between atoms: C_6  and  N_7
REMARK    3  A    between atoms: C_8  and  S_12
REMARK    4  A    between atoms: S_12  and  C_13
REMARK    5  A    between atoms: C_13  and  C_14
REMARK    6  A    between atoms: N_16  and  C_17
REMARK    7  A    between atoms: C_18  and  C_25
REMARK                            x       y       z     vdW  Elec       q    Type
REMARK                         _______ _______ _______ _____ _____    ______ ____
ROOT
ATOM      1  C   UNL     1       0.035   4.228   0.024  0.00  0.00    +0.173 C 
ENDROOT
BRANCH   1   2
ATOM      2  C   UNL     1       0.185   5.728   0.029  0.00  0.00    +0.228 C 
ATOM      3  O   UNL     1       1.290   6.227   0.021  0.00  0.00    -0.275 OA
ATOM      4  N   UNL     1      -0.909   6.515   0.044  0.00  0.00    -0.278 N 
ATOM      5  H   UNL     1      -1.794   6.116   0.051  0.00  0.00    +0.155 HD
BRANCH   4   6
ATOM      6  C   UNL     1      -0.771   7.896   0.049  0.00  0.00    +0.090 A 
ATOM      7  C   UNL     1      -1.764   8.859   0.058  0.00  0.00    +0.084 A 
ATOM      8  C   UNL     1      -1.348  10.261   0.066  0.00  0.00    -0.018 A 
ATOM      9  C   UNL     1      -0.018  10.462   0.055  0.00  0.00    -0.004 A 
ATOM     10  S   UNL     1       0.685   8.831   0.039  0.00  0.00    -0.077 S 
ATOM     11  C   UNL     1       0.332  11.925   0.061  0.00  0.00    +0.043 C 
ATOM     12  C   UNL     1      -0.964  12.633   0.516  0.00  0.00    +0.010 C 
ATOM     13  C   UNL     1      -2.044  11.623   0.078  0.00  0.00    +0.037 C 
BRANCH   7  14
ATOM     14  C   UNL     1      -3.149   8.496   0.063  0.00  0.00    +0.102 C 
ATOM     15  N   UNL     1      -4.248   8.209   0.068  0.00  0.00    -0.191 NA
ENDBRANCH   7  14
ENDBRANCH   4   6
ENDBRANCH   1   2
BRANCH   1  16
ATOM     16  S   UNL     1       1.672   3.458   0.004  0.00  0.00    -0.075 S 
BRANCH  16  18
ATOM     17  N   UNL     1       2.052   0.694  -0.014  0.00  0.00    -0.187 N 
ATOM     18  C   UNL     1       1.211   1.758  -0.000  0.00  0.00    +0.214 A 
ATOM     19  N   UNL     1      -0.015   1.280   0.009  0.00  0.00    -0.101 NA
ATOM     20  N   UNL     1       0.002  -0.004   0.002  0.00  0.00    -0.022 NA
ATOM     21  N   UNL     1       1.216  -0.437  -0.012  0.00  0.00    -0.038 NA
BRANCH  17  27
ATOM     22  C   UNL     1       4.127   1.712  -0.723  0.00  0.00    +0.031 A 
ATOM     23  C   UNL     1       5.507   1.738  -0.730  0.00  0.00    +0.047 A 
ATOM     24  C   UNL     1       6.223   0.761  -0.053  0.00  0.00    +0.117 A 
ATOM     25  C   UNL     1       5.552  -0.238   0.637  0.00  0.00    +0.047 A 
ATOM     26  C   UNL     1       4.172  -0.261   0.651  0.00  0.00    +0.031 A 
ATOM     27  C   UNL     1       3.455   0.716  -0.027  0.00  0.00    +0.070 A 
BRANCH  24  28
ATOM     28  O   UNL     1       7.582   0.783  -0.066  0.00  0.00    -0.507 OA
ATOM     29  H   UNL     1       7.977   0.287  -0.796  0.00  0.00    +0.292 HD
ENDBRANCH  24  28
ENDBRANCH  17  27
ENDBRANCH  16  18
ENDBRANCH   1  16
TORSDOF 7
