REMARK  Name = ZINC09298141
REMARK  10 active torsions:
REMARK  status: ('A' for Active; 'I' for Inactive)
REMARK    1  A    between atoms: C_1  and  C_2
REMARK    2  A    between atoms: C_9  and  N_18
REMARK    3  A    between atoms: C_10  and  C_11
REMARK    4  A    between atoms: C_14  and  O_16
REMARK    5  A    between atoms: O_16  and  C_17
REMARK    6  A    between atoms: C_19  and  C_21
REMARK    7  A    between atoms: C_24  and  O_27
REMARK    8  A    between atoms: O_27  and  C_28
REMARK    9  A    between atoms: C_28  and  C_29
REMARK   10  A    between atoms: C_28  and  C_30
REMARK                            x       y       z     vdW  Elec       q    Type
REMARK                         _______ _______ _______ _____ _____    ______ ____
ROOT
ATOM      1  C   UNL     1       5.201   3.518   2.235  0.00  0.00    +0.008 C 
ATOM      2  C   UNL     1       3.763   2.995   2.258  0.00  0.00    -0.009 C 
ATOM      3  C   UNL     1       2.901   3.811   1.290  0.00  0.00    +0.008 C 
ATOM      4  C   UNL     1       1.425   3.463   1.490  0.00  0.00    +0.037 C 
ATOM      5  C   UNL     1       1.262   1.950   1.408  0.00  0.00    -0.023 A 
ATOM      6  C   UNL     1       2.322   1.127   1.560  0.00  0.00    -0.004 A 
ATOM      7  S   UNL     1       1.658  -0.505   1.386  0.00  0.00    -0.077 S 
ATOM      8  C   UNL     1      -0.005  -0.103   1.116  0.00  0.00    +0.085 A 
ATOM      9  C   UNL     1      -0.007   1.285   1.167  0.00  0.00    +0.069 A 
ATOM     10  C   UNL     1       3.744   1.524   1.818  0.00  0.00    +0.046 C 
ENDROOT
BRANCH   9  11
ATOM     11  C   UNL     1      -1.242   2.050   0.978  0.00  0.00    +0.255 C 
ATOM     12  O   UNL     1      -1.937   2.331   1.937  0.00  0.00    -0.270 OA
ATOM     13  N   UNL     1      -1.608   2.444  -0.258  0.00  0.00    -0.217 N 
ATOM     14  C   UNL     1      -2.744   3.148  -0.432  0.00  0.00    +0.407 C 
ATOM     15  O   UNL     1      -3.438   3.428   0.525  0.00  0.00    -0.226 OA
ATOM     16  H   UNL     1      -1.054   2.221  -1.022  0.00  0.00    +0.161 HD
BRANCH  14  17
ATOM     17  O   UNL     1      -3.110   3.542  -1.666  0.00  0.00    -0.453 OA
ATOM     18  C   UNL     1      -4.345   4.297  -1.778  0.00  0.00    +0.282 C 
ENDBRANCH  14  17
ENDBRANCH   9  11
BRANCH   8  19
ATOM     19  N   UNL     1      -1.073  -0.958   0.901  0.00  0.00    -0.275 N 
ATOM     20  C   UNL     1      -0.877  -2.291   0.886  0.00  0.00    +0.249 C 
ATOM     21  O   UNL     1       0.239  -2.743   1.061  0.00  0.00    -0.270 OA
ATOM     22  H   UNL     1      -1.963  -0.597   0.762  0.00  0.00    +0.156 HD
BRANCH  20  23
ATOM     23  C   UNL     1      -2.014  -3.202   0.658  0.00  0.00    +0.037 A 
ATOM     24  C   UNL     1      -3.298  -2.685   0.463  0.00  0.00    +0.016 A 
ATOM     25  C   UNL     1      -4.356  -3.538   0.245  0.00  0.00    +0.046 A 
ATOM     26  C   UNL     1      -4.151  -4.913   0.229  0.00  0.00    +0.121 A 
ATOM     27  C   UNL     1      -2.877  -5.432   0.428  0.00  0.00    +0.046 A 
ATOM     28  C   UNL     1      -1.813  -4.585   0.641  0.00  0.00    +0.016 A 
BRANCH  26  29
ATOM     29  O   UNL     1      -5.198  -5.751   0.020  0.00  0.00    -0.489 OA
BRANCH  29  30
ATOM     30  C   UNL     1      -4.900  -7.144  -0.101  0.00  0.00    +0.167 C 
ATOM     31  C   UNL     1      -4.824  -7.771   1.292  0.00  0.00    +0.051 C 
ATOM     32  C   UNL     1      -6.001  -7.832  -0.911  0.00  0.00    +0.051 C 
ENDBRANCH  29  30
ENDBRANCH  26  29
ENDBRANCH  20  23
ENDBRANCH   8  19
TORSDOF 6
