REMARK  Name = ZINC04885564
REMARK  6 active torsions:
REMARK  status: ('A' for Active; 'I' for Inactive)
REMARK    1  A    between atoms: C_1  and  C_2
REMARK    2  A    between atoms: C_2  and  C_28
REMARK    3  A    between atoms: C_7  and  C_10
REMARK    4  A    between atoms: N_19  and  C_22
REMARK    5  A    between atoms: C_28  and  O_30
REMARK    6  A    between atoms: O_30  and  C_31
REMARK                            x       y       z     vdW  Elec       q    Type
REMARK                         _______ _______ _______ _____ _____    ______ ____
ROOT
ATOM      1  C   UNL     1      -0.104   1.549  -0.072  0.00  0.00    +0.002 C 
ATOM      2  C   UNL     1      -0.041   0.021  -0.048  0.00  0.00    +0.041 C 
ATOM      3  C   UNL     1      -1.459  -0.574   0.083  0.00  0.00    +0.086 C 
ATOM      4  C   UNL     1      -1.288  -1.812   1.003  0.00  0.00    +0.077 C 
ATOM      5  C   UNL     1       0.219  -1.858   1.329  0.00  0.00    -0.027 C 
ATOM      6  N   UNL     1       0.678  -0.449   1.165  0.00  0.00    +0.395 N 
ATOM      7  C   UNL     1      -2.069  -1.436   2.243  0.00  0.00    +0.229 C 
ATOM      8  O   UNL     1      -2.197  -2.131   3.227  0.00  0.00    -0.275 OA
ATOM      9  N   UNL     1      -2.595  -0.216   2.083  0.00  0.00    -0.210 N 
ATOM     10  C   UNL     1      -2.320   0.368   0.894  0.00  0.00    +0.229 C 
ATOM     11  O   UNL     1      -2.695   1.462   0.531  0.00  0.00    -0.275 OA
ATOM     12  H   UNL     1       1.675  -0.422   1.016  0.00  0.00    -0.083 HD
ATOM     13  H   UNL     1       0.423   0.111   1.964  0.00  0.00    -0.083 HD
ENDROOT
BRANCH   5  14
ATOM     14  C   UNL     1       0.435  -2.304   2.752  0.00  0.00    -0.061 A 
ATOM     15  C   UNL     1       0.280  -1.404   3.790  0.00  0.00    +0.003 A 
ATOM     16  C   UNL     1       0.477  -1.812   5.095  0.00  0.00    +0.020 A 
ATOM     17  C   UNL     1       0.831  -3.123   5.364  0.00  0.00    +0.041 A 
ATOM     18  C   UNL     1       0.986  -4.024   4.325  0.00  0.00    +0.020 A 
ATOM     19  C   UNL     1       0.782  -3.615   3.020  0.00  0.00    +0.003 A 
ATOM     20 CL   UNL     1       1.080  -3.636   7.003  0.00  0.00    -0.084 Cl
ENDBRANCH   5  14
BRANCH   9  21
ATOM     21  C   UNL     1      -3.375   0.408   3.067  0.00  0.00    +0.044 A 
ATOM     22  C   UNL     1      -2.904   1.542   3.713  0.00  0.00    +0.024 A 
ATOM     23  C   UNL     1      -3.675   2.154   4.682  0.00  0.00    +0.002 A 
ATOM     24  C   UNL     1      -4.916   1.638   5.008  0.00  0.00    +0.000 A 
ATOM     25  C   UNL     1      -5.388   0.509   4.365  0.00  0.00    +0.002 A 
ATOM     26  C   UNL     1      -4.624  -0.104   3.392  0.00  0.00    +0.024 A 
ENDBRANCH   9  21
BRANCH   2  27
ATOM     27  C   UNL     1       0.635  -0.496  -1.292  0.00  0.00    +0.296 C 
ATOM     28  O   UNL     1      -0.028  -0.846  -2.239  0.00  0.00    -0.252 OA
BRANCH  27  29
ATOM     29  O   UNL     1       1.975  -0.567  -1.347  0.00  0.00    -0.469 OA
ATOM     30  C   UNL     1       2.548  -1.066  -2.557  0.00  0.00    +0.280 C 
ENDBRANCH  27  29
ENDBRANCH   2  27
TORSDOF 4
