REMARK  Name = ZINC17081863
REMARK  10 active torsions:
REMARK  status: ('A' for Active; 'I' for Inactive)
REMARK    1  A    between atoms: C_1  and  C_2
REMARK    2  A    between atoms: C_2  and  O_3
REMARK    3  A    between atoms: O_3  and  C_4
REMARK    4  A    between atoms: C_13  and  C_15
REMARK    5  A    between atoms: N_17  and  C_18
REMARK    6  A    between atoms: C_19  and  C_25
REMARK    7  A    between atoms: C_20  and  C_24
REMARK    8  A    between atoms: C_21  and  C_23
REMARK    9  A    between atoms: C_25  and  O_27
REMARK   10  A    between atoms: O_27  and  C_28
REMARK                            x       y       z     vdW  Elec       q    Type
REMARK                         _______ _______ _______ _____ _____    ______ ____
ROOT
ATOM      1  C   UNL     1       4.658   0.888  -0.038  0.00  0.00    +0.163 A 
ATOM      2  C   UNL     1       5.874   1.547  -0.047  0.00  0.00    +0.049 A 
ATOM      3  C   UNL     1       5.925   2.933  -0.041  0.00  0.00    +0.004 A 
ATOM      4  C   UNL     1       4.764   3.672  -0.025  0.00  0.00    +0.012 A 
ATOM      5  C   UNL     1       3.524   3.020  -0.016  0.00  0.00    +0.022 A 
ATOM      6  C   UNL     1       3.470   1.616  -0.022  0.00  0.00    +0.179 A 
ATOM      7  O   UNL     1       2.283   0.970  -0.015  0.00  0.00    -0.435 OA
ATOM      8  C   UNL     1       1.111   1.634   0.000  0.00  0.00    +0.205 A 
ATOM      9  N   UNL     1      -0.011   0.966   0.007  0.00  0.00    -0.369 N 
ATOM     10  C   UNL     1       1.083   3.107   0.002  0.00  0.00    +0.097 A 
ATOM     11  C   UNL     1       2.281   3.794   0.000  0.00  0.00    +0.030 A 
ATOM     12  H   UNL     1      -0.971   1.503   0.019  0.00  0.00    +0.159 HD
ATOM     13  H   UNL     1       0.004  -0.134   0.002  0.00  0.00    +0.159 HD
ENDROOT
BRANCH  10  14
ATOM     14  C   UNL     1      -0.197   3.832   0.013  0.00  0.00    +0.254 C 
ATOM     15  O   UNL     1      -1.246   3.215   0.019  0.00  0.00    -0.270 OA
ATOM     16  N   UNL     1      -0.208   5.180   0.014  0.00  0.00    -0.275 N 
ATOM     17  H   UNL     1       0.740   5.737   0.008  0.00  0.00    +0.156 HD
BRANCH  16  18
ATOM     18  C   UNL     1      -1.413   5.862   0.024  0.00  0.00    +0.087 A 
ATOM     19  C   UNL     1      -1.627   7.237   0.027  0.00  0.00    +0.091 A 
ATOM     20  C   UNL     1      -3.002   7.678   0.037  0.00  0.00    -0.025 A 
ATOM     21  C   UNL     1      -3.953   6.727   0.042  0.00  0.00    -0.008 A 
ATOM     22  S   UNL     1      -3.018   5.212   0.027  0.00  0.00    -0.078 S 
ATOM     23  C   UNL     1      -5.450   6.902   0.051  0.00  0.00    +0.052 C 
ATOM     24  C   UNL     1      -3.357   9.143   0.042  0.00  0.00    +0.045 C 
BRANCH  19  25
ATOM     25  C   UNL     1      -0.515   8.188   0.022  0.00  0.00    +0.342 C 
ATOM     26  O   UNL     1      -0.059   8.586  -1.034  0.00  0.00    -0.245 OA
BRANCH  25  27
ATOM     27  O   UNL     1       0.005   8.625   1.187  0.00  0.00    -0.464 OA
ATOM     28  C   UNL     1       1.107   9.567   1.106  0.00  0.00    +0.280 C 
ENDBRANCH  25  27
ENDBRANCH  19  25
ENDBRANCH  16  18
ENDBRANCH  10  14
BRANCH   1  29
ATOM     29  O   UNL     1       4.622  -0.471  -0.044  0.00  0.00    -0.489 OA
BRANCH  29  31
ATOM     30  C   UNL     1       5.637  -2.665  -0.066  0.00  0.00    +0.048 C 
ATOM     31  C   UNL     1       5.877  -1.154  -0.060  0.00  0.00    +0.226 C 
ENDBRANCH  29  31
ENDBRANCH   1  29
TORSDOF 6
