REMARK  Name = ZINC38745631
REMARK  5 active torsions:
REMARK  status: ('A' for Active; 'I' for Inactive)
REMARK    1  A    between atoms: C_1  and  O_2
REMARK    2  A    between atoms: O_2  and  C_3
REMARK    3  A    between atoms: C_6  and  C_9
REMARK    4  A    between atoms: C_11  and  C_15
REMARK    5  A    between atoms: C_19  and  C_24
REMARK                            x       y       z     vdW  Elec       q    Type
REMARK                         _______ _______ _______ _____ _____    ______ ____
ROOT
ATOM      1  C   UNL     1      -7.083  -4.879   1.310  0.00  0.00    +0.182 C 
ATOM      2  N   UNL     1      -8.557  -5.073   1.336  0.00  0.00    -0.265 N 
ATOM      3  N   UNL     1      -9.129  -4.970   2.569  0.00  0.00    -0.224 N 
ATOM      4  C   UNL     1     -10.301  -5.376   3.183  0.00  0.00    +0.154 A 
ATOM      5  N   UNL     1     -10.295  -4.923   4.401  0.00  0.00    -0.132 NA
ATOM      6  N   UNL     1      -9.207  -4.272   4.624  0.00  0.00    -0.121 NA
ATOM      7  C   UNL     1      -8.468  -4.290   3.559  0.00  0.00    +0.210 A 
ATOM      8  S   UNL     1      -6.920  -3.821   2.813  0.00  0.00    -0.058 S 
ATOM      9  H   UNL     1      -9.014  -4.465   0.674  0.00  0.00    +0.168 HD
ENDROOT
BRANCH   4  10
ATOM     10  C   UNL     1     -11.394  -6.199   2.549  0.00  0.00    +0.059 C 
ATOM     11  C   UNL     1     -12.703  -5.407   2.565  0.00  0.00    +0.011 C 
ATOM     12  C   UNL     1     -13.812  -6.243   1.922  0.00  0.00    +0.001 C 
ATOM     13  C   UNL     1     -13.992  -7.542   2.709  0.00  0.00    +0.000 C 
ATOM     14  C   UNL     1     -12.683  -8.334   2.693  0.00  0.00    +0.001 C 
ATOM     15  C   UNL     1     -11.574  -7.499   3.336  0.00  0.00    +0.011 C 
ENDBRANCH   4  10
BRANCH   1  18
ATOM     16  C   UNL     1      -4.963  -2.620   0.035  0.00  0.00    +0.091 C 
ATOM     17  C   UNL     1      -5.128  -3.957   0.039  0.00  0.00    +0.034 C 
ATOM     18  C   UNL     1      -6.635  -4.138   0.048  0.00  0.00    +0.185 C 
ATOM     19  N   UNL     1      -7.139  -2.755   0.047  0.00  0.00    -0.177 NA
ATOM     20  N   UNL     1      -6.170  -1.994   0.045  0.00  0.00    -0.154 NA
BRANCH  16  24
ATOM     21  C   UNL     1      -1.200  -0.637   0.010  0.00  0.00    +0.120 A 
ATOM     22  C   UNL     1      -2.374   0.104   0.019  0.00  0.00    +0.046 A 
ATOM     23  C   UNL     1      -3.595  -0.536   0.027  0.00  0.00    +0.013 A 
ATOM     24  C   UNL     1      -3.651  -1.928   0.026  0.00  0.00    +0.002 A 
ATOM     25  C   UNL     1      -2.471  -2.670   0.016  0.00  0.00    +0.013 A 
ATOM     26  C   UNL     1      -1.252  -2.025   0.003  0.00  0.00    +0.046 A 
BRANCH  21  28
ATOM     27  C   UNL     1      -0.017   1.425   0.010  0.00  0.00    +0.277 C 
ATOM     28  O   UNL     1       0.002  -0.004   0.002  0.00  0.00    -0.495 OA
ENDBRANCH  21  28
ENDBRANCH  16  24
ENDBRANCH   1  18
TORSDOF 4
