REMARK  Name = ZINC15771820
REMARK  9 active torsions:
REMARK  status: ('A' for Active; 'I' for Inactive)
REMARK    1  A    between atoms: C_4  and  O_28
REMARK    2  A    between atoms: C_5  and  N_7
REMARK    3  A    between atoms: N_7  and  N_8
REMARK    4  A    between atoms: C_9  and  C_10
REMARK    5  A    between atoms: C_9  and  N_19
REMARK    6  A    between atoms: C_13  and  C_16
REMARK    7  A    between atoms: C_16  and  C_17
REMARK    8  A    between atoms: N_20  and  C_21
REMARK    9  A    between atoms: C_26  and  O_27
REMARK                            x       y       z     vdW  Elec       q    Type
REMARK                         _______ _______ _______ _____ _____    ______ ____
ROOT
ATOM      1  N   UNL     1      -2.412   4.125   5.231  0.00  0.00    -0.160 NA
ATOM      2  C   UNL     1      -2.792   3.003   4.662  0.00  0.00    +0.199 C 
ENDROOT
BRANCH   2   3
ATOM      3  C   UNL     1      -2.125   2.538   3.424  0.00  0.00    +0.022 A 
ATOM      4  C   UNL     1      -2.059   1.175   3.134  0.00  0.00    +0.012 A 
ATOM      5  C   UNL     1      -1.437   0.748   1.979  0.00  0.00    +0.004 A 
ATOM      6  C   UNL     1      -0.878   1.668   1.110  0.00  0.00    -0.047 A 
ATOM      7  C   UNL     1      -0.935   3.021   1.395  0.00  0.00    +0.004 A 
ATOM      8  C   UNL     1      -1.560   3.461   2.544  0.00  0.00    +0.012 A 
BRANCH   6   9
ATOM      9  C   UNL     1      -0.199   1.195  -0.150  0.00  0.00    +0.046 C 
BRANCH   9  10
ATOM     10  C   UNL     1      -1.223   1.125  -1.285  0.00  0.00    +0.084 C 
ATOM     11 BR   UNL     1      -0.337   0.507  -2.928  0.00  0.00    -0.091 Br
ENDBRANCH   9  10
ENDBRANCH   6   9
ENDBRANCH   2   3
BRANCH   1  12
ATOM     12  N   UNL     1      -3.114   4.622   6.337  0.00  0.00    -0.232 N 
ATOM     13  H   UNL     1      -3.865   4.125   6.698  0.00  0.00    +0.175 HD
BRANCH  12  18
ATOM     14  C   UNL     1      -1.283   7.742   6.982  0.00  0.00    +0.002 A 
ATOM     15  C   UNL     1      -1.976   8.234   8.073  0.00  0.00    +0.004 A 
ATOM     16  C   UNL     1      -3.047   7.531   8.592  0.00  0.00    +0.047 A 
ATOM     17  C   UNL     1      -3.430   6.329   8.019  0.00  0.00    +0.139 A 
ATOM     18  C   UNL     1      -2.733   5.832   6.918  0.00  0.00    +0.090 A 
ATOM     19  C   UNL     1      -1.655   6.542   6.407  0.00  0.00    +0.028 A 
BRANCH  17  20
ATOM     20  O   UNL     1      -4.483   5.636   8.529  0.00  0.00    -0.505 OA
ATOM     21  H   UNL     1      -4.240   5.003   9.218  0.00  0.00    +0.292 HD
ENDBRANCH  17  20
ENDBRANCH  12  18
ENDBRANCH   1  12
BRANCH   2  22
ATOM     22  N   UNL     1      -3.795   2.270   5.210  0.00  0.00    -0.127 NA
ATOM     23  N   UNL     1      -4.217   1.208   4.613  0.00  0.00    -0.144 NA
BRANCH  23  24
ATOM     24  C   UNL     1      -5.226   0.471   5.163  0.00  0.00    +0.127 A 
ATOM     25  C   UNL     1      -5.804   0.864   6.373  0.00  0.00    +0.033 A 
ATOM     26  C   UNL     1      -6.823   0.116   6.923  0.00  0.00    +0.002 A 
ATOM     27  C   UNL     1      -7.277  -1.025   6.281  0.00  0.00    +0.004 A 
ATOM     28  C   UNL     1      -6.714  -1.424   5.084  0.00  0.00    +0.047 A 
ATOM     29  C   UNL     1      -5.692  -0.682   4.514  0.00  0.00    +0.144 A 
BRANCH  29  30
ATOM     30  O   UNL     1      -5.142  -1.071   3.335  0.00  0.00    -0.505 OA
ATOM     31  H   UNL     1      -4.389  -1.670   3.431  0.00  0.00    +0.292 HD
ENDBRANCH  29  30
ENDBRANCH  23  24
ENDBRANCH   2  22
TORSDOF 9
