REMARK  Name = ZINC39462480
REMARK  12 active torsions:
REMARK  status: ('A' for Active; 'I' for Inactive)
REMARK    1  A    between atoms: C_1  and  C_2
REMARK    2  A    between atoms: C_2  and  C_3
REMARK    3  A    between atoms: C_2  and  N_4
REMARK    4  A    between atoms: N_4  and  C_5
REMARK    5  A    between atoms: N_4  and  C_33
REMARK    6  A    between atoms: C_5  and  C_6
REMARK    7  A    between atoms: C_6  and  N_7
REMARK    8  A    between atoms: C_8  and  S_19
REMARK    9  A    between atoms: S_19  and  C_20
REMARK   10  A    between atoms: C_20  and  C_21
REMARK   11  A    between atoms: C_33  and  C_34
REMARK   12  A    between atoms: C_33  and  C_35
REMARK                            x       y       z     vdW  Elec       q    Type
REMARK                         _______ _______ _______ _____ _____    ______ ____
ROOT
ATOM      1  N   UNL     1      -4.521   0.827  -1.875  0.00  0.00    -0.272 N 
ATOM      2  C   UNL     1      -4.366   2.162  -2.454  0.00  0.00    +0.222 C 
ATOM      3  N   UNL     1      -5.648   2.636  -2.989  0.00  0.00    -0.317 N 
ATOM      4  C   UNL     1      -6.436   1.753  -3.720  0.00  0.00    +0.041 A 
ATOM      5  C   UNL     1      -7.295   2.194  -4.712  0.00  0.00    +0.024 A 
ATOM      6  C   UNL     1      -8.067   1.280  -5.404  0.00  0.00    +0.002 A 
ATOM      7  C   UNL     1      -7.987  -0.073  -5.113  0.00  0.00    +0.001 A 
ATOM      8  C   UNL     1      -7.132  -0.528  -4.130  0.00  0.00    +0.015 A 
ATOM      9  C   UNL     1      -6.345   0.382  -3.428  0.00  0.00    +0.058 A 
ATOM     10  C   UNL     1      -5.395  -0.060  -2.390  0.00  0.00    +0.250 C 
ATOM     11  O   UNL     1      -5.403  -1.212  -2.000  0.00  0.00    -0.270 OA
ATOM     12  H   UNL     1      -5.940   3.548  -2.836  0.00  0.00    +0.149 HD
ENDROOT
BRANCH   1  13
ATOM     13  C   UNL     1      -3.705   0.445  -0.719  0.00  0.00    +0.092 C 
BRANCH  13  14
ATOM     14  C   UNL     1      -2.397  -0.184  -1.203  0.00  0.00    -0.059 C 
BRANCH  14  15
ATOM     15  N   UNL     1      -1.597  -0.602  -0.045  0.00  0.00    +0.384 N 
ATOM     16  H   UNL     1      -1.458   0.185   0.570  0.00  0.00    -0.081 HD
BRANCH  15  18
ATOM     17  C   UNL     1       0.431   0.002  -1.278  0.00  0.00    -0.014 C 
ATOM     18  C   UNL     1      -0.294  -1.101  -0.504  0.00  0.00    -0.074 C 
ATOM     19  C   UNL     1       0.549  -1.514   0.704  0.00  0.00    -0.014 C 
ENDBRANCH  15  18
BRANCH  15  20
ATOM     20  C   UNL     1      -2.303  -1.669   0.678  0.00  0.00    -0.074 C 
ATOM     21  C   UNL     1      -2.003  -3.017   0.018  0.00  0.00    -0.014 C 
ATOM     22  C   UNL     1      -1.831  -1.698   2.133  0.00  0.00    -0.014 C 
ENDBRANCH  15  20
ENDBRANCH  14  15
ENDBRANCH  13  14
ENDBRANCH   1  13
BRANCH   2  23
ATOM     23  S   UNL     1      -3.146   2.098  -3.794  0.00  0.00    -0.111 S 
BRANCH  23  24
ATOM     24  C   UNL     1      -3.854   0.917  -4.976  0.00  0.00    +0.146 C 
BRANCH  24  25
ATOM     25  C   UNL     1      -2.926   0.770  -6.154  0.00  0.00    +0.120 A 
ATOM     26  N   UNL     1      -3.287  -0.074  -7.157  0.00  0.00    -0.310 N 
ATOM     27  H   UNL     1      -4.125  -0.560  -7.097  0.00  0.00    +0.170 HD
ATOM     28  C   UNL     1      -2.490  -0.241  -8.237  0.00  0.00    +0.259 A 
ATOM     29  O   UNL     1      -2.801  -0.993  -9.142  0.00  0.00    -0.267 OA
ATOM     30  C   UNL     1      -1.233   0.521  -8.275  0.00  0.00    +0.065 A 
ATOM     31  C   UNL     1      -0.342   0.420  -9.341  0.00  0.00    +0.015 A 
ATOM     32  C   UNL     1       0.823   1.156  -9.325  0.00  0.00    +0.001 A 
ATOM     33  C   UNL     1       1.113   1.996  -8.257  0.00  0.00    +0.002 A 
ATOM     34  C   UNL     1       0.246   2.109  -7.194  0.00  0.00    +0.028 A 
ATOM     35  C   UNL     1      -0.941   1.373  -7.187  0.00  0.00    +0.078 A 
ATOM     36  N   UNL     1      -1.826   1.459  -6.163  0.00  0.00    -0.233 NA
ENDBRANCH  24  25
ENDBRANCH  23  24
ENDBRANCH   2  23
TORSDOF 8
