REMARK  Name = ZINC13030394
REMARK  9 active torsions:
REMARK  status: ('A' for Active; 'I' for Inactive)
REMARK    1  A    between atoms: C_4  and  C_7
REMARK    2  A    between atoms: C_7  and  N_8
REMARK    3  A    between atoms: C_9  and  N_38
REMARK    4  A    between atoms: C_10  and  N_17
REMARK    5  A    between atoms: N_17  and  C_18
REMARK    6  A    between atoms: C_18  and  C_19
REMARK    7  A    between atoms: C_25  and  C_27
REMARK    8  A    between atoms: C_27  and  C_28
REMARK    9  A    between atoms: C_28  and  C_29
REMARK                            x       y       z     vdW  Elec       q    Type
REMARK                         _______ _______ _______ _____ _____    ______ ____
ROOT
ATOM      1  N   UNL     1      -1.095  -0.679   0.035  0.00  0.00    -0.262 N 
ATOM      2  C   UNL     1       0.123  -0.158   0.287  0.00  0.00    +0.221 C 
ATOM      3  O   UNL     1       1.071  -0.892   0.476  0.00  0.00    -0.275 OA
ENDROOT
BRANCH   1   6
ATOM      4  N   UNL     1      -0.783  -4.109  -1.245  0.00  0.00    -0.276 N 
ATOM      5  C   UNL     1      -0.618  -2.748  -1.134  0.00  0.00    +0.128 A 
ATOM      6  C   UNL     1      -1.250  -2.074  -0.109  0.00  0.00    +0.140 A 
ATOM      7  C   UNL     1      -2.055  -2.801   0.787  0.00  0.00    +0.277 A 
ATOM      8  O   UNL     1      -2.629  -2.230   1.699  0.00  0.00    -0.266 OA
ATOM      9  N   UNL     1      -2.189  -4.133   0.631  0.00  0.00    -0.273 N 
ATOM     10  H   UNL     1      -2.761  -4.650   1.267  0.00  0.00    +0.173 HD
ATOM     11  C   UNL     1      -1.561  -4.774  -0.371  0.00  0.00    +0.331 A 
ATOM     12  O   UNL     1      -1.698  -5.976  -0.488  0.00  0.00    -0.246 OA
BRANCH   5  13
ATOM     13  N   UNL     1       0.172  -2.069  -2.030  0.00  0.00    -0.343 N 
ATOM     14  H   UNL     1       0.214  -1.100  -2.002  0.00  0.00    +0.144 HD
ATOM     15  H   UNL     1       0.687  -2.558  -2.691  0.00  0.00    +0.144 HD
ENDBRANCH   5  13
BRANCH   4  16
ATOM     16  C   UNL     1      -0.114  -4.839  -2.325  0.00  0.00    +0.163 C 
BRANCH  16  20
ATOM     17  C   UNL     1      -2.654  -4.949  -5.757  0.00  0.00    +0.000 A 
ATOM     18  C   UNL     1      -1.759  -3.909  -5.593  0.00  0.00    +0.000 A 
ATOM     19  C   UNL     1      -0.937  -3.873  -4.482  0.00  0.00    +0.005 A 
ATOM     20  C   UNL     1      -1.010  -4.878  -3.536  0.00  0.00    -0.028 A 
ATOM     21  C   UNL     1      -1.901  -5.921  -3.703  0.00  0.00    +0.005 A 
ATOM     22  C   UNL     1      -2.727  -5.954  -4.811  0.00  0.00    +0.000 A 
ENDBRANCH  16  20
ENDBRANCH   4  16
ENDBRANCH   1   6
BRANCH   1  23
ATOM     23  C   UNL     1      -2.258   0.203  -0.091  0.00  0.00    +0.145 C 
BRANCH  23  24
ATOM     24  C   UNL     1      -2.506   0.513  -1.569  0.00  0.00    +0.136 C 
ATOM     25  C   UNL     1      -3.723   1.448  -1.711  0.00  0.00    +0.035 C 
ATOM     26  C   UNL     1      -3.162   2.693  -2.440  0.00  0.00    +0.031 C 
ATOM     27  C   UNL     1      -1.879   2.130  -3.103  0.00  0.00    +0.160 C 
ATOM     28  O   UNL     1      -1.370   1.199  -2.122  0.00  0.00    -0.375 OA
ENDBRANCH  23  24
ENDBRANCH   1  23
BRANCH   2  29
ATOM     29  C   UNL     1       0.308   1.337   0.336  0.00  0.00    +0.105 C 
BRANCH  29  30
ATOM     30  C   UNL     1       1.773   1.661   0.638  0.00  0.00    +0.105 C 
BRANCH  30  31
ATOM     31  C   UNL     1       1.957   3.156   0.687  0.00  0.00    +0.197 A 
ATOM     32  N   UNL     1       1.829   3.885   1.754  0.00  0.00    -0.213 NA
ATOM     33  C   UNL     1       2.070   5.184   1.429  0.00  0.00    +0.110 A 
ATOM     34  C   UNL     1       2.078   6.377   2.155  0.00  0.00    +0.031 A 
ATOM     35  C   UNL     1       2.362   7.563   1.516  0.00  0.00    +0.002 A 
ATOM     36  C   UNL     1       2.641   7.580   0.157  0.00  0.00    +0.004 A 
ATOM     37  C   UNL     1       2.637   6.409  -0.572  0.00  0.00    +0.048 A 
ATOM     38  C   UNL     1       2.353   5.206   0.055  0.00  0.00    +0.155 A 
ATOM     39  O   UNL     1       2.272   3.925  -0.367  0.00  0.00    -0.440 OA
ENDBRANCH  30  31
ENDBRANCH  29  30
ENDBRANCH   2  29
TORSDOF 9
