REMARK  Name = ZINC66866562
REMARK  8 active torsions:
REMARK  status: ('A' for Active; 'I' for Inactive)
REMARK    1  A    between atoms: C_1  and  C_2
REMARK    2  A    between atoms: C_2  and  C_4
REMARK    3  A    between atoms: C_2  and  N_14
REMARK    4  A    between atoms: N_9  and  C_10
REMARK    5  A    between atoms: C_10  and  C_11
REMARK    6  A    between atoms: C_10  and  C_12
REMARK    7  A    between atoms: C_10  and  C_13
REMARK    8  A    between atoms: C_20  and  C_22
REMARK                            x       y       z     vdW  Elec       q    Type
REMARK                         _______ _______ _______ _____ _____    ______ ____
ROOT
ATOM      1  C   UNL     1      -2.066  -1.271   0.796  0.00  0.00    +0.034 C 
ATOM      2  C   UNL     1      -0.768  -0.589   0.356  0.00  0.00    +0.140 C 
ENDROOT
BRANCH   2   3
ATOM      3  C   UNL     1      -1.000   0.893   0.222  0.00  0.00    +0.237 C 
ATOM      4  O   UNL     1      -0.575   1.653   1.066  0.00  0.00    -0.274 OA
ATOM      5  N   UNL     1      -1.680   1.376  -0.837  0.00  0.00    -0.239 N 
ATOM      6  C   UNL     1      -1.887   2.702  -0.958  0.00  0.00    +0.306 C 
ATOM      7  O   UNL     1      -1.461   3.463  -0.112  0.00  0.00    -0.252 OA
ATOM      8  N   UNL     1      -2.568   3.184  -2.017  0.00  0.00    -0.294 N 
ATOM      9  H   UNL     1      -2.021   0.768  -1.513  0.00  0.00    +0.159 HD
ATOM     10  H   UNL     1      -2.908   2.577  -2.692  0.00  0.00    +0.151 HD
BRANCH   8  11
ATOM     11  C   UNL     1      -2.793   4.626  -2.148  0.00  0.00    +0.028 C 
ATOM     12  C   UNL     1      -1.446   5.349  -2.213  0.00  0.00    +0.031 C 
ATOM     13  C   UNL     1      -3.584   4.904  -3.428  0.00  0.00    +0.031 C 
ATOM     14  C   UNL     1      -3.584   5.130  -0.939  0.00  0.00    +0.031 C 
ENDBRANCH   8  11
ENDBRANCH   2   3
BRANCH   2  15
ATOM     15  N   UNL     1       0.277  -0.832   1.360  0.00  0.00    -0.289 NA
ATOM     16  C   UNL     1       0.816  -2.194   1.240  0.00  0.00    +0.104 C 
ATOM     17  C   UNL     1       2.020  -2.348   2.175  0.00  0.00    +0.123 C 
ATOM     18  N   UNL     1       1.608  -1.959   3.533  0.00  0.00    -0.299 N 
ATOM     19  C   UNL     1       0.935  -0.664   3.712  0.00  0.00    +0.123 C 
ATOM     20  C   UNL     1      -0.226  -0.576   2.716  0.00  0.00    +0.104 C 
ATOM     21  C   UNL     1       1.843  -2.768   4.585  0.00  0.00    +0.219 C 
ATOM     22  O   UNL     1       2.489  -3.784   4.437  0.00  0.00    -0.275 OA
BRANCH  21  23
ATOM     23  C   UNL     1       1.301  -2.412   5.945  0.00  0.00    +0.075 C 
ATOM     24  C   UNL     1       2.140  -1.284   6.549  0.00  0.00    +0.013 C 
ATOM     25  C   UNL     1       1.590  -0.922   7.930  0.00  0.00    +0.001 C 
ATOM     26  C   UNL     1       1.653  -2.149   8.842  0.00  0.00    +0.000 C 
ATOM     27  C   UNL     1       0.814  -3.277   8.238  0.00  0.00    +0.001 C 
ATOM     28  C   UNL     1       1.364  -3.639   6.857  0.00  0.00    +0.013 C 
ENDBRANCH  21  23
ENDBRANCH   2  15
TORSDOF 4
