REMARK  Name = ZINC39636672
REMARK  11 active torsions:
REMARK  status: ('A' for Active; 'I' for Inactive)
REMARK    1  A    between atoms: C_1  and  C_2
REMARK    2  A    between atoms: C_5  and  C_37
REMARK    3  A    between atoms: C_6  and  C_8
REMARK    4  A    between atoms: C_8  and  N_9
REMARK    5  A    between atoms: C_10  and  C_12
REMARK    6  A    between atoms: C_23  and  C_25
REMARK    7  A    between atoms: C_25  and  C_27
REMARK    8  A    between atoms: C_25  and  O_30
REMARK    9  A    between atoms: C_27  and  C_28
REMARK   10  A    between atoms: C_27  and  C_29
REMARK   11  A    between atoms: O_30  and  C_31
REMARK                            x       y       z     vdW  Elec       q    Type
REMARK                         _______ _______ _______ _____ _____    ______ ____
ROOT
ATOM      1  C   UNL     1       2.656  -4.380   4.248  0.00  0.00    +0.100 C 
ATOM      2  C   UNL     1       3.678  -3.222   4.242  0.00  0.00    +0.121 C 
ATOM      3  N   UNL     1       3.877  -2.889   5.672  0.00  0.00    -0.297 N 
ATOM      4  C   UNL     1       3.886  -4.204   6.359  0.00  0.00    +0.115 C 
ATOM      5  C   UNL     1       2.797  -5.024   5.638  0.00  0.00    -0.004 C 
ATOM      6  C   UNL     1       1.478  -4.933   6.400  0.00  0.00    -0.010 C 
ATOM      7  C   UNL     1       1.628  -5.629   7.755  0.00  0.00    -0.082 C 
ATOM      8  N   UNL     1       2.000  -7.034   7.547  0.00  0.00    +0.379 N 
ATOM      9  C   UNL     1       3.313  -7.114   6.896  0.00  0.00    -0.082 C 
ATOM     10  C   UNL     1       3.235  -6.479   5.505  0.00  0.00    -0.010 C 
ATOM     11  C   UNL     1       4.018  -1.668   6.224  0.00  0.00    +0.257 C 
ATOM     12  O   UNL     1       4.258  -1.562   7.409  0.00  0.00    -0.272 OA
ATOM     13  H   UNL     1       2.038  -7.506   8.438  0.00  0.00    -0.086 HD
ATOM     14  H   UNL     1       1.308  -7.480   6.962  0.00  0.00    -0.086 HD
ENDROOT
BRANCH   1  16
ATOM     15  N   UNL     1       0.328  -4.605   3.443  0.00  0.00    -0.311 N 
ATOM     16  C   UNL     1       1.259  -3.848   4.056  0.00  0.00    +0.218 C 
ATOM     17  O   UNL     1       0.973  -2.739   4.454  0.00  0.00    -0.275 OA
ATOM     18  H   UNL     1       0.557  -5.492   3.124  0.00  0.00    +0.149 HD
BRANCH  15  19
ATOM     19  C   UNL     1      -1.030  -4.088   3.256  0.00  0.00    +0.139 C 
BRANCH  19  25
ATOM     20  C   UNL     1      -3.125  -5.840  -0.938  0.00  0.00    +0.044 C 
ATOM     21  C   UNL     1      -2.871  -5.959   0.543  0.00  0.00    -0.050 A 
ATOM     22  C   UNL     1      -3.408  -7.017   1.253  0.00  0.00    +0.003 A 
ATOM     23  C   UNL     1      -3.176  -7.127   2.611  0.00  0.00    +0.004 A 
ATOM     24  C   UNL     1      -2.406  -6.178   3.259  0.00  0.00    -0.046 A 
ATOM     25  C   UNL     1      -1.869  -5.121   2.549  0.00  0.00    -0.027 A 
ATOM     26  C   UNL     1      -2.098  -5.014   1.190  0.00  0.00    +0.008 A 
ATOM     27  C   UNL     1      -2.153  -6.297   4.740  0.00  0.00    +0.044 C 
ENDBRANCH  19  25
ENDBRANCH  15  19
ENDBRANCH   1  16
BRANCH  11  28
ATOM     28  C   UNL     1       3.877  -0.434   5.371  0.00  0.00    +0.261 C 
BRANCH  28  29
ATOM     29  C   UNL     1       5.233  -0.083   4.754  0.00  0.00    +0.033 C 
ATOM     30  C   UNL     1       5.772  -1.292   3.987  0.00  0.00    +0.011 C 
ATOM     31  C   UNL     1       5.066   1.097   3.795  0.00  0.00    +0.011 C 
ENDBRANCH  28  29
BRANCH  28  32
ATOM     32  O   UNL     1       3.425   0.655   6.178  0.00  0.00    -0.479 OA
BRANCH  32  33
ATOM     33  C   UNL     1       2.604   1.562   5.587  0.00  0.00    +0.122 A 
ATOM     34  C   UNL     1       2.165   1.358   4.286  0.00  0.00    +0.045 A 
ATOM     35  C   UNL     1       1.330   2.281   3.687  0.00  0.00    +0.004 A 
ATOM     36  C   UNL     1       0.932   3.408   4.383  0.00  0.00    +0.000 A 
ATOM     37  C   UNL     1       1.368   3.614   5.678  0.00  0.00    +0.004 A 
ATOM     38  C   UNL     1       2.198   2.690   6.284  0.00  0.00    +0.045 A 
ENDBRANCH  32  33
ENDBRANCH  28  32
ENDBRANCH  11  28
TORSDOF 7
