REMARK  Name = ZINC39693538
REMARK  10 active torsions:
REMARK  status: ('A' for Active; 'I' for Inactive)
REMARK    1  A    between atoms: C_1  and  C_2
REMARK    2  A    between atoms: C_2  and  C_3
REMARK    3  A    between atoms: C_2  and  C_4
REMARK    4  A    between atoms: C_2  and  O_5
REMARK    5  A    between atoms: O_5  and  C_6
REMARK    6  A    between atoms: N_8  and  C_9
REMARK    7  A    between atoms: C_9  and  C_10
REMARK    8  A    between atoms: C_10  and  N_11
REMARK    9  A    between atoms: C_12  and  C_14
REMARK   10  A    between atoms: C_25  and  C_27
REMARK                            x       y       z     vdW  Elec       q    Type
REMARK                         _______ _______ _______ _____ _____    ______ ____
ROOT
ATOM      1  C   UNL     1       8.577  -0.453  -5.172  0.00  0.00    +0.100 C 
ATOM      2  C   UNL     1       8.449   1.067  -5.415  0.00  0.00    +0.121 C 
ATOM      3  N   UNL     1       9.396   1.351  -6.520  0.00  0.00    -0.296 N 
ATOM      4  C   UNL     1       9.251   0.194  -7.435  0.00  0.00    +0.115 C 
ATOM      5  C   UNL     1       9.103  -1.023  -6.500  0.00  0.00    -0.004 C 
ATOM      6  C   UNL     1       8.102  -2.016  -7.082  0.00  0.00    -0.010 C 
ATOM      7  C   UNL     1       8.673  -2.613  -8.372  0.00  0.00    -0.082 C 
ATOM      8  N   UNL     1       9.946  -3.284  -8.082  0.00  0.00    +0.379 N 
ATOM      9  C   UNL     1      10.932  -2.304  -7.610  0.00  0.00    -0.082 C 
ATOM     10  C   UNL     1      10.457  -1.694  -6.288  0.00  0.00    -0.010 C 
ATOM     11  C   UNL     1      10.206   2.419  -6.660  0.00  0.00    +0.248 C 
ATOM     12  O   UNL     1      10.862   2.556  -7.675  0.00  0.00    -0.270 OA
ATOM     13  H   UNL     1       9.801  -3.983  -7.369  0.00  0.00    -0.086 HD
ATOM     14  H   UNL     1      10.289  -3.728  -8.920  0.00  0.00    -0.086 HD
ENDROOT
BRANCH  11  15
ATOM     15  C   UNL     1      10.296   3.417  -5.587  0.00  0.00    +0.052 A 
ATOM     16  C   UNL     1       9.214   3.729  -4.827  0.00  0.00    +0.059 A 
ATOM     17  S   UNL     1       9.750   4.891  -3.744  0.00  0.00    -0.096 S 
ATOM     18  C   UNL     1      11.444   5.027  -4.241  0.00  0.00    +0.020 A 
ATOM     19  C   UNL     1      11.557   4.104  -5.298  0.00  0.00    +0.001 A 
ATOM     20  C   UNL     1      12.818   3.976  -5.912  0.00  0.00    +0.010 A 
ATOM     21  C   UNL     1      13.882   4.727  -5.476  0.00  0.00    +0.001 A 
ATOM     22  C   UNL     1      13.745   5.627  -4.429  0.00  0.00    +0.001 A 
ATOM     23  C   UNL     1      12.517   5.780  -3.815  0.00  0.00    +0.015 A 
ENDBRANCH  11  15
BRANCH   1  25
ATOM     24  N   UNL     1       7.152  -2.141  -4.060  0.00  0.00    -0.314 N 
ATOM     25  C   UNL     1       7.232  -1.047  -4.842  0.00  0.00    +0.218 C 
ATOM     26  O   UNL     1       6.221  -0.540  -5.281  0.00  0.00    -0.275 OA
ATOM     27  H   UNL     1       7.960  -2.547  -3.709  0.00  0.00    +0.149 HD
BRANCH  24  28
ATOM     28  C   UNL     1       5.844  -2.719  -3.739  0.00  0.00    +0.123 C 
BRANCH  28  29
ATOM     29  C   UNL     1       6.033  -3.944  -2.843  0.00  0.00    +0.126 C 
BRANCH  29  32
ATOM     30  C   UNL     1       4.646  -5.616  -1.740  0.00  0.00    +0.401 C 
ATOM     31  O   UNL     1       5.658  -6.124  -1.300  0.00  0.00    -0.226 OA
ATOM     32  N   UNL     1       4.726  -4.521  -2.522  0.00  0.00    -0.280 N 
ATOM     33  H   UNL     1       3.917  -4.116  -2.873  0.00  0.00    +0.152 HD
BRANCH  30  34
ATOM     34  O   UNL     1       3.444  -6.146  -1.445  0.00  0.00    -0.445 OA
BRANCH  34  36
ATOM     35  C   UNL     1       4.076  -6.970   0.737  0.00  0.00    +0.055 C 
ATOM     36  C   UNL     1       3.433  -7.306  -0.610  0.00  0.00    +0.107 C 
ATOM     37  C   UNL     1       4.224  -8.428  -1.287  0.00  0.00    +0.055 C 
ATOM     38  C   UNL     1       1.990  -7.761  -0.388  0.00  0.00    +0.055 C 
ENDBRANCH  34  36
ENDBRANCH  30  34
ENDBRANCH  29  32
ENDBRANCH  28  29
ENDBRANCH  24  28
ENDBRANCH   1  25
TORSDOF 7
