REMARK  Name = ZINC09120079
REMARK  10 active torsions:
REMARK  status: ('A' for Active; 'I' for Inactive)
REMARK    1  A    between atoms: C_1  and  C_2
REMARK    2  A    between atoms: C_2  and  C_3
REMARK    3  A    between atoms: C_3  and  N_4
REMARK    4  A    between atoms: C_5  and  N_34
REMARK    5  A    between atoms: C_6  and  C_13
REMARK    6  A    between atoms: C_13  and  C_15
REMARK    7  A    between atoms: C_15  and  S_16
REMARK    8  A    between atoms: S_16  and  C_17
REMARK    9  A    between atoms: N_27  and  C_28
REMARK   10  A    between atoms: C_28  and  C_29
REMARK                            x       y       z     vdW  Elec       q    Type
REMARK                         _______ _______ _______ _____ _____    ______ ____
ROOT
ATOM      1  C   UNL     1      -1.329   1.949   0.089  0.00  0.00    +0.157 C 
ENDROOT
BRANCH   1   2
ATOM      2  C   UNL     1      -0.015   1.213   0.041  0.00  0.00    +0.182 C 
ATOM      3  O   UNL     1      -0.001  -0.002   0.017  0.00  0.00    -0.291 OA
BRANCH   2   6
ATOM      4  N   UNL     1       3.583   2.014   0.059  0.00  0.00    -0.281 N 
ATOM      5  C   UNL     1       2.436   1.273   0.091  0.00  0.00    +0.116 A 
ATOM      6  C   UNL     1       1.198   1.934   0.017  0.00  0.00    +0.120 A 
ATOM      7  C   UNL     1       1.206   3.399  -0.080  0.00  0.00    +0.266 A 
ATOM      8  O   UNL     1       0.164   4.024  -0.142  0.00  0.00    -0.267 OA
ATOM      9  N   UNL     1       2.394   4.038  -0.098  0.00  0.00    -0.274 N 
ATOM     10  H   UNL     1       2.417   5.036  -0.164  0.00  0.00    +0.173 HD
ATOM     11  C   UNL     1       3.547   3.352  -0.030  0.00  0.00    +0.331 A 
ATOM     12  O   UNL     1       4.595   3.966  -0.049  0.00  0.00    -0.246 OA
BRANCH   5  13
ATOM     13  N   UNL     1       2.491  -0.083   0.187  0.00  0.00    -0.344 N 
ATOM     14  H   UNL     1       1.678  -0.608   0.122  0.00  0.00    +0.144 HD
ATOM     15  H   UNL     1       3.344  -0.526   0.321  0.00  0.00    +0.144 HD
ENDBRANCH   5  13
BRANCH   4  16
ATOM     16  C   UNL     1       4.879   1.334   0.131  0.00  0.00    +0.128 C 
BRANCH  16  18
ATOM     17  C   UNL     1       6.653   0.482   1.670  0.00  0.00    +0.005 C 
ATOM     18  C   UNL     1       5.300   1.192   1.595  0.00  0.00    +0.018 C 
ENDBRANCH  16  18
ENDBRANCH   4  16
ENDBRANCH   2   6
ENDBRANCH   1   2
BRANCH   1  19
ATOM     19  S   UNL     1      -2.690   0.756   0.102  0.00  0.00    -0.080 S 
BRANCH  19  20
ATOM     20  C   UNL     1      -4.063   1.859   0.159  0.00  0.00    +0.173 A 
ATOM     21  N   UNL     1      -3.829   3.147   0.183  0.00  0.00    -0.223 NA
ATOM     22  C   UNL     1      -4.832   4.048   0.222  0.00  0.00    +0.079 A 
ATOM     23  C   UNL     1      -4.582   5.423   0.243  0.00  0.00    +0.028 A 
ATOM     24  C   UNL     1      -5.628   6.300   0.288  0.00  0.00    +0.002 A 
ATOM     25  C   UNL     1      -6.941   5.846   0.314  0.00  0.00    +0.001 A 
ATOM     26  C   UNL     1      -7.217   4.507   0.295  0.00  0.00    +0.015 A 
ATOM     27  C   UNL     1      -6.168   3.589   0.249  0.00  0.00    +0.065 A 
ATOM     28  C   UNL     1      -6.406   2.139   0.227  0.00  0.00    +0.263 A 
ATOM     29  O   UNL     1      -7.534   1.684   0.248  0.00  0.00    -0.267 OA
ATOM     30  N   UNL     1      -5.322   1.330   0.182  0.00  0.00    -0.280 N 
BRANCH  30  31
ATOM     31  C   UNL     1      -5.501  -0.124   0.159  0.00  0.00    +0.201 C 
BRANCH  31  32
ATOM     32  C   UNL     1      -5.525  -0.650   1.571  0.00  0.00    +0.125 A 
ATOM     33  C   UNL     1      -6.619  -0.787   2.341  0.00  0.00    +0.046 A 
ATOM     34  C   UNL     1      -6.186  -1.313   3.580  0.00  0.00    +0.041 A 
ATOM     35  C   UNL     1      -4.851  -1.459   3.495  0.00  0.00    +0.195 A 
ATOM     36  O   UNL     1      -4.457  -1.056   2.276  0.00  0.00    -0.466 OA
ENDBRANCH  31  32
ENDBRANCH  30  31
ENDBRANCH  19  20
ENDBRANCH   1  19
TORSDOF 9
