REMARK  Name = ZINC14540819
REMARK  12 active torsions:
REMARK  status: ('A' for Active; 'I' for Inactive)
REMARK    1  A    between atoms: C_1  and  O_2
REMARK    2  A    between atoms: O_2  and  C_3
REMARK    3  A    between atoms: C_3  and  C_4
REMARK    4  A    between atoms: C_4  and  N_5
REMARK    5  A    between atoms: C_6  and  C_31
REMARK    6  A    between atoms: C_7  and  N_23
REMARK    7  A    between atoms: C_12  and  N_14
REMARK    8  A    between atoms: N_14  and  C_15
REMARK    9  A    between atoms: C_15  and  C_16
REMARK   10  A    between atoms: C_24  and  C_26
REMARK   11  A    between atoms: C_31  and  O_33
REMARK   12  A    between atoms: O_33  and  C_34
REMARK                            x       y       z     vdW  Elec       q    Type
REMARK                         _______ _______ _______ _____ _____    ______ ____
ROOT
ATOM      1  N   UNL     1      -4.992   4.136  -0.190  0.00  0.00    -0.316 N 
ATOM      2  C   UNL     1      -3.696   3.706  -0.440  0.00  0.00    +0.151 A 
ATOM      3  C   UNL     1      -3.635   2.339  -0.258  0.00  0.00    +0.075 A 
ATOM      4  C   UNL     1      -4.983   1.910   0.121  0.00  0.00    +0.043 A 
ATOM      5  C   UNL     1      -5.785   3.067   0.154  0.00  0.00    +0.143 A 
ATOM      6  N   UNL     1      -7.069   2.972   0.476  0.00  0.00    -0.235 NA
ATOM      7  C   UNL     1      -7.627   1.819   0.776  0.00  0.00    +0.136 A 
ATOM      8  C   UNL     1      -6.895   0.634   0.770  0.00  0.00    +0.046 A 
ATOM      9  C   UNL     1      -5.548   0.671   0.442  0.00  0.00    +0.038 A 
ENDROOT
BRANCH   3  10
ATOM     10  N   UNL     1      -2.517   1.530  -0.410  0.00  0.00    -0.277 N 
ATOM     11  C   UNL     1      -2.360   0.443   0.371  0.00  0.00    +0.284 C 
ATOM     12  O   UNL     1      -3.138   0.231   1.283  0.00  0.00    -0.266 OA
ATOM     13  H   UNL     1      -1.849   1.746  -1.079  0.00  0.00    +0.155 HD
BRANCH  11  14
ATOM     14  C   UNL     1      -1.252  -0.484   0.123  0.00  0.00    +0.189 A 
ATOM     15  C   UNL     1      -0.976  -1.615   0.839  0.00  0.00    +0.054 A 
ATOM     16  C   UNL     1       0.168  -2.188   0.262  0.00  0.00    +0.042 A 
ATOM     17  C   UNL     1       0.535  -1.393  -0.768  0.00  0.00    +0.196 A 
ATOM     18  O   UNL     1      -0.323  -0.368  -0.848  0.00  0.00    -0.458 OA
ENDBRANCH  11  14
ENDBRANCH   3  10
BRANCH   8  19
ATOM     19  N   UNL     1      -7.512  -0.581   1.093  0.00  0.00    -0.342 N 
ATOM     20  H   UNL     1      -6.997  -1.403   1.087  0.00  0.00    +0.146 HD
BRANCH  19  21
ATOM     21  C   UNL     1      -8.935  -0.611   1.438  0.00  0.00    +0.105 C 
BRANCH  21  22
ATOM     22  C   UNL     1      -9.356  -2.050   1.745  0.00  0.00    +0.010 C 
ATOM     23  C   UNL     1     -10.815  -2.071   2.218  0.00  0.00    +0.009 C 
ATOM     24  C   UNL     1     -11.154  -3.488   2.681  0.00  0.00    +0.027 C 
ATOM     25  C   UNL     1     -10.729  -4.489   1.647  0.00  0.00    -0.031 C 
ATOM     26  C   UNL     1      -9.893  -4.235   0.692  0.00  0.00    -0.031 C 
ATOM     27  C   UNL     1      -9.240  -2.901   0.479  0.00  0.00    +0.032 C 
ENDBRANCH  21  22
ENDBRANCH  19  21
ENDBRANCH   8  19
BRANCH   2  28
ATOM     28  C   UNL     1      -2.612   4.536  -0.820  0.00  0.00    +0.358 C 
ATOM     29  O   UNL     1      -1.493   4.069  -0.916  0.00  0.00    -0.243 OA
BRANCH  28  30
ATOM     30  O   UNL     1      -2.821   5.844  -1.077  0.00  0.00    -0.463 OA
ATOM     31  C   UNL     1      -1.683   6.621  -1.455  0.00  0.00    +0.280 C 
ENDBRANCH  28  30
ENDBRANCH   2  28
BRANCH   1  32
ATOM     32  C   UNL     1      -5.449   5.526  -0.279  0.00  0.00    +0.152 C 
BRANCH  32  33
ATOM     33  C   UNL     1      -5.941   5.810  -1.700  0.00  0.00    +0.181 C 
BRANCH  33  35
ATOM     34  C   UNL     1      -6.870   7.536  -3.080  0.00  0.00    +0.194 C 
ATOM     35  O   UNL     1      -6.386   7.165  -1.787  0.00  0.00    -0.381 OA
ENDBRANCH  33  35
ENDBRANCH  32  33
ENDBRANCH   1  32
TORSDOF 10
