REMARK  Name = ZINC39380789
REMARK  6 active torsions:
REMARK  status: ('A' for Active; 'I' for Inactive)
REMARK    1  A    between atoms: C_5  and  C_7
REMARK    2  A    between atoms: C_9  and  C_21
REMARK    3  A    between atoms: N_12  and  C_14
REMARK    4  A    between atoms: C_21  and  N_22
REMARK    5  A    between atoms: N_22  and  C_23
REMARK    6  A    between atoms: C_23  and  C_24
REMARK                            x       y       z     vdW  Elec       q    Type
REMARK                         _______ _______ _______ _____ _____    ______ ____
ROOT
ATOM      1  C   UNL     1       1.229  -2.186  -0.022  0.00  0.00    +0.107 C 
ATOM      2  C   UNL     1       1.319  -2.741   1.425  0.00  0.00    +0.014 C 
ATOM      3  C   UNL     1       0.614  -4.111   1.234  0.00  0.00    +0.127 C 
ATOM      4  N   UNL     1      -0.411  -3.827   0.213  0.00  0.00    -0.266 N 
ATOM      5  N   UNL     1      -0.059  -2.722  -0.515  0.00  0.00    -0.232 NA
ATOM      6  H   UNL     1      -0.008  -2.935  -1.500  0.00  0.00    +0.145 HD
ENDROOT
BRANCH   1  11
ATOM      7  C   UNL     1      -0.017   1.378   0.010  0.00  0.00    +0.000 A 
ATOM      8  C   UNL     1       1.171   2.086   0.002  0.00  0.00    +0.001 A 
ATOM      9  C   UNL     1       2.377   1.412  -0.013  0.00  0.00    +0.020 A 
ATOM     10  C   UNL     1       2.397   0.029  -0.021  0.00  0.00    +0.046 A 
ATOM     11  C   UNL     1       1.208  -0.679  -0.013  0.00  0.00    -0.010 A 
ATOM     12  C   UNL     1       0.002  -0.004   0.002  0.00  0.00    +0.006 A 
ATOM     13 CL   UNL     1       3.912  -0.818  -0.041  0.00  0.00    -0.083 Cl
ENDBRANCH   1  11
BRANCH   4  14
ATOM     14  C   UNL     1      -1.573  -4.579   0.013  0.00  0.00    +0.045 A 
ATOM     15  C   UNL     1      -1.832  -5.683   0.814  0.00  0.00    +0.027 A 
ATOM     16  C   UNL     1      -2.981  -6.425   0.615  0.00  0.00    +0.040 A 
ATOM     17  C   UNL     1      -3.873  -6.067  -0.381  0.00  0.00    +0.124 A 
ATOM     18  C   UNL     1      -3.617  -4.965  -1.181  0.00  0.00    +0.040 A 
ATOM     19  C   UNL     1      -2.472  -4.218  -0.982  0.00  0.00    +0.027 A 
ATOM     20  F   UNL     1      -4.996  -6.793  -0.574  0.00  0.00    -0.205 F 
ENDBRANCH   4  14
BRANCH   2  21
ATOM     21  C   UNL     1       2.775  -2.921   1.861  0.00  0.00    -0.076 C 
BRANCH  21  22
ATOM     22  N   UNL     1       2.817  -3.332   3.271  0.00  0.00    +0.381 N 
ATOM     23  H   UNL     1       2.380  -2.623   3.841  0.00  0.00    -0.086 HD
ATOM     24  H   UNL     1       2.322  -4.204   3.382  0.00  0.00    -0.086 HD
BRANCH  22  25
ATOM     25  C   UNL     1       4.214  -3.504   3.690  0.00  0.00    -0.049 C 
BRANCH  25  26
ATOM     26  C   UNL     1       4.258  -3.932   5.158  0.00  0.00    +0.139 C 
ATOM     27  C   UNL     1       5.669  -4.296   5.569  0.00  0.00    -0.023 C 
ATOM     28  C   UNL     1       5.601  -5.580   5.919  0.00  0.00    +0.064 C 
ATOM     29  C   UNL     1       6.970  -6.067   6.357  0.00  0.00    +0.057 C 
ATOM     30  C   UNL     1       7.964  -5.016   5.817  0.00  0.00    +0.011 C 
ATOM     31  C   UNL     1       7.069  -3.760   5.721  0.00  0.00    +0.035 C 
ATOM     32  N   UNL     1       4.327  -6.033   5.768  0.00  0.00    -0.159 NA
ATOM     33  N   UNL     1       3.521  -5.192   5.356  0.00  0.00    -0.181 NA
ENDBRANCH  25  26
ENDBRANCH  22  25
ENDBRANCH  21  22
ENDBRANCH   2  21
TORSDOF 6
