REMARK  Name = ZINC65966365
REMARK  5 active torsions:
REMARK  status: ('A' for Active; 'I' for Inactive)
REMARK    1  A    between atoms: C_1  and  C_2
REMARK    2  A    between atoms: C_2  and  C_3
REMARK    3  A    between atoms: C_2  and  N_14
REMARK    4  A    between atoms: C_9  and  C_11
REMARK    5  A    between atoms: C_17  and  C_20
REMARK                            x       y       z     vdW  Elec       q    Type
REMARK                         _______ _______ _______ _____ _____    ______ ____
ROOT
ATOM      1  N   UNL     1       0.671  -0.596  -1.163  0.00  0.00    +0.387 N 
ATOM      2  C   UNL     1       0.044  -0.086  -2.388  0.00  0.00    -0.077 C 
ATOM      3  C   UNL     1       0.784  -0.634  -3.610  0.00  0.00    -0.009 C 
ATOM      4  C   UNL     1       0.716  -2.164  -3.598  0.00  0.00    +0.032 C 
ATOM      5  C   UNL     1       1.305  -2.681  -2.282  0.00  0.00    -0.009 C 
ATOM      6  C   UNL     1       0.545  -2.057  -1.109  0.00  0.00    -0.077 C 
ATOM      7  H   UNL     1       1.647  -0.343  -1.157  0.00  0.00    -0.081 HD
ENDROOT
BRANCH   4   8
ATOM      8  C   UNL     1       1.509  -2.713  -4.755  0.00  0.00    +0.020 A 
ATOM      9  C   UNL     1       2.643  -2.180  -5.234  0.00  0.00    +0.031 A 
ATOM     10  C   UNL     1       3.076  -3.024  -6.351  0.00  0.00    -0.000 A 
ATOM     11  C   UNL     1       4.160  -2.989  -7.231  0.00  0.00    +0.010 A 
ATOM     12  C   UNL     1       4.283  -3.951  -8.192  0.00  0.00    +0.001 A 
ATOM     13  C   UNL     1       3.340  -4.964  -8.302  0.00  0.00    +0.002 A 
ATOM     14  C   UNL     1       2.264  -5.018  -7.444  0.00  0.00    +0.026 A 
ATOM     15  C   UNL     1       2.118  -4.048  -6.457  0.00  0.00    +0.047 A 
ATOM     16  N   UNL     1       1.182  -3.833  -5.471  0.00  0.00    -0.358 N 
ATOM     17  H   UNL     1       0.406  -4.392  -5.308  0.00  0.00    +0.166 HD
ENDBRANCH   4   8
BRANCH   1  19
ATOM     18  C   UNL     1       0.125   1.518  -0.053  0.00  0.00    -0.004 C 
ATOM     19  C   UNL     1       0.006  -0.006   0.007  0.00  0.00    +0.016 C 
BRANCH  19  20
ATOM     20  C   UNL     1       0.663  -0.511   1.266  0.00  0.00    +0.202 C 
ATOM     21  O   UNL     1       1.826  -0.855   1.247  0.00  0.00    -0.277 OA
ATOM     22  N   UNL     1      -0.042  -0.582   2.412  0.00  0.00    -0.302 N 
ATOM     23  C   UNL     1      -1.419  -0.075   2.477  0.00  0.00    +0.108 C 
ATOM     24  C   UNL     1      -1.526   0.917   3.639  0.00  0.00    +0.020 C 
ATOM     25  C   UNL     1      -1.043   0.244   4.926  0.00  0.00    +0.016 C 
ATOM     26  C   UNL     1       0.424  -0.164   4.771  0.00  0.00    +0.092 C 
ATOM     27  C   UNL     1       0.550  -1.174   3.620  0.00  0.00    +0.120 C 
BRANCH  26  28
ATOM     28  C   UNL     1       0.907  -0.798   6.050  0.00  0.00    +0.215 C 
ATOM     29  O   UNL     1       1.317  -1.940   6.043  0.00  0.00    -0.276 OA
ATOM     30  N   UNL     1       0.884  -0.097   7.200  0.00  0.00    -0.329 N 
ATOM     31  H   UNL     1       0.556   0.816   7.205  0.00  0.00    +0.145 HD
ATOM     32  H   UNL     1       1.195  -0.505   8.024  0.00  0.00    +0.145 HD
ENDBRANCH  26  28
ENDBRANCH  19  20
ENDBRANCH   1  19
TORSDOF 4
