REMARK  Name = ZINC66091757
REMARK  10 active torsions:
REMARK  status: ('A' for Active; 'I' for Inactive)
REMARK    1  A    between atoms: C_1  and  C_2
REMARK    2  A    between atoms: C_2  and  C_3
REMARK    3  A    between atoms: C_2  and  C_4
REMARK    4  A    between atoms: C_2  and  N_5
REMARK    5  A    between atoms: C_10  and  C_27
REMARK    6  A    between atoms: N_19  and  C_20
REMARK    7  A    between atoms: C_29  and  O_38
REMARK    8  A    between atoms: C_32  and  O_33
REMARK    9  A    between atoms: O_33  and  C_34
REMARK   10  A    between atoms: O_38  and  C_39
REMARK                            x       y       z     vdW  Elec       q    Type
REMARK                         _______ _______ _______ _____ _____    ______ ____
ROOT
ATOM      1  N   UNL     1       0.773  -0.485  -1.159  0.00  0.00    -0.241 N 
ATOM      2  C   UNL     1       0.953  -1.775  -1.518  0.00  0.00    +0.157 A 
ATOM      3  C   UNL     1       1.633  -1.774  -2.729  0.00  0.00    +0.026 A 
ATOM      4  C   UNL     1       1.872  -0.457  -3.078  0.00  0.00    +0.141 A 
ATOM      5  N   UNL     1       1.358   0.319  -2.151  0.00  0.00    -0.177 NA
ATOM      6  C   UNL     1       1.984  -3.047  -3.466  0.00  0.00    +0.086 C 
ATOM      7  C   UNL     1       0.909  -4.071  -3.098  0.00  0.00    +0.158 C 
ATOM      8  C   UNL     1       0.658  -4.020  -1.604  0.00  0.00    +0.127 C 
ATOM      9  N   UNL     1       0.595  -2.935  -0.883  0.00  0.00    -0.215 NA
ATOM     10  N   UNL     1       0.643  -5.327  -1.200  0.00  0.00    -0.256 N 
ATOM     11  C   UNL     1       1.095  -6.125  -2.182  0.00  0.00    +0.312 C 
ATOM     12  O   UNL     1       1.260  -7.323  -2.056  0.00  0.00    -0.252 OA
ATOM     13  N   UNL     1       1.341  -5.450  -3.337  0.00  0.00    -0.244 N 
ATOM     14  H   UNL     1       0.347  -5.635  -0.329  0.00  0.00    +0.158 HD
ENDROOT
BRANCH   6  15
ATOM     15  C   UNL     1       3.341  -3.539  -3.031  0.00  0.00    +0.011 A 
ATOM     16  C   UNL     1       3.564  -3.863  -1.705  0.00  0.00    +0.057 A 
ATOM     17  C   UNL     1       4.810  -4.315  -1.301  0.00  0.00    +0.166 A 
ATOM     18  C   UNL     1       5.838  -4.445  -2.228  0.00  0.00    +0.211 A 
ATOM     19  C   UNL     1       5.613  -4.119  -3.560  0.00  0.00    +0.211 A 
ATOM     20  C   UNL     1       4.359  -3.671  -3.961  0.00  0.00    +0.169 A 
ATOM     21  O   UNL     1       6.766  -4.329  -4.263  0.00  0.00    -0.449 OA
ATOM     22  C   UNL     1       7.811  -4.396  -3.274  0.00  0.00    +0.467 C 
ATOM     23  O   UNL     1       7.133  -4.859  -2.092  0.00  0.00    -0.449 OA
BRANCH  20  24
ATOM     24  O   UNL     1       4.134  -3.357  -5.265  0.00  0.00    -0.491 OA
ATOM     25  C   UNL     1       4.389  -2.007  -5.661  0.00  0.00    +0.277 C 
ENDBRANCH  20  24
BRANCH  17  26
ATOM     26  O   UNL     1       5.028  -4.633   0.004  0.00  0.00    -0.491 OA
ATOM     27  C   UNL     1       3.927  -4.476   0.902  0.00  0.00    +0.277 C 
ENDBRANCH  17  26
ENDBRANCH   6  15
BRANCH  13  28
ATOM     28  C   UNL     1       1.898  -5.959  -4.516  0.00  0.00    +0.039 A 
ATOM     29  C   UNL     1       2.377  -7.262  -4.552  0.00  0.00    +0.025 A 
ATOM     30  C   UNL     1       2.926  -7.762  -5.717  0.00  0.00    +0.022 A 
ATOM     31  C   UNL     1       2.999  -6.966  -6.847  0.00  0.00    +0.041 A 
ATOM     32  C   UNL     1       2.521  -5.668  -6.813  0.00  0.00    +0.022 A 
ATOM     33  C   UNL     1       1.966  -5.165  -5.653  0.00  0.00    +0.025 A 
ATOM     34 CL   UNL     1       3.690  -7.598  -8.308  0.00  0.00    -0.084 Cl
ENDBRANCH  13  28
BRANCH   1  36
ATOM     35  C   UNL     1       0.098   1.520   0.068  0.00  0.00    +0.036 C 
ATOM     36  C   UNL     1       0.086  -0.010   0.044  0.00  0.00    +0.057 C 
ATOM     37  C   UNL     1       0.804  -0.545   1.285  0.00  0.00    +0.036 C 
ATOM     38  C   UNL     1      -1.360  -0.509   0.037  0.00  0.00    +0.036 C 
ENDBRANCH   1  36
TORSDOF 5
