REMARK  Name = ZINC48555517
REMARK  3 active torsions:
REMARK  status: ('A' for Active; 'I' for Inactive)
REMARK    1  A    between atoms: C_3  and  C_6
REMARK    2  A    between atoms: C_6  and  O_8
REMARK    3  A    between atoms: O_8  and  C_9
REMARK                            x       y       z     vdW  Elec       q    Type
REMARK                         _______ _______ _______ _____ _____    ______ ____
ROOT
ATOM      1  C   UNL     1       5.561  -0.650  -0.090  0.00  0.00    +0.132 A 
ATOM      2  C   UNL     1       6.330   0.505  -0.049  0.00  0.00    +0.048 A 
ATOM      3  C   UNL     1       7.707   0.420  -0.097  0.00  0.00    +0.027 A 
ATOM      4  C   UNL     1       8.323  -0.821  -0.186  0.00  0.00    +0.037 A 
ATOM      5  C   UNL     1       7.553  -1.976  -0.227  0.00  0.00    -0.022 A 
ATOM      6  C   UNL     1       6.176  -1.891  -0.174  0.00  0.00    +0.051 A 
ATOM      7  C   UNL     1       8.224  -3.321  -0.323  0.00  0.00    +0.046 C 
ATOM      8  C   UNL     1       9.496  -3.199  -1.163  0.00  0.00    +0.101 C 
ATOM      9  C   UNL     1      10.315  -2.030  -0.686  0.00  0.00    +0.218 C 
ATOM     10  O   UNL     1      11.526  -2.097  -0.708  0.00  0.00    -0.275 OA
ATOM     11  N   UNL     1       9.719  -0.911  -0.235  0.00  0.00    -0.285 N 
ATOM     12  H   UNL     1      10.260  -0.161   0.058  0.00  0.00    +0.155 HD
ENDROOT
BRANCH   1  13
ATOM     13  O   UNL     1       4.205  -0.565  -0.042  0.00  0.00    -0.420 OA
BRANCH  13  14
ATOM     14  C   UNL     1       3.553  -0.197  -1.164  0.00  0.00    +0.380 C 
ATOM     15  O   UNL     1       4.182   0.134  -2.151  0.00  0.00    -0.241 OA
BRANCH  14  18
ATOM     16  C   UNL     1      -0.025   0.006  -1.846  0.00  0.00    +0.042 A 
ATOM     17  C   UNL     1       1.308   0.152  -2.259  0.00  0.00    +0.056 A 
ATOM     18  C   UNL     1       2.089  -0.196  -1.194  0.00  0.00    +0.212 A 
ATOM     19  O   UNL     1       1.275  -0.540  -0.174  0.00  0.00    -0.456 OA
ATOM     20  C   UNL     1      -0.001  -0.419  -0.564  0.00  0.00    +0.196 A 
ENDBRANCH  14  18
ENDBRANCH  13  14
ENDBRANCH   1  13
TORSDOF 3
