REMARK  Name = ZINC14472038
REMARK  5 active torsions:
REMARK  status: ('A' for Active; 'I' for Inactive)
REMARK    1  A    between atoms: C_1  and  C_2
REMARK    2  A    between atoms: C_2  and  N_3
REMARK    3  A    between atoms: C_4  and  C_6
REMARK    4  A    between atoms: C_13  and  C_22
REMARK    5  A    between atoms: C_26  and  N_28
REMARK                            x       y       z     vdW  Elec       q    Type
REMARK                         _______ _______ _______ _____ _____    ______ ____
ROOT
ATOM      1  C   UNL     1      -6.601   3.878   1.778  0.00  0.00    +0.058 A 
ATOM      2  C   UNL     1      -7.160   5.122   1.486  0.00  0.00    +0.015 A 
ATOM      3  C   UNL     1      -7.123   5.599   0.195  0.00  0.00    +0.001 A 
ATOM      4  C   UNL     1      -6.534   4.851  -0.808  0.00  0.00    +0.006 A 
ATOM      5  C   UNL     1      -5.971   3.612  -0.538  0.00  0.00    -0.019 A 
ATOM      6  C   UNL     1      -6.002   3.118   0.755  0.00  0.00    +0.044 A 
ATOM      7  N   UNL     1      -5.460   1.887   1.090  0.00  0.00    -0.336 N 
ATOM      8  C   UNL     1      -4.383   1.490   0.182  0.00  0.00    +0.105 C 
ATOM      9  C   UNL     1      -4.919   1.440  -1.251  0.00  0.00    +0.029 C 
ATOM     10  C   UNL     1      -5.343   2.862  -1.676  0.00  0.00    +0.049 C 
ATOM     11  C   UNL     1      -4.051   3.522  -2.099  0.00  0.00    -0.023 C 
ATOM     12  C   UNL     1      -3.147   2.620  -2.387  0.00  0.00    -0.030 C 
ATOM     13  C   UNL     1      -3.712   1.225  -2.205  0.00  0.00    +0.033 C 
ATOM     14  H   UNL     1      -5.145   1.880   2.049  0.00  0.00    +0.147 HD
ENDROOT
BRANCH   8  15
ATOM     15  C   UNL     1      -3.261   2.493   0.263  0.00  0.00    -0.025 A 
ATOM     16  C   UNL     1      -3.502   3.761   0.759  0.00  0.00    +0.005 A 
ATOM     17  C   UNL     1      -2.473   4.681   0.834  0.00  0.00    +0.003 A 
ATOM     18  C   UNL     1      -1.202   4.332   0.417  0.00  0.00    +0.033 A 
ATOM     19  C   UNL     1      -0.962   3.066  -0.083  0.00  0.00    +0.127 A 
ATOM     20  C   UNL     1      -1.991   2.146  -0.157  0.00  0.00    +0.038 A 
BRANCH  19  21
ATOM     21  N   UNL     1       0.398   2.693  -0.533  0.00  0.00    +0.056 N 
ATOM     22  O   UNL     1       0.610   1.576  -0.970  0.00  0.00    -0.126 OA
ATOM     23  O   UNL     1       1.303   3.506  -0.473  0.00  0.00    -0.126 OA
ENDBRANCH  19  21
ENDBRANCH   8  15
BRANCH   1  25
ATOM     24  N   UNL     1      -7.087   4.139   4.160  0.00  0.00    -0.312 N 
ATOM     25  C   UNL     1      -6.637   3.358   3.158  0.00  0.00    +0.246 C 
ATOM     26  O   UNL     1      -6.261   2.226   3.391  0.00  0.00    -0.270 OA
ATOM     27  H   UNL     1      -7.387   5.042   3.974  0.00  0.00    +0.149 HD
BRANCH  24  29
ATOM     28  C   UNL     1      -7.671   4.701   6.468  0.00  0.00    +0.024 C 
ATOM     29  C   UNL     1      -7.123   3.623   5.531  0.00  0.00    +0.101 C 
ENDBRANCH  24  29
ENDBRANCH   1  25
TORSDOF 4
