REMARK  Name = ZINC43741062
REMARK  6 active torsions:
REMARK  status: ('A' for Active; 'I' for Inactive)
REMARK    1  A    between atoms: C_1  and  N_2
REMARK    2  A    between atoms: C_4  and  C_11
REMARK    3  A    between atoms: N_7  and  C_10
REMARK    4  A    between atoms: C_22  and  O_32
REMARK    5  A    between atoms: C_29  and  O_31
REMARK    6  A    between atoms: O_32  and  C_33
REMARK                            x       y       z     vdW  Elec       q    Type
REMARK                         _______ _______ _______ _____ _____    ______ ____
ROOT
ATOM      1  C   UNL     1      -4.218   2.474  -2.221  0.00  0.00    +0.005 C 
ATOM      2  C   UNL     1      -4.879   1.572  -3.232  0.00  0.00    -0.049 A 
ATOM      3  C   UNL     1      -4.840   0.197  -3.006  0.00  0.00    +0.052 A 
ATOM      4  C   UNL     1      -5.441  -0.626  -3.945  0.00  0.00    +0.166 A 
ATOM      5  C   UNL     1      -6.067  -0.093  -5.083  0.00  0.00    +0.167 A 
ATOM      6  C   UNL     1      -6.106   1.276  -5.299  0.00  0.00    +0.054 A 
ATOM      7  C   UNL     1      -5.504   2.091  -4.348  0.00  0.00    -0.031 A 
ATOM      8  C   UNL     1      -5.552   3.590  -4.541  0.00  0.00    +0.026 C 
ATOM      9  C   UNL     1      -5.579   3.958  -5.973  0.00  0.00    -0.016 C 
ATOM     10  C   UNL     1      -4.455   4.103  -6.629  0.00  0.00    +0.001 C 
ATOM     11  C   UNL     1      -3.081   3.958  -6.050  0.00  0.00    +0.139 C 
ATOM     12  C   UNL     1      -3.103   3.478  -4.591  0.00  0.00    +0.022 C 
ATOM     13  C   UNL     1      -4.261   4.184  -3.909  0.00  0.00    -0.048 C 
ATOM     14  N   UNL     1      -4.480   3.884  -2.492  0.00  0.00    +0.392 N 
ATOM     15  C   UNL     1      -5.906   4.219  -2.245  0.00  0.00    -0.044 C 
ATOM     16  C   UNL     1      -6.632   4.149  -3.615  0.00  0.00    +0.111 C 
ATOM     17  O   UNL     1      -6.561  -1.109  -5.826  0.00  0.00    -0.453 OA
ATOM     18  C   UNL     1      -5.902  -2.298  -5.341  0.00  0.00    +0.466 C 
ATOM     19  O   UNL     1      -5.553  -1.974  -3.980  0.00  0.00    -0.453 OA
ATOM     20  H   UNL     1      -3.879   4.462  -1.924  0.00  0.00    -0.080 HD
ENDROOT
BRANCH   1  24
ATOM     21  C   UNL     1      -0.241   0.222  -4.143  0.00  0.00    +0.157 C 
ATOM     22  N   UNL     1      -0.831   1.155  -3.180  0.00  0.00    -0.264 N 
ATOM     23  C   UNL     1      -2.176   1.352  -3.169  0.00  0.00    +0.262 A 
ATOM     24  C   UNL     1      -2.730   2.238  -2.254  0.00  0.00    +0.072 A 
ATOM     25  C   UNL     1      -1.891   2.903  -1.369  0.00  0.00    +0.262 A 
ATOM     26  O   UNL     1      -2.395   3.760  -0.479  0.00  0.00    -0.267 OA
ATOM     27  N   UNL     1      -0.551   2.674  -1.418  0.00  0.00    -0.264 N 
ATOM     28  C   UNL     1      -0.038   1.806  -2.310  0.00  0.00    +0.334 A 
ATOM     29  O   UNL     1       1.161   1.612  -2.333  0.00  0.00    -0.246 OA
ATOM     30  C   UNL     1       0.340   3.372  -0.488  0.00  0.00    +0.157 C 
ATOM     31  O   UNL     1      -2.959   0.699  -4.032  0.00  0.00    -0.267 OA
ENDBRANCH   1  24
BRANCH  16  32
ATOM     32  O   UNL     1      -7.752   3.265  -3.551  0.00  0.00    -0.393 OA
ATOM     33  H   UNL     1      -8.465   3.574  -2.976  0.00  0.00    +0.210 HD
ENDBRANCH  16  32
BRANCH  11  34
ATOM     34  O   UNL     1      -2.421   5.224  -6.108  0.00  0.00    -0.376 OA
ATOM     35  C   UNL     1      -1.685   5.441  -7.314  0.00  0.00    +0.194 C 
ENDBRANCH  11  34
TORSDOF 3
