REMARK  Name = ZINC38611534
REMARK  6 active torsions:
REMARK  status: ('A' for Active; 'I' for Inactive)
REMARK    1  A    between atoms: C_1  and  C_2
REMARK    2  A    between atoms: C_2  and  C_3
REMARK    3  A    between atoms: C_3  and  C_4
REMARK    4  A    between atoms: C_6  and  C_18
REMARK    5  A    between atoms: C_8  and  C_16
REMARK    6  A    between atoms: C_9  and  N_15
REMARK                            x       y       z     vdW  Elec       q    Type
REMARK                         _______ _______ _______ _____ _____    ______ ____
ROOT
ATOM      1  C   UNL     1       0.739  -2.004  -1.265  0.00  0.00    +0.069 C 
ATOM      2  C   UNL     1      -0.135  -2.762  -1.882  0.00  0.00    +0.030 C 
ATOM      3  C   UNL     1      -1.270  -2.477  -2.828  0.00  0.00    +0.101 C 
ATOM      4  C   UNL     1      -1.180  -3.541  -3.905  0.00  0.00    +0.098 C 
ATOM      5  C   UNL     1      -0.337  -4.590  -3.798  0.00  0.00    +0.195 C 
ATOM      6  O   UNL     1       0.524  -4.828  -2.792  0.00  0.00    -0.448 OA
ATOM      7  C   UNL     1       0.266  -4.197  -1.536  0.00  0.00    +0.343 C 
ATOM      8  N   UNL     1       1.490  -3.990  -0.756  0.00  0.00    -0.138 NA
ATOM      9  N   UNL     1       1.668  -2.771  -0.639  0.00  0.00    -0.155 NA
ENDROOT
BRANCH   3  10
ATOM     10  C   UNL     1      -1.113  -1.105  -3.432  0.00  0.00    +0.003 A 
ATOM     11  C   UNL     1      -0.005  -0.808  -4.172  0.00  0.00    +0.017 A 
ATOM     12  C   UNL     1       0.102   0.486  -4.718  0.00  0.00    +0.001 A 
ATOM     13  C   UNL     1       1.212   0.863  -5.491  0.00  0.00    +0.010 A 
ATOM     14  C   UNL     1       1.278   2.123  -6.002  0.00  0.00    +0.001 A 
ATOM     15  C   UNL     1       0.259   3.044  -5.769  0.00  0.00    +0.002 A 
ATOM     16  C   UNL     1      -0.831   2.712  -5.024  0.00  0.00    +0.028 A 
ATOM     17  C   UNL     1      -0.936   1.421  -4.479  0.00  0.00    +0.073 A 
ATOM     18  N   UNL     1      -1.995   1.066  -3.745  0.00  0.00    -0.235 NA
ATOM     19  C   UNL     1      -2.101  -0.140  -3.239  0.00  0.00    +0.134 A 
ATOM     20 CL   UNL     1      -3.505  -0.543  -2.300  0.00  0.00    -0.062 Cl
ENDBRANCH   3  10
BRANCH   5  21
ATOM     21  N   UNL     1      -0.361  -5.506  -4.818  0.00  0.00    -0.329 N 
ATOM     22  H   UNL     1      -0.964  -5.382  -5.568  0.00  0.00    +0.145 HD
ATOM     23  H   UNL     1       0.225  -6.279  -4.790  0.00  0.00    +0.145 HD
ENDBRANCH   5  21
BRANCH   4  24
ATOM     24  C   UNL     1      -2.010  -3.431  -5.066  0.00  0.00    +0.101 C 
ATOM     25  N   UNL     1      -2.670  -3.343  -5.987  0.00  0.00    -0.191 NA
ENDBRANCH   4  24
BRANCH   1  26
ATOM     26  C   UNL     1       0.718  -0.497  -1.257  0.00  0.00    +0.057 C 
BRANCH  26  28
ATOM     27  C   UNL     1      -0.019   1.526   0.010  0.00  0.00    +0.004 C 
ATOM     28  C   UNL     1       0.002  -0.004   0.002  0.00  0.00    +0.003 C 
ENDBRANCH  26  28
ENDBRANCH   1  26
TORSDOF 5
