REMARK  Name = ZINC04784902
REMARK  8 active torsions:
REMARK  status: ('A' for Active; 'I' for Inactive)
REMARK    1  A    between atoms: C_1  and  C_2
REMARK    2  A    between atoms: C_2  and  O_3
REMARK    3  A    between atoms: O_3  and  C_4
REMARK    4  A    between atoms: C_6  and  C_11
REMARK    5  A    between atoms: C_9  and  O_10
REMARK    6  A    between atoms: C_13  and  C_28
REMARK    7  A    between atoms: C_14  and  N_27
REMARK    8  A    between atoms: C_24  and  C_25
REMARK                            x       y       z     vdW  Elec       q    Type
REMARK                         _______ _______ _______ _____ _____    ______ ____
ROOT
ATOM      1  C   UNL     1      -3.833  -1.884   0.026  0.00  0.00    +0.105 C 
ATOM      2  C   UNL     1      -2.557  -2.702   0.009  0.00  0.00    +0.078 C 
ATOM      3  C   UNL     1      -1.368  -2.058   0.005  0.00  0.00    +0.107 C 
ATOM      4  N   UNL     1      -1.239  -0.669   0.017  0.00  0.00    -0.249 N 
ATOM      5  C   UNL     1       0.002  -0.004   0.014  0.00  0.00    +0.054 A 
ATOM      6  C   UNL     1       1.266  -0.619  -0.001  0.00  0.00    +0.025 A 
ATOM      7  C   UNL     1       2.414   0.136  -0.003  0.00  0.00    +0.002 A 
ATOM      8  C   UNL     1       2.364   1.520   0.010  0.00  0.00    +0.001 A 
ATOM      9  C   UNL     1       1.131   2.150   0.026  0.00  0.00    +0.017 A 
ATOM     10  C   UNL     1      -0.017   1.391   0.027  0.00  0.00    +0.036 A 
ATOM     11  S   UNL     1      -1.749   1.780   0.050  0.00  0.00    -0.071 S 
ATOM     12  C   UNL     1      -2.371   0.112   0.033  0.00  0.00    +0.093 C 
ATOM     13  C   UNL     1      -3.649  -0.378   0.039  0.00  0.00    +0.070 C 
ENDROOT
BRANCH   1  16
ATOM     14  C   UNL     1      -6.622  -3.148   2.239  0.00  0.00    +0.162 A 
ATOM     15  C   UNL     1      -5.894  -2.794   1.114  0.00  0.00    +0.054 A 
ATOM     16  C   UNL     1      -4.623  -2.268   1.251  0.00  0.00    -0.030 A 
ATOM     17  C   UNL     1      -4.073  -2.100   2.508  0.00  0.00    +0.008 A 
ATOM     18  C   UNL     1      -4.796  -2.446   3.634  0.00  0.00    +0.049 A 
ATOM     19  C   UNL     1      -6.070  -2.973   3.505  0.00  0.00    +0.158 A 
BRANCH  19  20
ATOM     20  O   UNL     1      -6.781  -3.320   4.611  0.00  0.00    -0.503 OA
ATOM     21  H   UNL     1      -6.645  -4.234   4.895  0.00  0.00    +0.292 HD
ENDBRANCH  19  20
BRANCH  14  22
ATOM     22  O   UNL     1      -7.873  -3.665   2.107  0.00  0.00    -0.489 OA
BRANCH  22  24
ATOM     23  C   UNL     1      -9.785  -4.408   0.829  0.00  0.00    +0.048 C 
ATOM     24  C   UNL     1      -8.375  -3.816   0.777  0.00  0.00    +0.226 C 
ENDBRANCH  22  24
ENDBRANCH  14  22
ENDBRANCH   1  16
BRANCH   3  25
ATOM     25  N   UNL     1      -0.221  -2.815  -0.011  0.00  0.00    -0.345 N 
ATOM     26  H   UNL     1       0.457  -2.683   0.671  0.00  0.00    +0.144 HD
ATOM     27  H   UNL     1      -0.089  -3.480  -0.704  0.00  0.00    +0.144 HD
ENDBRANCH   3  25
BRANCH  13  28
ATOM     28  C   UNL     1      -4.777   0.503   0.055  0.00  0.00    +0.098 C 
ATOM     29  N   UNL     1      -5.672   1.202   0.068  0.00  0.00    -0.191 NA
ENDBRANCH  13  28
BRANCH   2  30
ATOM     30  C   UNL     1      -2.610  -4.133  -0.004  0.00  0.00    +0.099 C 
ATOM     31  N   UNL     1      -2.652  -5.268  -0.014  0.00  0.00    -0.191 NA
ENDBRANCH   2  30
TORSDOF 7
