REMARK  Name = ZINC09453507
REMARK  10 active torsions:
REMARK  status: ('A' for Active; 'I' for Inactive)
REMARK    1  A    between atoms: C_1  and  C_2
REMARK    2  A    between atoms: C_2  and  C_3
REMARK    3  A    between atoms: C_7  and  C_33
REMARK    4  A    between atoms: C_8  and  N_9
REMARK    5  A    between atoms: C_10  and  C_12
REMARK    6  A    between atoms: C_12  and  S_13
REMARK    7  A    between atoms: S_13  and  C_14
REMARK    8  A    between atoms: C_17  and  C_20
REMARK    9  A    between atoms: N_18  and  N_19
REMARK   10  A    between atoms: C_22  and  C_26
REMARK                            x       y       z     vdW  Elec       q    Type
REMARK                         _______ _______ _______ _____ _____    ______ ____
ROOT
ATOM      1  C   UNL     1       7.249  -0.502   2.748  0.00  0.00    +0.209 A 
ATOM      2  N   UNL     1       6.670   0.073   3.779  0.00  0.00    -0.120 NA
ATOM      3  N   UNL     1       7.518   0.228   4.732  0.00  0.00    -0.125 NA
ATOM      4  C   UNL     1       8.691  -0.238   4.369  0.00  0.00    +0.199 A 
ATOM      5  N   UNL     1       8.553  -0.726   3.089  0.00  0.00    -0.223 N 
ENDROOT
BRANCH   4   6
ATOM      6  C   UNL     1       9.921  -0.244   5.181  0.00  0.00    +0.105 A 
ATOM      7  C   UNL     1      10.000  -0.046   6.532  0.00  0.00    +0.061 A 
ATOM      8  C   UNL     1      11.352  -0.133   6.899  0.00  0.00    +0.093 A 
ATOM      9  N   UNL     1      12.062  -0.374   5.817  0.00  0.00    -0.173 NA
ATOM     10  N   UNL     1      11.191  -0.455   4.723  0.00  0.00    -0.273 N 
ATOM     11  H   UNL     1      11.444  -0.627   3.803  0.00  0.00    +0.189 HD
BRANCH   8  12
ATOM     12  C   UNL     1      11.890   0.021   8.274  0.00  0.00    +0.002 A 
ATOM     13  C   UNL     1      11.026   0.270   9.339  0.00  0.00    +0.011 A 
ATOM     14  C   UNL     1      11.531   0.412  10.615  0.00  0.00    +0.020 A 
ATOM     15  C   UNL     1      12.893   0.308  10.839  0.00  0.00    +0.041 A 
ATOM     16  C   UNL     1      13.755   0.061   9.785  0.00  0.00    +0.020 A 
ATOM     17  C   UNL     1      13.259  -0.089   8.505  0.00  0.00    +0.011 A 
ATOM     18 CL   UNL     1      13.522   0.488  12.447  0.00  0.00    -0.084 Cl
ENDBRANCH   8  12
ENDBRANCH   4   6
BRANCH   5  19
ATOM     19  N   UNL     1       9.519  -1.308   2.319  0.00  0.00    -0.295 N 
ATOM     20  H   UNL     1      10.068  -0.612   1.838  0.00  0.00    +0.163 HD
ATOM     21  H   UNL     1      10.108  -1.913   2.873  0.00  0.00    +0.163 HD
ENDBRANCH   5  19
BRANCH   1  22
ATOM     22  S   UNL     1       6.484  -0.914   1.216  0.00  0.00    -0.075 S 
BRANCH  22  23
ATOM     23  C   UNL     1       4.770  -0.355   1.417  0.00  0.00    +0.173 C 
BRANCH  23  25
ATOM     24  N   UNL     1       2.690  -0.323   0.078  0.00  0.00    -0.284 N 
ATOM     25  C   UNL     1       3.994  -0.652   0.159  0.00  0.00    +0.228 C 
ATOM     26  O   UNL     1       4.544  -1.188  -0.780  0.00  0.00    -0.275 OA
ATOM     27  H   UNL     1       2.263   0.149   0.810  0.00  0.00    +0.155 HD
BRANCH  24  33
ATOM     28  C   UNL     1       1.116   0.276  -1.652  0.00  0.00    -0.026 A 
ATOM     29  C   UNL     1       0.393  -0.060  -2.780  0.00  0.00    +0.005 A 
ATOM     30  C   UNL     1       0.497  -1.329  -3.318  0.00  0.00    +0.001 A 
ATOM     31  C   UNL     1       1.326  -2.267  -2.728  0.00  0.00    +0.005 A 
ATOM     32  C   UNL     1       2.051  -1.938  -1.601  0.00  0.00    -0.029 A 
ATOM     33  C   UNL     1       1.952  -0.661  -1.061  0.00  0.00    +0.040 A 
ATOM     34  C   UNL     1       2.953  -2.960  -0.959  0.00  0.00    +0.045 C 
BRANCH  28  36
ATOM     35  C   UNL     1       2.128   2.539  -1.613  0.00  0.00    +0.009 C 
ATOM     36  C   UNL     1       1.001   1.660  -1.067  0.00  0.00    +0.033 C 
ENDBRANCH  28  36
ENDBRANCH  24  33
ENDBRANCH  23  25
ENDBRANCH  22  23
ENDBRANCH   1  22
TORSDOF 8
