REMARK  Name = ZINC22277715
REMARK  7 active torsions:
REMARK  status: ('A' for Active; 'I' for Inactive)
REMARK    1  A    between atoms: C_1  and  C_2
REMARK    2  A    between atoms: C_2  and  C_22
REMARK    3  A    between atoms: N_5  and  N_9
REMARK    4  A    between atoms: C_10  and  C_12
REMARK    5  A    between atoms: C_12  and  N_13
REMARK    6  A    between atoms: C_22  and  C_23
REMARK    7  A    between atoms: C_23  and  C_24
REMARK                            x       y       z     vdW  Elec       q    Type
REMARK                         _______ _______ _______ _____ _____    ______ ____
ROOT
ATOM      1  C   UNL     1       4.101  -1.333  -0.864  0.00  0.00    +0.041 C 
ATOM      2  C   UNL     1       4.257   0.059  -1.480  0.00  0.00    +0.112 C 
ATOM      3  C   UNL     1       4.795  -0.041  -2.893  0.00  0.00    +0.263 C 
ATOM      4  O   UNL     1       4.275  -0.594  -3.838  0.00  0.00    -0.271 OA
ATOM      5  N   UNL     1       5.973   0.614  -2.882  0.00  0.00    -0.137 N 
ATOM      6  C   UNL     1       6.251   1.108  -1.670  0.00  0.00    +0.326 C 
ATOM      7  O   UNL     1       7.258   1.738  -1.412  0.00  0.00    -0.251 OA
ATOM      8  N   UNL     1       5.290   0.829  -0.766  0.00  0.00    -0.284 N 
ATOM      9  H   UNL     1       5.166   1.057   0.303  0.00  0.00    +0.151 HD
ENDROOT
BRANCH   5  10
ATOM     10  N   UNL     1       6.803   0.760  -4.000  0.00  0.00    -0.225 N 
ATOM     11  C   UNL     1       6.871   1.944  -4.640  0.00  0.00    +0.213 C 
ATOM     12  O   UNL     1       6.212   2.884  -4.247  0.00  0.00    -0.276 OA
ATOM     13  H   UNL     1       7.401  -0.092  -4.357  0.00  0.00    +0.173 HD
BRANCH  11  14
ATOM     14  C   UNL     1       7.764   2.101  -5.844  0.00  0.00    +0.021 C 
BRANCH  14  15
ATOM     15  N   UNL     1       7.660   3.474  -6.355  0.00  0.00    +0.388 N 
ATOM     16  C   UNL     1       8.298   3.595  -7.674  0.00  0.00    -0.073 C 
ATOM     17  C   UNL     1       7.818   4.896  -8.340  0.00  0.00    +0.024 C 
ATOM     18  C   UNL     1       7.914   5.989  -7.326  0.00  0.00    -0.011 A 
ATOM     19  C   UNL     1       8.089   5.839  -5.983  0.00  0.00    -0.054 A 
ATOM     20  C   UNL     1       8.153   7.009  -5.230  0.00  0.00    +0.009 A 
ATOM     21  C   UNL     1       8.040   8.213  -5.839  0.00  0.00    +0.045 A 
ATOM     22  S   UNL     1       7.835   7.743  -7.551  0.00  0.00    -0.101 S 
ATOM     23  C   UNL     1       8.202   4.438  -5.389  0.00  0.00    -0.042 C 
ATOM     24  H   UNL     1       6.594   3.714  -6.487  0.00  0.00    -0.081 HD
ENDBRANCH  14  15
ENDBRANCH  11  14
ENDBRANCH   5  10
BRANCH   2  25
ATOM     25  C   UNL     1       2.922   0.806  -1.464  0.00  0.00    +0.040 C 
BRANCH  25  26
ATOM     26  C   UNL     1       2.490   1.048  -0.016  0.00  0.00    +0.038 C 
BRANCH  26  27
ATOM     27  C   UNL     1       1.175   1.783   0.000  0.00  0.00    -0.047 A 
ATOM     28  C   UNL     1      -0.013   1.076   0.008  0.00  0.00    +0.003 A 
ATOM     29  C   UNL     1      -1.219   1.751   0.017  0.00  0.00    +0.000 A 
ATOM     30  C   UNL     1      -1.238   3.133   0.029  0.00  0.00    +0.000 A 
ATOM     31  C   UNL     1      -0.050   3.840   0.022  0.00  0.00    +0.000 A 
ATOM     32  C   UNL     1       1.156   3.165   0.008  0.00  0.00    +0.003 A 
ENDBRANCH  26  27
ENDBRANCH  25  26
ENDBRANCH   2  25
TORSDOF 6
