REMARK  Name = ZINC22066074
REMARK  11 active torsions:
REMARK  status: ('A' for Active; 'I' for Inactive)
REMARK    1  A    between atoms: C_4  and  C_7
REMARK    2  A    between atoms: C_7  and  N_8
REMARK    3  A    between atoms: N_8  and  C_9
REMARK    4  A    between atoms: C_9  and  C_10
REMARK    5  A    between atoms: C_10  and  C_11
REMARK    6  A    between atoms: C_14  and  C_16
REMARK    7  A    between atoms: C_16  and  S_17
REMARK    8  A    between atoms: S_17  and  C_18
REMARK    9  A    between atoms: C_21  and  C_29
REMARK   10  A    between atoms: N_22  and  C_23
REMARK   11  A    between atoms: C_29  and  N_30
REMARK                            x       y       z     vdW  Elec       q    Type
REMARK                         _______ _______ _______ _____ _____    ______ ____
ROOT
ATOM      1  S   UNL     1       2.759   1.768  -0.015  0.00  0.00    -0.076 S 
ENDROOT
BRANCH   1   2
ATOM      2  C   UNL     1       1.062   2.240   0.004  0.00  0.00    +0.197 A 
ATOM      3  N   UNL     1       0.592   3.466   0.015  0.00  0.00    -0.122 NA
ATOM      4  N   UNL     1      -0.693   3.442   0.027  0.00  0.00    -0.135 NA
ATOM      5  C   UNL     1      -1.119   2.211   0.019  0.00  0.00    +0.122 A 
ATOM      6  N   UNL     1      -0.017   1.398   0.010  0.00  0.00    -0.276 N 
BRANCH   6   7
ATOM      7  C   UNL     1       0.002  -0.004   0.002  0.00  0.00    +0.050 A 
ATOM      8  C   UNL     1      -0.511  -0.701  -1.083  0.00  0.00    +0.026 A 
ATOM      9  C   UNL     1      -0.487  -2.082  -1.090  0.00  0.00    +0.002 A 
ATOM     10  C   UNL     1       0.038  -2.771  -0.013  0.00  0.00    +0.000 A 
ATOM     11  C   UNL     1       0.546  -2.079   1.072  0.00  0.00    +0.002 A 
ATOM     12  C   UNL     1       0.529  -0.698   1.082  0.00  0.00    +0.026 A 
ENDBRANCH   6   7
BRANCH   5  13
ATOM     13  C   UNL     1      -2.559   1.764   0.022  0.00  0.00    -0.001 C 
BRANCH  13  14
ATOM     14  N   UNL     1      -3.021   1.612   1.408  0.00  0.00    +0.384 N 
ATOM     15  C   UNL     1      -2.309   0.519   2.083  0.00  0.00    -0.078 C 
ATOM     16  C   UNL     1      -2.708   0.483   3.559  0.00  0.00    -0.019 C 
ATOM     17  C   UNL     1      -4.221   0.275   3.669  0.00  0.00    -0.004 C 
ATOM     18  C   UNL     1      -4.939   1.400   2.917  0.00  0.00    -0.019 C 
ATOM     19  C   UNL     1      -4.474   1.409   1.459  0.00  0.00    -0.078 C 
ATOM     20  H   UNL     1      -2.793   2.543   1.947  0.00  0.00    -0.081 HD
ENDBRANCH  13  14
ENDBRANCH   5  13
ENDBRANCH   1   2
BRANCH   1  21
ATOM     21  C   UNL     1       3.539   3.401  -0.014  0.00  0.00    +0.173 C 
BRANCH  21  23
ATOM     22  N   UNL     1       5.832   4.331  -0.031  0.00  0.00    -0.296 N 
ATOM     23  C   UNL     1       5.038   3.241  -0.029  0.00  0.00    +0.226 C 
ATOM     24  O   UNL     1       5.530   2.133  -0.040  0.00  0.00    -0.275 OA
BRANCH  22  25
ATOM     25  C   UNL     1       7.288   4.176  -0.046  0.00  0.00    +0.142 C 
BRANCH  25  29
ATOM     26  C   UNL     1       8.665   4.048  -4.088  0.00  0.00    +0.000 A 
ATOM     27  C   UNL     1       8.569   5.259  -3.428  0.00  0.00    +0.000 A 
ATOM     28  C   UNL     1       8.123   5.301  -2.120  0.00  0.00    +0.005 A 
ATOM     29  C   UNL     1       7.774   4.131  -1.472  0.00  0.00    -0.030 A 
ATOM     30  C   UNL     1       7.875   2.919  -2.130  0.00  0.00    +0.005 A 
ATOM     31  C   UNL     1       8.316   2.878  -3.439  0.00  0.00    +0.000 A 
ENDBRANCH  25  29
ENDBRANCH  22  25
BRANCH  22  32
ATOM     32  C   UNL     1       5.237   5.670  -0.017  0.00  0.00    +0.117 C 
BRANCH  32  33
ATOM     33  C   UNL     1       5.045   6.128   1.430  0.00  0.00    +0.114 C 
BRANCH  33  34
ATOM     34  C   UNL     1       4.433   7.505   1.443  0.00  0.00    +0.212 C 
ATOM     35  O   UNL     1       4.177   8.066   0.399  0.00  0.00    -0.276 OA
ATOM     36  N   UNL     1       4.171   8.115   2.617  0.00  0.00    -0.329 N 
ATOM     37  H   UNL     1       3.725   9.120   2.627  0.00  0.00    +0.145 HD
ATOM     38  H   UNL     1       4.404   7.606   3.564  0.00  0.00    +0.145 HD
ENDBRANCH  33  34
ENDBRANCH  32  33
ENDBRANCH  22  32
ENDBRANCH  21  23
ENDBRANCH   1  21
TORSDOF 11
