REMARK  Name = ZINC64538184
REMARK  9 active torsions:
REMARK  status: ('A' for Active; 'I' for Inactive)
REMARK    1  A    between atoms: C_1  and  O_2
REMARK    2  A    between atoms: O_2  and  C_3
REMARK    3  A    between atoms: C_9  and  C_12
REMARK    4  A    between atoms: C_12  and  C_13
REMARK    5  A    between atoms: C_13  and  N_14
REMARK    6  A    between atoms: C_16  and  C_21
REMARK    7  A    between atoms: N_23  and  C_24
REMARK    8  A    between atoms: C_30  and  O_34
REMARK    9  A    between atoms: O_34  and  C_35
REMARK                            x       y       z     vdW  Elec       q    Type
REMARK                         _______ _______ _______ _____ _____    ______ ____
ROOT
ATOM      1  N   UNL     1      -0.759  -6.798   1.434  0.00  0.00    -0.300 N 
ATOM      2  C   UNL     1      -1.183  -8.198   1.324  0.00  0.00    +0.121 C 
ATOM      3  C   UNL     1       0.086  -8.982   0.921  0.00  0.00    +0.101 C 
ATOM      4  C   UNL     1       1.207  -8.073   1.475  0.00  0.00    +0.110 C 
ATOM      5  C   UNL     1       0.579  -6.697   1.520  0.00  0.00    +0.216 C 
ATOM      6  O   UNL     1       1.192  -5.656   1.623  0.00  0.00    -0.276 OA
ENDROOT
BRANCH   3   7
ATOM      7  C   UNL     1       0.114 -10.337   1.581  0.00  0.00    +0.220 C 
ATOM      8  O   UNL     1      -0.790 -10.673   2.315  0.00  0.00    -0.275 OA
ATOM      9  N   UNL     1       1.145 -11.175   1.355  0.00  0.00    -0.288 N 
ATOM     10  H   UNL     1       1.869 -10.906   0.767  0.00  0.00    +0.151 HD
BRANCH   9  11
ATOM     11  C   UNL     1       1.173 -12.492   1.996  0.00  0.00    +0.224 C 
ATOM     12  N   UNL     1       2.489 -13.127   1.843  0.00  0.00    -0.316 N 
ATOM     13  C   UNL     1       2.547 -14.330   1.137  0.00  0.00    +0.043 A 
ATOM     14  C   UNL     1       3.711 -15.079   0.890  0.00  0.00    +0.027 A 
ATOM     15  C   UNL     1       3.666 -16.257   0.182  0.00  0.00    +0.047 A 
ATOM     16  C   UNL     1       2.467 -16.747  -0.314  0.00  0.00    +0.121 A 
ATOM     17  C   UNL     1       1.302 -16.027  -0.085  0.00  0.00    +0.062 A 
ATOM     18  C   UNL     1       1.354 -14.849   0.625  0.00  0.00    +0.035 A 
ATOM     19  S   UNL     1       0.096 -13.684   1.104  0.00  0.00    -0.082 S 
ATOM     20  H   UNL     1       3.288 -12.724   2.218  0.00  0.00    +0.149 HD
BRANCH  16  21
ATOM     21  O   UNL     1       2.434 -17.913  -1.013  0.00  0.00    -0.495 OA
ATOM     22  C   UNL     1       3.677 -18.591  -1.205  0.00  0.00    +0.277 C 
ENDBRANCH  16  21
ENDBRANCH   9  11
ENDBRANCH   3   7
BRANCH   1  23
ATOM     23  C   UNL     1      -1.676  -5.655   1.443  0.00  0.00    +0.112 C 
BRANCH  23  24
ATOM     24  C   UNL     1      -1.908  -5.176   0.009  0.00  0.00    +0.052 C 
BRANCH  24  31
ATOM     25  C   UNL     1      -1.200  -0.637   0.010  0.00  0.00    +0.121 A 
ATOM     26  C   UNL     1      -2.375   0.135   0.020  0.00  0.00    +0.047 A 
ATOM     27  C   UNL     1      -3.607  -0.415   0.028  0.00  0.00    +0.029 A 
ATOM     28  C   UNL     1      -3.753  -1.875   0.027  0.00  0.00    +0.043 A 
ATOM     29  N   UNL     1      -4.809  -2.650   0.034  0.00  0.00    -0.380 N 
ATOM     30  C   UNL     1      -4.362  -4.047   0.029  0.00  0.00    +0.144 C 
ATOM     31  C   UNL     1      -2.851  -4.000   0.018  0.00  0.00    -0.040 C 
ATOM     32  C   UNL     1      -2.516  -2.690   0.016  0.00  0.00    +0.002 A 
ATOM     33  C   UNL     1      -1.226  -1.992   0.003  0.00  0.00    +0.055 A 
ATOM     34  H   UNL     1      -5.731  -2.350   0.042  0.00  0.00    +0.160 HD
BRANCH  25  36
ATOM     35  C   UNL     1      -0.017   1.425   0.010  0.00  0.00    +0.277 C 
ATOM     36  O   UNL     1       0.002  -0.004   0.002  0.00  0.00    -0.495 OA
ENDBRANCH  25  36
ENDBRANCH  24  31
ENDBRANCH  23  24
ENDBRANCH   1  23
TORSDOF 7
