REMARK  Name = ZINC63667301
REMARK  11 active torsions:
REMARK  status: ('A' for Active; 'I' for Inactive)
REMARK    1  A    between atoms: C_1  and  C_2
REMARK    2  A    between atoms: C_2  and  N_3
REMARK    3  A    between atoms: C_7  and  C_17
REMARK    4  A    between atoms: N_9  and  C_10
REMARK    5  A    between atoms: C_13  and  C_16
REMARK    6  A    between atoms: C_19  and  C_22
REMARK    7  A    between atoms: C_22  and  C_23
REMARK    8  A    between atoms: C_23  and  C_24
REMARK    9  A    between atoms: N_26  and  C_27
REMARK   10  A    between atoms: C_27  and  C_28
REMARK   11  A    between atoms: C_28  and  C_29
REMARK                            x       y       z     vdW  Elec       q    Type
REMARK                         _______ _______ _______ _____ _____    ______ ____
ROOT
ATOM      1  N   UNL     1       0.792  -0.470  -1.141  0.00  0.00    -0.272 N 
ATOM      2  C   UNL     1       0.196  -0.690  -2.462  0.00  0.00    +0.233 C 
ATOM      3  C   UNL     1       1.162  -0.709  -3.638  0.00  0.00    +0.100 C 
ATOM      4  C   UNL     1       0.522  -0.087  -4.646  0.00  0.00    +0.044 C 
ATOM      5  N   UNL     1      -0.666   0.441  -4.219  0.00  0.00    -0.265 N 
ATOM      6  N   UNL     1      -0.737   0.389  -2.798  0.00  0.00    -0.227 N 
ATOM      7  C   UNL     1       1.045   0.016  -6.055  0.00  0.00    +0.064 C 
ATOM      8  N   UNL     1       2.384  -1.194  -3.417  0.00  0.00    -0.246 NA
ATOM      9  C   UNL     1       2.862  -1.227  -2.200  0.00  0.00    +0.104 C 
ATOM     10  C   UNL     1       2.123  -0.723  -1.046  0.00  0.00    +0.263 C 
ATOM     11  O   UNL     1       2.696  -0.562   0.016  0.00  0.00    -0.269 OA
ATOM     12  H   UNL     1      -1.363   0.789  -4.797  0.00  0.00    +0.170 HD
ENDROOT
BRANCH   6  13
ATOM     13  C   UNL     1      -1.495   1.179  -1.931  0.00  0.00    +0.050 A 
ATOM     14  C   UNL     1      -1.020   2.420  -1.524  0.00  0.00    +0.025 A 
ATOM     15  C   UNL     1      -1.772   3.198  -0.667  0.00  0.00    +0.005 A 
ATOM     16  C   UNL     1      -2.997   2.745  -0.213  0.00  0.00    -0.050 A 
ATOM     17  C   UNL     1      -3.473   1.511  -0.616  0.00  0.00    +0.005 A 
ATOM     18  C   UNL     1      -2.729   0.730  -1.478  0.00  0.00    +0.025 A 
ATOM     19  C   UNL     1      -3.814   3.597   0.722  0.00  0.00    +0.044 C 
ENDBRANCH   6  13
BRANCH   1  21
ATOM     20  C   UNL     1      -0.423  -1.200   0.852  0.00  0.00    +0.024 C 
ATOM     21  C   UNL     1       0.004  -0.002   0.002  0.00  0.00    +0.107 C 
ENDBRANCH   1  21
BRANCH   9  22
ATOM     22  C   UNL     1       4.245  -1.787  -1.987  0.00  0.00    +0.070 C 
BRANCH  22  23
ATOM     23  C   UNL     1       4.831  -2.225  -3.331  0.00  0.00    +0.102 C 
BRANCH  23  24
ATOM     24  C   UNL     1       6.214  -2.785  -3.117  0.00  0.00    +0.213 C 
ATOM     25  O   UNL     1       6.684  -2.829  -2.000  0.00  0.00    -0.276 OA
ATOM     26  N   UNL     1       6.927  -3.237  -4.167  0.00  0.00    -0.315 N 
ATOM     27  H   UNL     1       6.551  -3.202  -5.061  0.00  0.00    +0.149 HD
BRANCH  26  28
ATOM     28  C   UNL     1       8.272  -3.781  -3.960  0.00  0.00    +0.108 C 
BRANCH  28  29
ATOM     29  C   UNL     1       8.857  -4.220  -5.303  0.00  0.00    +0.052 C 
BRANCH  29  30
ATOM     30  C   UNL     1      10.240  -4.780  -5.090  0.00  0.00    -0.040 C 
ATOM     31  C   UNL     1      10.576  -6.081  -4.934  0.00  0.00    -0.001 A 
ATOM     32  C   UNL     1       9.784  -7.317  -4.917  0.00  0.00    +0.010 A 
ATOM     33  C   UNL     1      10.416  -8.498  -4.736  0.00  0.00    +0.001 A 
ATOM     34  C   UNL     1      11.806  -8.572  -4.565  0.00  0.00    +0.002 A 
ATOM     35  C   UNL     1      12.600  -7.481  -4.569  0.00  0.00    +0.026 A 
ATOM     36  C   UNL     1      12.041  -6.186  -4.752  0.00  0.00    +0.043 A 
ATOM     37  N   UNL     1      12.590  -4.996  -4.793  0.00  0.00    -0.380 N 
ATOM     38  C   UNL     1      11.534  -4.001  -5.013  0.00  0.00    +0.144 C 
ATOM     39  H   UNL     1      13.536  -4.806  -4.699  0.00  0.00    +0.160 HD
ENDBRANCH  29  30
ENDBRANCH  28  29
ENDBRANCH  26  28
ENDBRANCH  23  24
ENDBRANCH  22  23
ENDBRANCH   9  22
TORSDOF 8
