REMARK  Name = ZINC39684106
REMARK  8 active torsions:
REMARK  status: ('A' for Active; 'I' for Inactive)
REMARK    1  A    between atoms: C_1  and  C_2
REMARK    2  A    between atoms: C_7  and  C_11
REMARK    3  A    between atoms: C_11  and  C_12
REMARK    4  A    between atoms: C_12  and  N_13
REMARK    5  A    between atoms: C_14  and  C_16
REMARK    6  A    between atoms: C_27  and  C_29
REMARK    7  A    between atoms: C_32  and  O_35
REMARK    8  A    between atoms: O_35  and  C_36
REMARK                            x       y       z     vdW  Elec       q    Type
REMARK                         _______ _______ _______ _____ _____    ______ ____
ROOT
ATOM      1  C   UNL     1      -9.137   2.153  -6.487  0.00  0.00    +0.100 C 
ATOM      2  C   UNL     1      -8.327   3.152  -7.342  0.00  0.00    +0.121 C 
ATOM      3  N   UNL     1      -7.937   2.383  -8.548  0.00  0.00    -0.296 N 
ATOM      4  C   UNL     1      -9.131   1.563  -8.863  0.00  0.00    +0.115 C 
ATOM      5  C   UNL     1      -9.667   1.114  -7.489  0.00  0.00    -0.004 C 
ATOM      6  C   UNL     1     -11.193   1.112  -7.492  0.00  0.00    -0.010 C 
ATOM      7  C   UNL     1     -11.695   0.030  -8.452  0.00  0.00    -0.082 C 
ATOM      8  N   UNL     1     -11.185  -1.279  -8.029  0.00  0.00    +0.379 N 
ATOM      9  C   UNL     1      -9.720  -1.298  -8.118  0.00  0.00    -0.082 C 
ATOM     10  C   UNL     1      -9.134  -0.273  -7.143  0.00  0.00    -0.010 C 
ATOM     11  C   UNL     1      -6.763   2.421  -9.208  0.00  0.00    +0.247 C 
ATOM     12  O   UNL     1      -5.830   3.054  -8.754  0.00  0.00    -0.270 OA
ATOM     13  H   UNL     1     -11.465  -1.455  -7.075  0.00  0.00    -0.086 HD
ATOM     14  H   UNL     1     -11.567  -1.997  -8.626  0.00  0.00    -0.086 HD
ENDROOT
BRANCH  11  15
ATOM     15  C   UNL     1      -6.610   1.695 -10.484  0.00  0.00    +0.037 A 
ATOM     16  C   UNL     1      -7.739   1.345 -11.231  0.00  0.00    +0.016 A 
ATOM     17  C   UNL     1      -7.592   0.668 -12.421  0.00  0.00    +0.047 A 
ATOM     18  C   UNL     1      -6.324   0.332 -12.879  0.00  0.00    +0.130 A 
ATOM     19  C   UNL     1      -5.199   0.678 -12.140  0.00  0.00    +0.047 A 
ATOM     20  C   UNL     1      -5.337   1.361 -10.952  0.00  0.00    +0.016 A 
BRANCH  18  21
ATOM     21  O   UNL     1      -6.183  -0.336 -14.052  0.00  0.00    -0.406 OA
BRANCH  21  22
ATOM     22  C   UNL     1      -4.851  -0.650 -14.465  0.00  0.00    +0.575 C 
ATOM     23  F   UNL     1      -4.241  -1.456 -13.497  0.00  0.00    -0.133 F 
ATOM     24  F   UNL     1      -4.890  -1.333 -15.684  0.00  0.00    -0.133 F 
ATOM     25  F   UNL     1      -4.119   0.533 -14.616  0.00  0.00    -0.133 F 
ENDBRANCH  21  22
ENDBRANCH  18  21
ENDBRANCH  11  15
BRANCH   1  27
ATOM     26  N   UNL     1      -8.778   0.976  -4.342  0.00  0.00    -0.315 N 
ATOM     27  C   UNL     1      -8.247   1.492  -5.467  0.00  0.00    +0.218 C 
ATOM     28  O   UNL     1      -7.051   1.425  -5.659  0.00  0.00    -0.275 OA
ATOM     29  H   UNL     1      -9.735   1.029  -4.188  0.00  0.00    +0.149 HD
BRANCH  26  30
ATOM     30  C   UNL     1      -7.912   0.333  -3.350  0.00  0.00    +0.109 C 
BRANCH  30  31
ATOM     31  C   UNL     1      -8.761  -0.164  -2.178  0.00  0.00    +0.056 C 
BRANCH  31  38
ATOM     32  C   UNL     1      -4.903  -1.915   2.446  0.00  0.00    +0.046 C 
ATOM     33  C   UNL     1      -5.644  -0.840   1.693  0.00  0.00    -0.027 A 
ATOM     34  C   UNL     1      -5.530   0.478   2.079  0.00  0.00    +0.005 A 
ATOM     35  C   UNL     1      -6.207   1.477   1.394  0.00  0.00    +0.001 A 
ATOM     36  C   UNL     1      -6.999   1.171   0.324  0.00  0.00    +0.010 A 
ATOM     37  C   UNL     1      -7.128  -0.158  -0.085  0.00  0.00    +0.003 A 
ATOM     38  C   UNL     1      -7.870  -0.825  -1.158  0.00  0.00    -0.021 A 
ATOM     39  C   UNL     1      -7.606  -2.138  -1.060  0.00  0.00    +0.087 A 
ATOM     40  N   UNL     1      -6.755  -2.365  -0.012  0.00  0.00    -0.360 N 
ATOM     41  C   UNL     1      -6.440  -1.174   0.602  0.00  0.00    +0.050 A 
ATOM     42  H   UNL     1      -6.422  -3.236   0.256  0.00  0.00    +0.165 HD
ENDBRANCH  31  38
ENDBRANCH  30  31
ENDBRANCH  26  30
ENDBRANCH   1  27
TORSDOF 7
