REMARK  Name = ZINC00894252
REMARK  6 active torsions:
REMARK  status: ('A' for Active; 'I' for Inactive)
REMARK    1  A    between atoms: C_1  and  C_2
REMARK    2  A    between atoms: C_5  and  C_36
REMARK    3  A    between atoms: C_9  and  C_14
REMARK    4  A    between atoms: C_14  and  C_16
REMARK    5  A    between atoms: C_14  and  N_27
REMARK    6  A    between atoms: N_20  and  C_21
REMARK                            x       y       z     vdW  Elec       q    Type
REMARK                         _______ _______ _______ _____ _____    ______ ____
ROOT
ATOM      1  C   UNL     1       1.964  -2.768   0.831  0.00  0.00    +0.179 C 
ENDROOT
BRANCH   1  10
ATOM      2  C   UNL     1       6.124  -0.770   3.241  0.00  0.00    +0.044 C 
ATOM      3  C   UNL     1       6.504  -0.989   1.799  0.00  0.00    -0.041 A 
ATOM      4  C   UNL     1       7.759  -0.668   1.364  0.00  0.00    +0.004 A 
ATOM      5  C   UNL     1       8.119  -0.867   0.039  0.00  0.00    +0.005 A 
ATOM      6  C   UNL     1       7.219  -1.391  -0.864  0.00  0.00    -0.026 A 
ATOM      7  C   UNL     1       5.936  -1.725  -0.444  0.00  0.00    +0.052 A 
ATOM      8  C   UNL     1       5.574  -1.522   0.901  0.00  0.00    +0.002 A 
ATOM      9  C   UNL     1       4.222  -1.878   1.334  0.00  0.00    +0.021 A 
ATOM     10  C   UNL     1       3.363  -2.392   0.418  0.00  0.00    +0.045 A 
ATOM     11  C   UNL     1       3.777  -2.580  -0.917  0.00  0.00    +0.255 A 
ATOM     12  O   UNL     1       2.991  -3.048  -1.723  0.00  0.00    -0.268 OA
ATOM     13  N   UNL     1       5.016  -2.251  -1.325  0.00  0.00    -0.322 N 
ATOM     14  H   UNL     1       5.266  -2.391  -2.252  0.00  0.00    +0.169 HD
ATOM     15  C   UNL     1       7.624  -1.602  -2.300  0.00  0.00    +0.046 C 
ENDBRANCH   1  10
BRANCH   1  16
ATOM     16  N   UNL     1       0.996  -2.077  -0.032  0.00  0.00    -0.315 N 
ATOM     17  C   UNL     1      -0.373  -2.591   0.188  0.00  0.00    +0.111 C 
ATOM     18  C   UNL     1      -1.250  -1.351  -0.098  0.00  0.00    +0.056 C 
ATOM     19  C   UNL     1      -0.310  -0.199   0.196  0.00  0.00    -0.025 A 
ATOM     20  C   UNL     1       0.986  -0.701   0.228  0.00  0.00    +0.034 A 
ATOM     21  C   UNL     1       2.042   0.168   0.494  0.00  0.00    +0.023 A 
ATOM     22  C   UNL     1       1.800   1.508   0.715  0.00  0.00    +0.002 A 
ATOM     23  C   UNL     1       0.508   1.998   0.677  0.00  0.00    +0.000 A 
ATOM     24  C   UNL     1      -0.547   1.141   0.417  0.00  0.00    +0.005 A 
ENDBRANCH   1  16
BRANCH   1  25
ATOM     25  C   UNL     1       1.783  -4.258   0.694  0.00  0.00    +0.177 A 
ATOM     26  N   UNL     1       1.631  -4.929  -0.422  0.00  0.00    -0.111 NA
ATOM     27  N   UNL     1       1.508  -6.176  -0.123  0.00  0.00    -0.023 NA
ATOM     28  N   UNL     1       1.579  -6.319   1.155  0.00  0.00    -0.044 NA
ATOM     29  N   UNL     1       1.753  -5.159   1.693  0.00  0.00    -0.224 N 
BRANCH  29  30
ATOM     30  C   UNL     1       1.889  -4.876   3.124  0.00  0.00    +0.111 C 
ATOM     31  C   UNL     1       3.105  -5.622   3.678  0.00  0.00    +0.027 C 
ATOM     32  C   UNL     1       3.248  -5.327   5.172  0.00  0.00    +0.002 C 
ATOM     33  C   UNL     1       1.988  -5.790   5.906  0.00  0.00    +0.000 C 
ATOM     34  C   UNL     1       0.772  -5.044   5.352  0.00  0.00    +0.002 C 
ATOM     35  C   UNL     1       0.629  -5.340   3.858  0.00  0.00    +0.027 C 
ENDBRANCH  29  30
ENDBRANCH   1  25
TORSDOF 4
