REMARK  Name = ZINC49588652
REMARK  8 active torsions:
REMARK  status: ('A' for Active; 'I' for Inactive)
REMARK    1  A    between atoms: C_1  and  C_2
REMARK    2  A    between atoms: C_2  and  C_3
REMARK    3  A    between atoms: C_3  and  C_5
REMARK    4  A    between atoms: C_3  and  N_6
REMARK    5  A    between atoms: N_9  and  C_12
REMARK    6  A    between atoms: C_17  and  N_18
REMARK    7  A    between atoms: C_23  and  C_25
REMARK    8  A    between atoms: C_28  and  O_31
REMARK                            x       y       z     vdW  Elec       q    Type
REMARK                         _______ _______ _______ _____ _____    ______ ____
ROOT
ATOM      1  C   UNL     1      -0.327   1.358  -4.964  0.00  0.00    +0.073 A 
ATOM      2  C   UNL     1       0.092   0.544  -6.006  0.00  0.00    +0.028 A 
ATOM      3  C   UNL     1      -0.045   0.970  -7.314  0.00  0.00    +0.002 A 
ATOM      4  C   UNL     1      -0.599   2.207  -7.588  0.00  0.00    +0.002 A 
ATOM      5  C   UNL     1      -1.020   3.024  -6.557  0.00  0.00    +0.025 A 
ATOM      6  C   UNL     1      -0.891   2.603  -5.241  0.00  0.00    +0.054 A 
ENDROOT
BRANCH   6   7
ATOM      7  N   UNL     1      -1.321   3.426  -4.196  0.00  0.00    -0.325 N 
ATOM      8  C   UNL     1      -2.702   3.352  -3.693  0.00  0.00    +0.087 C 
ATOM      9  C   UNL     1      -3.280   4.770  -3.651  0.00  0.00    -0.063 C 
ATOM     10  N   UNL     1      -2.394   5.636  -2.863  0.00  0.00    +0.381 N 
ATOM     11  C   UNL     1      -1.092   5.760  -3.531  0.00  0.00    -0.055 C 
ATOM     12  C   UNL     1      -0.404   4.386  -3.563  0.00  0.00    +0.087 C 
ATOM     13  H   UNL     1      -2.812   6.550  -2.772  0.00  0.00    -0.086 HD
ATOM     14  H   UNL     1      -2.263   5.236  -1.946  0.00  0.00    -0.086 HD
BRANCH  12  15
ATOM     15  C   UNL     1       0.869   4.475  -4.366  0.00  0.00    -0.029 A 
ATOM     16  C   UNL     1       0.820   4.831  -5.701  0.00  0.00    +0.009 A 
ATOM     17  C   UNL     1       1.985   4.912  -6.438  0.00  0.00    +0.046 A 
ATOM     18  C   UNL     1       3.205   4.637  -5.838  0.00  0.00    +0.117 A 
ATOM     19  C   UNL     1       3.252   4.280  -4.499  0.00  0.00    +0.046 A 
ATOM     20  C   UNL     1       2.084   4.205  -3.764  0.00  0.00    +0.009 A 
BRANCH  18  21
ATOM     21  O   UNL     1       4.352   4.716  -6.562  0.00  0.00    -0.507 OA
ATOM     22  H   UNL     1       4.767   5.589  -6.548  0.00  0.00    +0.292 HD
ENDBRANCH  18  21
ENDBRANCH  12  15
ENDBRANCH   6   7
BRANCH   1  26
ATOM     23  N   UNL     1       0.647   0.497  -1.676  0.00  0.00    -0.210 N 
ATOM     24  C   UNL     1       0.928   1.019  -2.888  0.00  0.00    +0.351 A 
ATOM     25  O   UNL     1       1.996   1.487  -3.241  0.00  0.00    -0.244 OA
ATOM     26  N   UNL     1      -0.190   0.927  -3.635  0.00  0.00    -0.248 N 
ATOM     27  C   UNL     1      -1.172   0.340  -2.873  0.00  0.00    +0.230 A 
ATOM     28  N   UNL     1      -0.688   0.072  -1.703  0.00  0.00    -0.157 NA
BRANCH  23  29
ATOM     29  C   UNL     1       1.570   0.387  -0.543  0.00  0.00    +0.109 C 
ATOM     30  C   UNL     1       1.842  -1.089  -0.247  0.00  0.00    +0.033 C 
BRANCH  29  32
ATOM     31  C   UNL     1       0.803   2.551   0.444  0.00  0.00    +0.006 C 
ATOM     32  C   UNL     1       0.945   1.047   0.689  0.00  0.00    +0.023 C 
ENDBRANCH  29  32
ENDBRANCH  23  29
ENDBRANCH   1  26
TORSDOF 6
