REMARK  Name = ZINC44166654
REMARK  10 active torsions:
REMARK  status: ('A' for Active; 'I' for Inactive)
REMARK    1  A    between atoms: C_1  and  C_2
REMARK    2  A    between atoms: C_2  and  C_3
REMARK    3  A    between atoms: C_3  and  C_4
REMARK    4  A    between atoms: C_4  and  C_5
REMARK    5  A    between atoms: C_5  and  C_6
REMARK    6  A    between atoms: C_9  and  C_12
REMARK    7  A    between atoms: C_17  and  C_20
REMARK    8  A    between atoms: N_22  and  C_23
REMARK    9  A    between atoms: C_23  and  C_25
REMARK   10  A    between atoms: C_23  and  C_26
REMARK                            x       y       z     vdW  Elec       q    Type
REMARK                         _______ _______ _______ _____ _____    ______ ____
ROOT
ATOM      1  C   UNL     1       2.696 -10.346  -0.373  0.00  0.00    -0.030 C 
ATOM      2  C   UNL     1       1.517 -11.302  -0.586  0.00  0.00    +0.058 C 
ATOM      3  S   UNL     1       0.894 -11.812   1.046  0.00  0.00    -0.163 S 
ATOM      4  C   UNL     1       2.412 -12.330   1.907  0.00  0.00    +0.062 C 
ATOM      5  C   UNL     1       3.458 -11.220   1.747  0.00  0.00    +0.027 C 
ATOM      6  N   UNL     1       3.777 -11.041   0.329  0.00  0.00    +0.392 N 
ATOM      7  H   UNL     1       3.920 -11.944  -0.096  0.00  0.00    -0.084 HD
ATOM      8  H   UNL     1       4.625 -10.500   0.248  0.00  0.00    -0.084 HD
ENDROOT
BRANCH   1  12
ATOM      9  C   UNL     1       4.118  -8.975  -4.161  0.00  0.00    -0.047 A 
ATOM     10  C   UNL     1       3.283  -8.174  -3.405  0.00  0.00    +0.004 A 
ATOM     11  C   UNL     1       2.823  -8.618  -2.180  0.00  0.00    +0.002 A 
ATOM     12  C   UNL     1       3.197  -9.863  -1.710  0.00  0.00    -0.061 A 
ATOM     13  C   UNL     1       4.032 -10.664  -2.466  0.00  0.00    +0.002 A 
ATOM     14  C   UNL     1       4.489 -10.222  -3.694  0.00  0.00    +0.004 A 
BRANCH   9  15
ATOM     15  C   UNL     1       4.620  -8.492  -5.497  0.00  0.00    +0.035 C 
BRANCH  15  16
ATOM     16  C   UNL     1       3.638  -8.912  -6.593  0.00  0.00    +0.005 C 
BRANCH  16  17
ATOM     17  C   UNL     1       4.147  -8.421  -7.950  0.00  0.00    +0.000 C 
BRANCH  17  19
ATOM     18  C   UNL     1       3.674  -8.349 -10.402  0.00  0.00    +0.004 C 
ATOM     19  C   UNL     1       3.165  -8.840  -9.046  0.00  0.00    -0.003 C 
ENDBRANCH  17  19
ENDBRANCH  16  17
ENDBRANCH  15  16
ENDBRANCH   9  15
ENDBRANCH   1  12
BRANCH   5  20
ATOM     20  C   UNL     1       4.708 -11.599   2.497  0.00  0.00    +0.200 C 
ATOM     21  O   UNL     1       5.760 -11.713   1.904  0.00  0.00    -0.278 OA
ATOM     22  N   UNL     1       4.659 -11.812   3.827  0.00  0.00    -0.310 N 
ATOM     23  H   UNL     1       3.818 -11.721   4.301  0.00  0.00    +0.149 HD
BRANCH  22  24
ATOM     24  C   UNL     1       5.875 -12.181   4.556  0.00  0.00    +0.101 C 
ATOM     25  C   UNL     1       5.732 -11.776   6.024  0.00  0.00    +0.033 C 
BRANCH  24  26
ATOM     26  C   UNL     1       6.084 -13.670   4.463  0.00  0.00    -0.020 A 
ATOM     27  C   UNL     1       5.031 -14.495   4.210  0.00  0.00    +0.006 A 
ATOM     28  C   UNL     1       5.205 -15.874   4.120  0.00  0.00    +0.001 A 
ATOM     29  C   UNL     1       6.434 -16.438   4.285  0.00  0.00    +0.008 A 
ATOM     30  C   UNL     1       7.544 -15.619   4.548  0.00  0.00    -0.018 A 
ATOM     31  C   UNL     1       7.368 -14.215   4.632  0.00  0.00    -0.013 A 
ATOM     32  C   UNL     1       8.481 -13.395   4.889  0.00  0.00    +0.009 A 
ATOM     33  C   UNL     1       9.710 -13.958   5.048  0.00  0.00    +0.001 A 
ATOM     34  C   UNL     1       9.884 -15.338   4.958  0.00  0.00    +0.001 A 
ATOM     35  C   UNL     1       8.828 -16.164   4.723  0.00  0.00    +0.008 A 
ENDBRANCH  24  26
ENDBRANCH  22  24
ENDBRANCH   5  20
TORSDOF 8
