REMARK  Name = ZINC63584115
REMARK  5 active torsions:
REMARK  status: ('A' for Active; 'I' for Inactive)
REMARK    1  A    between atoms: C_1  and  C_2
REMARK    2  A    between atoms: C_3  and  C_14
REMARK    3  A    between atoms: N_6  and  C_7
REMARK    4  A    between atoms: C_19  and  N_22
REMARK    5  A    between atoms: N_22  and  C_23
REMARK                            x       y       z     vdW  Elec       q    Type
REMARK                         _______ _______ _______ _____ _____    ______ ____
ROOT
ATOM      1  C   UNL     1      -0.004  -0.358  -2.503  0.00  0.00    +0.269 C 
ATOM      2  O   UNL     1      -0.155   0.821  -2.758  0.00  0.00    -0.268 OA
ATOM      3  N   UNL     1       0.106  -1.255  -3.502  0.00  0.00    -0.296 N 
ATOM      4  C   UNL     1       0.123  -2.696  -3.217  0.00  0.00    +0.110 C 
ATOM      5  C   UNL     1      -0.959  -3.379  -4.060  0.00  0.00    +0.041 C 
ATOM      6  C   UNL     1      -0.747  -3.028  -5.535  0.00  0.00    +0.073 C 
ATOM      7  C   UNL     1      -0.871  -1.515  -5.723  0.00  0.00    +0.041 C 
ATOM      8  C   UNL     1       0.206  -0.811  -4.899  0.00  0.00    +0.110 C 
ENDROOT
BRANCH   1  11
ATOM      9  C   UNL     1      -0.513   1.440   0.004  0.00  0.00    +0.068 C 
ATOM     10  C   UNL     1      -0.163  -0.026   0.000  0.00  0.00    +0.074 A 
ATOM     11  C   UNL     1       0.059  -0.807  -1.099  0.00  0.00    +0.170 A 
ATOM     12  N   UNL     1       0.344  -2.054  -0.684  0.00  0.00    -0.124 NA
ATOM     13  N   UNL     1       0.314  -2.098   0.602  0.00  0.00    -0.060 NA
ATOM     14  N   UNL     1      -0.002  -0.819   1.081  0.00  0.00    -0.216 N 
BRANCH  14  15
ATOM     15  C   UNL     1      -0.128  -0.437   2.425  0.00  0.00    +0.067 A 
ATOM     16  C   UNL     1       0.263   0.834   2.826  0.00  0.00    +0.030 A 
ATOM     17  C   UNL     1       0.138   1.208   4.149  0.00  0.00    +0.040 A 
ATOM     18  C   UNL     1      -0.376   0.317   5.077  0.00  0.00    +0.124 A 
ATOM     19  C   UNL     1      -0.766  -0.951   4.678  0.00  0.00    +0.040 A 
ATOM     20  C   UNL     1      -0.648  -1.327   3.355  0.00  0.00    +0.030 A 
ATOM     21  F   UNL     1      -0.497   0.685   6.371  0.00  0.00    -0.205 F 
ENDBRANCH  14  15
ENDBRANCH   1  11
BRANCH   6  22
ATOM     22  N   UNL     1      -1.760  -3.706  -6.348  0.00  0.00    -0.341 N 
ATOM     23  H   UNL     1      -2.608  -3.960  -5.952  0.00  0.00    +0.146 HD
BRANCH  22  24
ATOM     24  C   UNL     1      -1.503  -3.986  -7.693  0.00  0.00    +0.027 A 
ATOM     25  C   UNL     1      -0.286  -3.628  -8.258  0.00  0.00    +0.026 A 
ATOM     26  C   UNL     1      -0.035  -3.906  -9.588  0.00  0.00    +0.040 A 
ATOM     27  C   UNL     1      -0.995  -4.542 -10.357  0.00  0.00    +0.124 A 
ATOM     28  C   UNL     1      -2.209  -4.901  -9.795  0.00  0.00    +0.040 A 
ATOM     29  C   UNL     1      -2.462  -4.629  -8.465  0.00  0.00    +0.026 A 
ATOM     30  F   UNL     1      -0.747  -4.813 -11.657  0.00  0.00    -0.205 F 
ENDBRANCH  22  24
ENDBRANCH   6  22
TORSDOF 4
