REMARK  Name = ZINC04065400
REMARK  7 active torsions:
REMARK  status: ('A' for Active; 'I' for Inactive)
REMARK    1  A    between atoms: C_1  and  C_2
REMARK    2  A    between atoms: C_3  and  C_18
REMARK    3  A    between atoms: C_4  and  C_10
REMARK    4  A    between atoms: C_18  and  O_20
REMARK    5  A    between atoms: O_20  and  C_21
REMARK    6  A    between atoms: C_21  and  C_22
REMARK    7  A    between atoms: C_22  and  C_23
REMARK                            x       y       z     vdW  Elec       q    Type
REMARK                         _______ _______ _______ _____ _____    ______ ____
ROOT
ATOM      1  C   UNL     1      -0.018   1.503   0.010  0.00  0.00    +0.061 C 
ATOM      2  C   UNL     1       0.002  -0.004   0.002  0.00  0.00    +0.021 C 
ATOM      3  C   UNL     1      -1.165  -0.684   0.004  0.00  0.00    +0.078 C 
ATOM      4  C   UNL     1      -1.098  -2.198  -0.005  0.00  0.00    +0.144 C 
ATOM      5  N   UNL     1       0.242  -2.807  -0.014  0.00  0.00    -0.288 N 
ATOM      6  C   UNL     1       1.317  -1.993  -0.015  0.00  0.00    +0.304 C 
ATOM      7  O   UNL     1       2.428  -2.486  -0.023  0.00  0.00    -0.252 OA
ATOM      8  N   UNL     1       1.200  -0.659  -0.013  0.00  0.00    -0.273 N 
ATOM      9  H   UNL     1       0.350  -3.771  -0.020  0.00  0.00    +0.151 HD
ATOM     10  H   UNL     1       2.012  -0.129  -0.018  0.00  0.00    +0.156 HD
ENDROOT
BRANCH   4  11
ATOM     11  C   UNL     1      -1.840  -2.689  -1.222  0.00  0.00    -0.021 A 
ATOM     12  C   UNL     1      -1.222  -2.675  -2.459  0.00  0.00    +0.007 A 
ATOM     13  C   UNL     1      -1.901  -3.124  -3.575  0.00  0.00    +0.022 A 
ATOM     14  C   UNL     1      -3.199  -3.588  -3.456  0.00  0.00    +0.059 A 
ATOM     15  C   UNL     1      -3.817  -3.602  -2.217  0.00  0.00    +0.060 A 
ATOM     16  C   UNL     1      -3.134  -3.157  -1.099  0.00  0.00    +0.027 A 
ATOM     17 CL   UNL     1      -5.446  -4.183  -2.066  0.00  0.00    -0.082 Cl
ATOM     18 CL   UNL     1      -4.052  -4.152  -4.859  0.00  0.00    -0.082 Cl
ENDBRANCH   4  11
BRANCH   3  19
ATOM     19  C   UNL     1      -2.406  -0.006   0.014  0.00  0.00    +0.339 C 
ATOM     20  O   UNL     1      -2.435   1.210   0.021  0.00  0.00    -0.245 OA
BRANCH  19  21
ATOM     21  O   UNL     1      -3.558  -0.709   0.016  0.00  0.00    -0.455 OA
BRANCH  21  22
ATOM     22  C   UNL     1      -4.775   0.040   0.026  0.00  0.00    +0.317 C 
BRANCH  22  23
ATOM     23  C   UNL     1      -5.966  -0.921   0.027  0.00  0.00    +0.374 C 
ATOM     24  F   UNL     1      -7.157  -0.187   0.037  0.00  0.00    -0.192 F 
ATOM     25  F   UNL     1      -5.920  -1.720  -1.120  0.00  0.00    -0.192 F 
BRANCH  23  26
ATOM     26  C   UNL     1      -5.903  -1.809   1.271  0.00  0.00    +0.457 C 
ATOM     27  F   UNL     1      -5.949  -1.010   2.418  0.00  0.00    -0.165 F 
ATOM     28  F   UNL     1      -6.992  -2.688   1.271  0.00  0.00    -0.165 F 
ATOM     29  F   UNL     1      -4.712  -2.543   1.260  0.00  0.00    -0.165 F 
ENDBRANCH  23  26
ENDBRANCH  22  23
ENDBRANCH  21  22
ENDBRANCH  19  21
ENDBRANCH   3  19
TORSDOF 6
