REMARK  Name = ZINC20478591
REMARK  2 active torsions:
REMARK  status: ('A' for Active; 'I' for Inactive)
REMARK    1  A    between atoms: C_3  and  N_8
REMARK    2  A    between atoms: N_8  and  C_9
REMARK                            x       y       z     vdW  Elec       q    Type
REMARK                         _______ _______ _______ _____ _____    ______ ____
ROOT
ATOM      1  C   UNL     1       4.860   1.407  -0.037  0.00  0.00    +0.191 C 
ATOM      2  C   UNL     1       5.964   2.281   0.512  0.00  0.00    +0.017 A 
ATOM      3  C   UNL     1       6.884   2.441  -0.517  0.00  0.00    +0.040 A 
ATOM      4  C   UNL     1       8.022   3.212  -0.290  0.00  0.00    +0.024 A 
ATOM      5  C   UNL     1       8.224   3.804   0.940  0.00  0.00    +0.003 A 
ATOM      6  C   UNL     1       7.302   3.638   1.956  0.00  0.00    +0.016 A 
ATOM      7  C   UNL     1       6.168   2.872   1.738  0.00  0.00    +0.025 A 
ATOM      8 BR   UNL     1       4.902   2.640   3.124  0.00  0.00    -0.050 Br
ATOM      9  N   UNL     1       6.461   1.751  -1.654  0.00  0.00    -0.283 N 
ATOM     10  C   UNL     1       5.288   1.118  -1.460  0.00  0.00    +0.242 C 
ATOM     11  O   UNL     1       4.688   0.444  -2.271  0.00  0.00    -0.273 OA
ATOM     12  H   UNL     1       6.955   1.729  -2.488  0.00  0.00    +0.155 HD
ENDROOT
BRANCH   1  13
ATOM     13  N   UNL     1       3.582   2.123  -0.021  0.00  0.00    -0.329 N 
ATOM     14  H   UNL     1       3.570   3.093  -0.016  0.00  0.00    +0.147 HD
BRANCH  13  17
ATOM     15  C   UNL     1      -0.017   1.378   0.010  0.00  0.00    +0.003 A 
ATOM     16  C   UNL     1       1.169   2.087   0.002  0.00  0.00    +0.023 A 
ATOM     17  C   UNL     1       2.381   1.409  -0.013  0.00  0.00    +0.029 A 
ATOM     18  C   UNL     1       2.397   0.020  -0.021  0.00  0.00    +0.037 A 
ATOM     19  C   UNL     1       1.208  -0.682  -0.013  0.00  0.00    +0.015 A 
ATOM     20  C   UNL     1       0.002  -0.004   0.002  0.00  0.00    +0.014 A 
ATOM     21  I   UNL     1       1.230  -2.777  -0.025  0.00  0.00    -0.044 I 
ENDBRANCH  13  17
ENDBRANCH   1  13
TORSDOF 2
