REMARK  Name = ZINC23338962
REMARK  5 active torsions:
REMARK  status: ('A' for Active; 'I' for Inactive)
REMARK    1  A    between atoms: C_5  and  C_7
REMARK    2  A    between atoms: C_13  and  C_15
REMARK    3  A    between atoms: C_18  and  C_21
REMARK    4  A    between atoms: C_21  and  N_22
REMARK    5  A    between atoms: C_25  and  O_28
REMARK                            x       y       z     vdW  Elec       q    Type
REMARK                         _______ _______ _______ _____ _____    ______ ____
ROOT
ATOM      1  C   UNL     1       2.890   6.072   9.365  0.00  0.00    +0.080 A 
ATOM      2  C   UNL     1       1.807   6.681   9.979  0.00  0.00    +0.098 A 
ATOM      3  C   UNL     1       0.632   6.880   9.232  0.00  0.00    +0.252 A 
ATOM      4  O   UNL     1      -0.342   7.412   9.738  0.00  0.00    -0.268 OA
ATOM      5  N   UNL     1       0.604   6.475   7.945  0.00  0.00    -0.307 N 
ATOM      6  H   UNL     1      -0.302   6.628   7.340  0.00  0.00    +0.170 HD
ATOM      7  C   UNL     1       1.697   5.877   7.392  0.00  0.00    +0.141 A 
ATOM      8  N   UNL     1       2.799   5.688   8.084  0.00  0.00    -0.229 NA
ENDROOT
BRANCH   1  13
ATOM      9  C   UNL     1       5.293   4.915  12.013  0.00  0.00    +0.001 A 
ATOM     10  C   UNL     1       6.487   5.426  11.536  0.00  0.00    +0.001 A 
ATOM     11  C   UNL     1       6.516   6.147  10.357  0.00  0.00    +0.020 A 
ATOM     12  C   UNL     1       5.352   6.356   9.643  0.00  0.00    +0.050 A 
ATOM     13  C   UNL     1       4.144   5.847  10.121  0.00  0.00    +0.019 A 
ATOM     14  C   UNL     1       4.122   5.122  11.312  0.00  0.00    +0.011 A 
ATOM     15 CL   UNL     1       5.391   7.254   8.158  0.00  0.00    -0.083 Cl
ENDBRANCH   1  13
BRANCH   7  16
ATOM     16  C   UNL     1       1.645   5.436   5.982  0.00  0.00    +0.017 A 
ATOM     17  C   UNL     1       2.756   4.827   5.396  0.00  0.00    +0.012 A 
ATOM     18  C   UNL     1       2.700   4.419   4.080  0.00  0.00    +0.002 A 
ATOM     19  C   UNL     1       1.546   4.612   3.340  0.00  0.00    -0.064 A 
ATOM     20  C   UNL     1       0.444   5.221   3.913  0.00  0.00    +0.002 A 
ATOM     21  C   UNL     1       0.484   5.628   5.231  0.00  0.00    +0.012 A 
BRANCH  19  22
ATOM     22  C   UNL     1       1.493   4.164   1.902  0.00  0.00    -0.043 C 
BRANCH  22  23
ATOM     23  N   UNL     1       1.008   2.779   1.839  0.00  0.00    +0.384 N 
ATOM     24  C   UNL     1       2.020   1.836   2.381  0.00  0.00    -0.076 C 
ATOM     25  C   UNL     1       1.640   0.467   1.776  0.00  0.00    +0.011 C 
ATOM     26  C   UNL     1       0.851   0.802   0.493  0.00  0.00    +0.096 C 
ATOM     27  C   UNL     1       0.821   2.344   0.431  0.00  0.00    -0.047 C 
ATOM     28  H   UNL     1       0.070   2.773   2.414  0.00  0.00    -0.081 HD
BRANCH  26  29
ATOM     29  O   UNL     1      -0.477   0.282   0.577  0.00  0.00    -0.394 OA
ATOM     30  H   UNL     1      -1.180   0.431  -0.256  0.00  0.00    +0.210 HD
ENDBRANCH  26  29
ENDBRANCH  22  23
ENDBRANCH  19  22
ENDBRANCH   7  16
TORSDOF 5
