REMARK  Name = ZINC17114794
REMARK  8 active torsions:
REMARK  status: ('A' for Active; 'I' for Inactive)
REMARK    1  A    between atoms: C_1  and  C_2
REMARK    2  A    between atoms: C_2  and  C_3
REMARK    3  A    between atoms: C_2  and  C_4
REMARK    4  A    between atoms: C_2  and  C_5
REMARK    5  A    between atoms: C_10  and  O_11
REMARK    6  A    between atoms: O_11  and  C_12
REMARK    7  A    between atoms: C_12  and  C_13
REMARK    8  A    between atoms: N_15  and  N_16
REMARK                            x       y       z     vdW  Elec       q    Type
REMARK                         _______ _______ _______ _____ _____    ______ ____
ROOT
ATOM      1  C   UNL     1      -2.453  -2.723   0.010  0.00  0.00    +0.267 C 
ATOM      2  O   UNL     1      -3.426  -1.998   0.023  0.00  0.00    -0.271 OA
ATOM      3  N   UNL     1      -2.610  -4.061   0.004  0.00  0.00    -0.221 N 
ATOM      4  H   UNL     1      -1.833  -4.641  -0.006  0.00  0.00    +0.174 HD
ENDROOT
BRANCH   3   5
ATOM      5  N   UNL     1      -3.897  -4.615   0.013  0.00  0.00    -0.137 N 
ATOM      6  C   UNL     1      -4.489  -5.175  -1.062  0.00  0.00    +0.263 C 
ATOM      7  O   UNL     1      -4.027  -5.290  -2.178  0.00  0.00    -0.271 OA
ATOM      8  C   UNL     1      -5.849  -5.629  -0.584  0.00  0.00    +0.114 C 
ATOM      9  C   UNL     1      -5.986  -7.141  -0.728  0.00  0.00    +0.035 C 
ATOM     10  C   UNL     1      -7.358  -7.583  -0.213  0.00  0.00    +0.003 C 
ATOM     11  C   UNL     1      -8.454  -6.877  -1.013  0.00  0.00    +0.000 C 
ATOM     12  C   UNL     1      -8.319  -5.363  -0.839  0.00  0.00    +0.003 C 
ATOM     13  C   UNL     1      -6.951  -4.911  -1.357  0.00  0.00    +0.035 C 
ATOM     14  N   UNL     1      -5.877  -5.241   0.832  0.00  0.00    -0.284 N 
ATOM     15  C   UNL     1      -4.689  -4.661   1.091  0.00  0.00    +0.326 C 
ATOM     16  O   UNL     1      -4.374  -4.224   2.181  0.00  0.00    -0.251 OA
ATOM     17  H   UNL     1      -6.605  -5.380   1.458  0.00  0.00    +0.151 HD
ENDBRANCH   3   5
BRANCH   1  18
ATOM     18  C   UNL     1      -1.069  -2.126   0.000  0.00  0.00    +0.326 C 
BRANCH  18  19
ATOM     19  O   UNL     1      -1.165  -0.701   0.009  0.00  0.00    -0.482 OA
BRANCH  19  25
ATOM     20  C   UNL     1      -0.017   1.383   0.010  0.00  0.00    -0.000 A 
ATOM     21  C   UNL     1       1.171   2.089   0.002  0.00  0.00    +0.008 A 
ATOM     22  C   UNL     1       2.377   1.414  -0.013  0.00  0.00    +0.001 A 
ATOM     23  C   UNL     1       2.399   0.031  -0.021  0.00  0.00    +0.004 A 
ATOM     24  C   UNL     1       1.214  -0.679  -0.013  0.00  0.00    +0.046 A 
ATOM     25  C   UNL     1       0.002  -0.004   0.002  0.00  0.00    +0.125 A 
BRANCH  20  27
ATOM     26  C   UNL     1      -1.072   3.627   0.027  0.00  0.00    +0.015 C 
ATOM     27  C   UNL     1      -1.332   2.119   0.020  0.00  0.00    -0.009 C 
ATOM     28  C   UNL     1      -2.135   1.746  -1.228  0.00  0.00    +0.015 C 
ATOM     29  C   UNL     1      -2.123   1.732   1.271  0.00  0.00    +0.015 C 
ENDBRANCH  20  27
ENDBRANCH  19  25
ENDBRANCH  18  19
ENDBRANCH   1  18
TORSDOF 5
