REMARK  Name = ZINC29481153
REMARK  6 active torsions:
REMARK  status: ('A' for Active; 'I' for Inactive)
REMARK    1  A    between atoms: C_4  and  C_7
REMARK    2  A    between atoms: C_7  and  C_9
REMARK    3  A    between atoms: C_7  and  O_35
REMARK    4  A    between atoms: N_12  and  C_15
REMARK    5  A    between atoms: C_15  and  C_16
REMARK    6  A    between atoms: C_29  and  C_31
REMARK                            x       y       z     vdW  Elec       q    Type
REMARK                         _______ _______ _______ _____ _____    ______ ____
ROOT
ATOM      1  C   UNL     1       0.373   4.451   2.800  0.00  0.00    +0.204 C 
ATOM      2  O   UNL     1       0.886   4.704   3.870  0.00  0.00    -0.277 OA
ATOM      3  N   UNL     1       0.855   3.446   2.043  0.00  0.00    -0.259 N 
ATOM      4  C   UNL     1       0.272   3.143   0.804  0.00  0.00    +0.058 A 
ATOM      5  C   UNL     1       0.456   3.977  -0.287  0.00  0.00    +0.025 A 
ATOM      6  C   UNL     1      -0.090   3.639  -1.512  0.00  0.00    +0.002 A 
ATOM      7  C   UNL     1      -0.831   2.479  -1.649  0.00  0.00    +0.002 A 
ATOM      8  C   UNL     1      -1.031   1.647  -0.561  0.00  0.00    +0.025 A 
ATOM      9  C   UNL     1      -0.485   1.978   0.668  0.00  0.00    +0.055 A 
ATOM     10  N   UNL     1      -0.700   1.170   1.790  0.00  0.00    -0.284 N 
ATOM     11  C   UNL     1       0.333   0.801   2.579  0.00  0.00    +0.219 C 
ATOM     12  O   UNL     1       0.121   0.170   3.592  0.00  0.00    -0.275 OA
ATOM     13  C   UNL     1       1.745   1.170   2.208  0.00  0.00    +0.128 C 
ATOM     14  C   UNL     1       1.996   2.650   2.498  0.00  0.00    +0.194 C 
ATOM     15  H   UNL     1      -1.717   0.830   2.036  0.00  0.00    +0.155 HD
ENDROOT
BRANCH  14  16
ATOM     16  C   UNL     1       3.259   3.105   1.762  0.00  0.00    +0.409 C 
ATOM     17  F   UNL     1       3.089   2.921   0.386  0.00  0.00    -0.169 F 
ATOM     18  F   UNL     1       3.489   4.460   2.026  0.00  0.00    -0.169 F 
ATOM     19  F   UNL     1       4.352   2.351   2.203  0.00  0.00    -0.169 F 
ENDBRANCH  14  16
BRANCH   1  20
ATOM     20  C   UNL     1      -0.803   5.261   2.318  0.00  0.00    +0.019 C 
BRANCH  20  24
ATOM     21  C   UNL     1      -3.073   7.478   5.184  0.00  0.00    +0.019 C 
ATOM     22  C   UNL     1      -2.062   6.434   5.667  0.00  0.00    -0.012 C 
ATOM     23  C   UNL     1      -1.767   5.453   4.531  0.00  0.00    -0.078 C 
ATOM     24  N   UNL     1      -1.228   6.186   3.378  0.00  0.00    +0.385 N 
ATOM     25  C   UNL     1      -2.200   7.161   2.867  0.00  0.00    -0.078 C 
ATOM     26  C   UNL     1      -2.508   8.193   3.954  0.00  0.00    -0.012 C 
ATOM     27  H   UNL     1      -0.342   6.742   3.718  0.00  0.00    -0.081 HD
BRANCH  21  28
ATOM     28  C   UNL     1      -3.327   8.498   6.296  0.00  0.00    +0.147 C 
BRANCH  28  32
ATOM     29  C   UNL     1      -6.401  11.202   5.076  0.00  0.00    +0.000 A 
ATOM     30  C   UNL     1      -6.700  10.151   5.923  0.00  0.00    +0.000 A 
ATOM     31  C   UNL     1      -5.706   9.276   6.318  0.00  0.00    +0.006 A 
ATOM     32  C   UNL     1      -4.411   9.451   5.866  0.00  0.00    -0.019 A 
ATOM     33  C   UNL     1      -4.110  10.505   5.023  0.00  0.00    +0.006 A 
ATOM     34  C   UNL     1      -5.106  11.377   4.624  0.00  0.00    +0.000 A 
ENDBRANCH  28  32
BRANCH  28  35
ATOM     35  O   UNL     1      -2.126   9.227   6.556  0.00  0.00    -0.387 OA
ATOM     36  H   UNL     1      -1.220   8.697   6.884  0.00  0.00    +0.210 HD
ENDBRANCH  28  35
ENDBRANCH  21  28
ENDBRANCH  20  24
ENDBRANCH   1  20
TORSDOF 6
