REMARK  Name = ZINC64672746
REMARK  8 active torsions:
REMARK  status: ('A' for Active; 'I' for Inactive)
REMARK    1  A    between atoms: C_1  and  C_2
REMARK    2  A    between atoms: C_9  and  N_14
REMARK    3  A    between atoms: C_10  and  C_11
REMARK    4  A    between atoms: C_15  and  C_17
REMARK    5  A    between atoms: C_17  and  O_18
REMARK    6  A    between atoms: O_18  and  C_19
REMARK    7  A    between atoms: C_19  and  C_21
REMARK    8  A    between atoms: C_21  and  C_22
REMARK                            x       y       z     vdW  Elec       q    Type
REMARK                         _______ _______ _______ _____ _____    ______ ____
ROOT
ATOM      1  N   UNL     1       0.696  -5.847   2.434  0.00  0.00    -0.277 N 
ATOM      2  C   UNL     1       1.677  -6.096   3.324  0.00  0.00    +0.255 C 
ATOM      3  O   UNL     1       2.383  -5.191   3.716  0.00  0.00    -0.272 OA
ATOM      4  H   UNL     1       0.131  -6.571   2.120  0.00  0.00    +0.155 HD
ENDROOT
BRANCH   1  12
ATOM      5  C   UNL     1      -0.019   1.526   0.010  0.00  0.00    +0.008 C 
ATOM      6  C   UNL     1       0.002  -0.004   0.002  0.00  0.00    -0.009 C 
ATOM      7  C   UNL     1      -1.434  -0.537   0.019  0.00  0.00    +0.008 C 
ATOM      8  C   UNL     1      -1.433  -2.045  -0.237  0.00  0.00    +0.037 C 
ATOM      9  C   UNL     1      -0.464  -2.704   0.734  0.00  0.00    -0.023 A 
ATOM     10  C   UNL     1       0.485  -1.986   1.374  0.00  0.00    -0.004 A 
ATOM     11  S   UNL     1       1.343  -3.167   2.373  0.00  0.00    -0.077 S 
ATOM     12  C   UNL     1       0.492  -4.557   1.968  0.00  0.00    +0.084 A 
ATOM     13  C   UNL     1      -0.459  -4.119   1.061  0.00  0.00    +0.068 A 
ATOM     14  C   UNL     1       0.739  -0.515   1.248  0.00  0.00    +0.046 C 
BRANCH  13  15
ATOM     15  C   UNL     1      -1.421  -5.045   0.456  0.00  0.00    +0.244 C 
ATOM     16  O   UNL     1      -1.149  -5.611  -0.587  0.00  0.00    -0.270 OA
ATOM     17  N   UNL     1      -2.608  -5.271   1.055  0.00  0.00    -0.325 N 
ATOM     18  H   UNL     1      -2.825  -4.821   1.886  0.00  0.00    +0.145 HD
ATOM     19  H   UNL     1      -3.244  -5.884   0.655  0.00  0.00    +0.145 HD
ENDBRANCH  13  15
ENDBRANCH   1  12
BRANCH   2  20
ATOM     20  C   UNL     1       1.898  -7.498   3.830  0.00  0.00    +0.328 C 
BRANCH  20  21
ATOM     21  O   UNL     1       2.987  -7.504   4.755  0.00  0.00    -0.455 OA
BRANCH  21  22
ATOM     22  C   UNL     1       3.315  -8.685   5.303  0.00  0.00    +0.312 C 
ATOM     23  O   UNL     1       2.699  -9.680   5.006  0.00  0.00    -0.250 OA
BRANCH  22  24
ATOM     24  C   UNL     1       4.453  -8.769   6.287  0.00  0.00    +0.153 C 
BRANCH  24  25
ATOM     25  C   UNL     1       4.614 -10.194   6.748  0.00  0.00    -0.031 C 
ATOM     26  C   UNL     1       5.463 -11.120   6.247  0.00  0.00    -0.001 A 
ATOM     27  C   UNL     1       6.452 -11.079   5.163  0.00  0.00    +0.010 A 
ATOM     28  C   UNL     1       7.169 -12.192   4.886  0.00  0.00    +0.001 A 
ATOM     29  C   UNL     1       6.991 -13.381   5.606  0.00  0.00    +0.002 A 
ATOM     30  C   UNL     1       6.102 -13.497   6.616  0.00  0.00    +0.026 A 
ATOM     31  C   UNL     1       5.295 -12.388   6.993  0.00  0.00    +0.043 A 
ATOM     32  N   UNL     1       4.378 -12.251   7.919  0.00  0.00    -0.380 N 
ATOM     33  C   UNL     1       3.864 -10.878   7.870  0.00  0.00    +0.145 C 
ATOM     34  H   UNL     1       4.089 -12.941   8.537  0.00  0.00    +0.160 HD
ENDBRANCH  24  25
ENDBRANCH  22  24
ENDBRANCH  21  22
ENDBRANCH  20  21
ENDBRANCH   2  20
TORSDOF 7
