REMARK  Name = ZINC00647019
REMARK  5 active torsions:
REMARK  status: ('A' for Active; 'I' for Inactive)
REMARK    1  A    between atoms: C_3  and  C_6
REMARK    2  A    between atoms: C_9  and  C_29
REMARK    3  A    between atoms: C_14  and  C_16
REMARK    4  A    between atoms: N_18  and  C_19
REMARK    5  A    between atoms: C_19  and  C_20
REMARK                            x       y       z     vdW  Elec       q    Type
REMARK                         _______ _______ _______ _____ _____    ______ ____
ROOT
ATOM      1  C   UNL     1       3.761   1.845  -0.024  0.00  0.00    +0.111 C 
ATOM      2  C   UNL     1       4.347   1.768   1.390  0.00  0.00    +0.063 C 
ATOM      3  C   UNL     1       4.261   0.329   1.912  0.00  0.00    +0.215 C 
ATOM      4  N   UNL     1       4.812  -0.577   0.900  0.00  0.00    -0.237 N 
ATOM      5  C   UNL     1       4.957  -0.243  -0.417  0.00  0.00    +0.137 A 
ATOM      6  C   UNL     1       5.494  -1.300  -1.061  0.00  0.00    +0.112 A 
ATOM      7  C   UNL     1       5.686  -2.327  -0.109  0.00  0.00    +0.167 A 
ATOM      8  N   UNL     1       5.274  -1.882   1.065  0.00  0.00    -0.163 NA
ATOM      9 CL   UNL     1       5.877  -1.383  -2.752  0.00  0.00    -0.078 Cl
ATOM     10  N   UNL     1       4.581   1.010  -0.923  0.00  0.00    -0.321 N 
ATOM     11  H   UNL     1       4.843   1.311  -1.807  0.00  0.00    +0.148 HD
ENDROOT
BRANCH   1  14
ATOM     12  C   UNL     1      -0.016   1.351   0.009  0.00  0.00    +0.008 A 
ATOM     13  C   UNL     1       1.183   2.038   0.002  0.00  0.00    +0.013 A 
ATOM     14  C   UNL     1       2.343   1.336  -0.013  0.00  0.00    +0.010 A 
ATOM     15  S   UNL     1       1.754  -0.349  -0.017  0.00  0.00    -0.100 S 
ATOM     16  C   UNL     1       0.002  -0.004   0.002  0.00  0.00    +0.045 A 
ENDBRANCH   1  14
BRANCH   7  17
ATOM     17  C   UNL     1       6.251  -3.664  -0.380  0.00  0.00    +0.266 C 
ATOM     18  O   UNL     1       6.597  -3.961  -1.507  0.00  0.00    -0.268 OA
ATOM     19  N   UNL     1       6.382  -4.556   0.622  0.00  0.00    -0.306 N 
ATOM     20  H   UNL     1       6.105  -4.319   1.521  0.00  0.00    +0.149 HD
BRANCH  19  21
ATOM     21  C   UNL     1       6.941  -5.883   0.354  0.00  0.00    +0.140 C 
BRANCH  21  22
ATOM     22  C   UNL     1       6.979  -6.680   1.632  0.00  0.00    -0.030 A 
ATOM     23  C   UNL     1       8.093  -6.624   2.448  0.00  0.00    +0.008 A 
ATOM     24  C   UNL     1       8.129  -7.354   3.621  0.00  0.00    +0.038 A 
ATOM     25  C   UNL     1       7.048  -8.143   3.978  0.00  0.00    +0.123 A 
ATOM     26  C   UNL     1       5.933  -8.198   3.159  0.00  0.00    +0.038 A 
ATOM     27  C   UNL     1       5.897  -7.463   1.990  0.00  0.00    +0.008 A 
ATOM     28  F   UNL     1       7.082  -8.858   5.124  0.00  0.00    -0.205 F 
ENDBRANCH  21  22
ENDBRANCH  19  21
ENDBRANCH   7  17
BRANCH   3  29
ATOM     29  C   UNL     1       5.067   0.205   3.207  0.00  0.00    +0.412 C 
ATOM     30  F   UNL     1       4.545   1.080   4.166  0.00  0.00    -0.168 F 
ATOM     31  F   UNL     1       4.987  -1.108   3.682  0.00  0.00    -0.168 F 
ATOM     32  F   UNL     1       6.404   0.531   2.957  0.00  0.00    -0.168 F 
ENDBRANCH   3  29
TORSDOF 5
