REMARK  Name = ZINC05433923
REMARK  6 active torsions:
REMARK  status: ('A' for Active; 'I' for Inactive)
REMARK    1  A    between atoms: C_4  and  O_7
REMARK    2  A    between atoms: O_7  and  C_8
REMARK    3  A    between atoms: C_8  and  C_9
REMARK    4  A    between atoms: N_11  and  C_12
REMARK    5  A    between atoms: C_22  and  N_24
REMARK    6  A    between atoms: C_29  and  C_31
REMARK                            x       y       z     vdW  Elec       q    Type
REMARK                         _______ _______ _______ _____ _____    ______ ____
ROOT
ATOM      1  C   UNL     1       6.490  -4.489  -0.087  0.00  0.00    +0.130 C 
ATOM      2  C   UNL     1       7.024  -4.654   1.352  0.00  0.00    +0.185 C 
ATOM      3  O   UNL     1       7.808  -5.866   1.318  0.00  0.00    -0.370 OA
ATOM      4  C   UNL     1       7.059  -6.789   0.501  0.00  0.00    +0.171 C 
ATOM      5  C   UNL     1       6.496  -5.921  -0.664  0.00  0.00    +0.171 C 
ATOM      6  O   UNL     1       7.498  -5.998  -1.699  0.00  0.00    -0.370 OA
ATOM      7  C   UNL     1       7.954  -7.368  -1.695  0.00  0.00    +0.185 C 
ATOM      8  C   UNL     1       8.046  -7.759  -0.181  0.00  0.00    +0.130 C 
ENDROOT
BRANCH   8   9
ATOM      9  N   UNL     1       7.628  -9.148   0.029  0.00  0.00    -0.306 N 
ATOM     10  C   UNL     1       8.564 -10.166  -0.019  0.00  0.00    +0.216 A 
ATOM     11  N   UNL     1       9.834  -9.866  -0.250  0.00  0.00    -0.223 NA
ATOM     12  C   UNL     1      10.761 -10.811  -0.302  0.00  0.00    +0.116 A 
ATOM     13  C   UNL     1      10.394 -12.130  -0.113  0.00  0.00    +0.051 A 
ATOM     14  C   UNL     1       9.045 -12.419   0.129  0.00  0.00    +0.111 A 
ATOM     15  N   UNL     1       8.168 -11.414   0.173  0.00  0.00    -0.211 NA
ATOM     16  H   UNL     1       6.696  -9.353   0.201  0.00  0.00    +0.149 HD
BRANCH  14  17
ATOM     17  C   UNL     1       8.602 -13.810   0.338  0.00  0.00    +0.153 A 
ATOM     18  C   UNL     1       7.324 -14.215   0.575  0.00  0.00    +0.051 A 
ATOM     19  C   UNL     1       7.361 -15.615   0.711  0.00  0.00    +0.042 A 
ATOM     20  C   UNL     1       8.646 -15.994   0.552  0.00  0.00    +0.196 A 
ATOM     21  O   UNL     1       9.391 -14.903   0.321  0.00  0.00    -0.461 OA
ENDBRANCH  14  17
ENDBRANCH   8   9
BRANCH   1  24
ATOM     22  C   UNL     1       4.932  -2.615  -0.061  0.00  0.00    +0.251 C 
ATOM     23  O   UNL     1       5.883  -1.863  -0.067  0.00  0.00    -0.272 OA
ATOM     24  N   UNL     1       5.128  -3.949  -0.070  0.00  0.00    -0.305 N 
ATOM     25  H   UNL     1       4.368  -4.551  -0.066  0.00  0.00    +0.149 HD
BRANCH  22  26
ATOM     26  C   UNL     1       3.531  -2.060  -0.044  0.00  0.00    +0.324 C 
BRANCH  26  27
ATOM     27  O   UNL     1       3.586  -0.632  -0.037  0.00  0.00    -0.483 OA
BRANCH  27  31
ATOM     28  C   UNL     1      -0.017   1.378   0.010  0.00  0.00    +0.000 A 
ATOM     29  C   UNL     1       1.170   2.088   0.002  0.00  0.00    +0.004 A 
ATOM     30  C   UNL     1       2.377   1.417  -0.013  0.00  0.00    +0.045 A 
ATOM     31  C   UNL     1       2.399   0.030  -0.021  0.00  0.00    +0.121 A 
ATOM     32  C   UNL     1       1.207  -0.680  -0.013  0.00  0.00    +0.045 A 
ATOM     33  C   UNL     1       0.002  -0.004   0.002  0.00  0.00    +0.004 A 
ENDBRANCH  27  31
ENDBRANCH  26  27
ENDBRANCH  22  26
ENDBRANCH   1  24
TORSDOF 6
