REMARK  Name = ZINC04757953
REMARK  2 active torsions:
REMARK  status: ('A' for Active; 'I' for Inactive)
REMARK    1  A    between atoms: C_3  and  C_8
REMARK    2  A    between atoms: C_19  and  N_24
REMARK                            x       y       z     vdW  Elec       q    Type
REMARK                         _______ _______ _______ _____ _____    ______ ____
ROOT
ATOM      1  C   UNL     1      -1.786   4.288  -0.297  0.00  0.00    +0.105 C 
ATOM      2  C   UNL     1      -0.656   3.346  -0.673  0.00  0.00    +0.029 C 
ATOM      3  C   UNL     1       0.711   3.598  -0.023  0.00  0.00    +0.033 C 
ATOM      4  C   UNL     1       1.299   2.186   0.012  0.00  0.00    -0.030 C 
ATOM      5  C   UNL     1       0.322   1.287   0.032  0.00  0.00    -0.023 C 
ATOM      6  C   UNL     1      -0.980   2.002   0.039  0.00  0.00    +0.049 C 
ATOM      7  C   UNL     1      -2.188   1.433  -0.595  0.00  0.00    -0.017 A 
ATOM      8  C   UNL     1      -2.369   0.076  -0.759  0.00  0.00    +0.038 A 
ATOM      9  C   UNL     1      -3.524  -0.408  -1.344  0.00  0.00    +0.127 A 
ATOM     10  C   UNL     1      -4.505   0.470  -1.766  0.00  0.00    +0.034 A 
ATOM     11  C   UNL     1      -4.331   1.830  -1.613  0.00  0.00    +0.025 A 
ATOM     12  C   UNL     1      -3.171   2.328  -1.032  0.00  0.00    +0.032 A 
ATOM     13  N   UNL     1      -3.000   3.713  -0.921  0.00  0.00    -0.336 N 
ATOM     14  H   UNL     1      -3.692   4.306  -1.253  0.00  0.00    +0.147 HD
ENDROOT
BRANCH   1  17
ATOM     15  C   UNL     1      -2.927   3.546   3.225  0.00  0.00    +0.001 A 
ATOM     16  C   UNL     1      -2.796   3.490   1.850  0.00  0.00    +0.005 A 
ATOM     17  C   UNL     1      -1.932   4.353   1.202  0.00  0.00    -0.026 A 
ATOM     18  C   UNL     1      -1.207   5.280   1.927  0.00  0.00    +0.020 A 
ATOM     19  C   UNL     1      -1.342   5.340   3.303  0.00  0.00    +0.018 A 
ATOM     20  C   UNL     1      -2.203   4.472   3.951  0.00  0.00    +0.015 A 
ATOM     21 BR   UNL     1      -0.351   6.608   4.296  0.00  0.00    -0.050 Br
ENDBRANCH   1  17
BRANCH   9  22
ATOM     22  N   UNL     1      -3.711  -1.866  -1.517  0.00  0.00    +0.056 N 
ATOM     23  O   UNL     1      -2.847  -2.639  -1.144  0.00  0.00    -0.126 OA
ATOM     24  O   UNL     1      -4.729  -2.293  -2.032  0.00  0.00    -0.126 OA
ENDBRANCH   9  22
TORSDOF 2
