REMARK  Name = ZINC11334908
REMARK  3 active torsions:
REMARK  status: ('A' for Active; 'I' for Inactive)
REMARK    1  A    between atoms: C_5  and  S_7
REMARK    2  A    between atoms: S_7  and  C_8
REMARK    3  A    between atoms: C_8  and  C_9
REMARK                            x       y       z     vdW  Elec       q    Type
REMARK                         _______ _______ _______ _____ _____    ______ ____
ROOT
ATOM      1  C   UNL     1       3.795   3.006  -0.194  0.00  0.00    +0.142 A 
ATOM      2  N   UNL     1       4.377   1.819  -0.201  0.00  0.00    -0.216 NA
ATOM      3  C   UNL     1       3.694   0.699  -0.031  0.00  0.00    +0.128 A 
ATOM      4  C   UNL     1       2.287   0.770   0.166  0.00  0.00    +0.051 A 
ATOM      5  C   UNL     1       1.337  -0.329   0.375  0.00  0.00    -0.025 A 
ATOM      6  C   UNL     1       0.042   0.011   0.534  0.00  0.00    -0.004 A 
ATOM      7  S   UNL     1       0.009   1.782   0.424  0.00  0.00    -0.073 S 
ATOM      8  C   UNL     1       1.739   2.066   0.160  0.00  0.00    +0.114 A 
ATOM      9  N   UNL     1       2.494   3.134  -0.017  0.00  0.00    -0.224 NA
ATOM     10  C   UNL     1      -1.127  -0.900   0.743  0.00  0.00    +0.043 C 
ATOM     11  C   UNL     1      -0.796  -1.905   1.855  0.00  0.00    +0.005 C 
ATOM     12  C   UNL     1      -0.147  -3.129   1.217  0.00  0.00    +0.001 C 
ATOM     13  C   UNL     1       0.675  -2.710  -0.001  0.00  0.00    +0.005 C 
ATOM     14  C   UNL     1       1.808  -1.780   0.416  0.00  0.00    +0.037 C 
ATOM     15  N   UNL     1       4.340  -0.525  -0.044  0.00  0.00    -0.343 N 
ATOM     16  H   UNL     1       5.169  -0.630  -0.535  0.00  0.00    +0.144 HD
ATOM     17  H   UNL     1       3.962  -1.277   0.438  0.00  0.00    +0.144 HD
ENDROOT
BRANCH   1  18
ATOM     18  C   UNL     1       4.636   4.240  -0.393  0.00  0.00    +0.152 C 
BRANCH  18  19
ATOM     19  S   UNL     1       4.733   4.627  -2.163  0.00  0.00    -0.098 S 
BRANCH  19  24
ATOM     20  C   UNL     1       6.812   7.793  -3.496  0.00  0.00    +0.004 A 
ATOM     21  C   UNL     1       7.289   8.309  -2.297  0.00  0.00    +0.020 A 
ATOM     22  C   UNL     1       6.965   7.678  -1.113  0.00  0.00    +0.112 A 
ATOM     23  N   UNL     1       6.210   6.596  -1.107  0.00  0.00    -0.249 NA
ATOM     24  C   UNL     1       5.736   6.074  -2.229  0.00  0.00    +0.097 A 
ATOM     25  C   UNL     1       6.028   6.655  -3.459  0.00  0.00    +0.035 A 
ENDBRANCH  19  24
ENDBRANCH  18  19
ENDBRANCH   1  18
TORSDOF 3
