REMARK  Name = ZINC44178708
REMARK  13 active torsions:
REMARK  status: ('A' for Active; 'I' for Inactive)
REMARK    1  A    between atoms: C_1  and  C_2
REMARK    2  A    between atoms: C_2  and  N_3
REMARK    3  A    between atoms: N_3  and  C_4
REMARK    4  A    between atoms: N_3  and  C_6
REMARK    5  A    between atoms: C_4  and  C_5
REMARK    6  A    between atoms: C_6  and  C_8
REMARK    7  A    between atoms: C_6  and  C_15
REMARK    8  A    between atoms: C_8  and  C_9
REMARK    9  A    between atoms: C_15  and  N_16
REMARK   10  A    between atoms: N_19  and  C_20
REMARK   11  A    between atoms: C_25  and  C_26
REMARK   12  A    between atoms: C_26  and  C_27
REMARK   13  A    between atoms: N_29  and  C_30
REMARK                            x       y       z     vdW  Elec       q    Type
REMARK                         _______ _______ _______ _____ _____    ______ ____
ROOT
ATOM      1  N   UNL     1       0.399  -2.272  -3.727  0.00  0.00    -0.301 N 
ATOM      2  C   UNL     1       1.132  -3.020  -4.575  0.00  0.00    +0.304 C 
ATOM      3  O   UNL     1       1.847  -2.481  -5.398  0.00  0.00    -0.253 OA
ATOM      4  N   UNL     1       1.073  -4.364  -4.511  0.00  0.00    -0.269 N 
ATOM      5  H   UNL     1      -0.171  -2.701  -3.070  0.00  0.00    +0.150 HD
ATOM      6  H   UNL     1       0.451  -4.794  -3.903  0.00  0.00    +0.156 HD
ENDROOT
BRANCH   4   7
ATOM      7  C   UNL     1       1.908  -5.141  -5.322  0.00  0.00    +0.038 A 
ATOM      8  C   UNL     1       2.357  -4.643  -6.538  0.00  0.00    +0.023 A 
ATOM      9  C   UNL     1       3.182  -5.412  -7.335  0.00  0.00    +0.002 A 
ATOM     10  C   UNL     1       3.561  -6.676  -6.924  0.00  0.00    +0.000 A 
ATOM     11  C   UNL     1       3.115  -7.176  -5.714  0.00  0.00    +0.006 A 
ATOM     12  C   UNL     1       2.295  -6.409  -4.909  0.00  0.00    -0.017 A 
BRANCH  12  13
ATOM     13  C   UNL     1       1.815  -6.952  -3.587  0.00  0.00    +0.132 C 
BRANCH  13  14
ATOM     14  C   UNL     1       0.458  -7.582  -3.766  0.00  0.00    +0.217 C 
ATOM     15  O   UNL     1      -0.068  -7.590  -4.859  0.00  0.00    -0.275 OA
ATOM     16  N   UNL     1      -0.172  -8.136  -2.711  0.00  0.00    -0.318 N 
ATOM     17  C   UNL     1      -1.491  -8.749  -2.885  0.00  0.00    +0.128 C 
ATOM     18  H   UNL     1       0.249  -8.130  -1.837  0.00  0.00    +0.148 HD
ENDBRANCH  13  14
ENDBRANCH  12  13
ENDBRANCH   4   7
BRANCH   1  19
ATOM     19  C   UNL     1       0.463  -0.810  -3.797  0.00  0.00    +0.091 C 
BRANCH  19  20
ATOM     20  C   UNL     1      -0.347  -0.208  -2.647  0.00  0.00    -0.047 C 
BRANCH  20  21
ATOM     21  N   UNL     1       0.092  -0.798  -1.376  0.00  0.00    +0.382 N 
ATOM     22  H   UNL     1       0.294  -1.778  -1.512  0.00  0.00    -0.081 HD
BRANCH  21  24
ATOM     23  C   UNL     1       2.540  -0.858  -1.410  0.00  0.00    -0.017 C 
ATOM     24  C   UNL     1       1.303  -0.110  -0.909  0.00  0.00    -0.082 C 
ENDBRANCH  21  24
BRANCH  21  25
ATOM     25  C   UNL     1      -0.972  -0.652  -0.374  0.00  0.00    -0.082 C 
ATOM     26  C   UNL     1      -2.176  -1.503  -0.780  0.00  0.00    -0.017 C 
ENDBRANCH  21  25
ENDBRANCH  20  21
BRANCH  20  27
ATOM     27  C   UNL     1      -0.131   1.306  -2.608  0.00  0.00    +0.021 C 
BRANCH  27  28
ATOM     28  C   UNL     1      -0.913   1.896  -1.462  0.00  0.00    -0.049 A 
ATOM     29  C   UNL     1      -2.277   2.083  -1.581  0.00  0.00    +0.003 A 
ATOM     30  C   UNL     1      -2.994   2.624  -0.530  0.00  0.00    +0.000 A 
ATOM     31  C   UNL     1      -2.347   2.978   0.639  0.00  0.00    +0.000 A 
ATOM     32  C   UNL     1      -0.983   2.790   0.758  0.00  0.00    +0.000 A 
ATOM     33  C   UNL     1      -0.266   2.245  -0.291  0.00  0.00    +0.003 A 
ENDBRANCH  27  28
ENDBRANCH  20  27
ENDBRANCH  19  20
ENDBRANCH   1  19
TORSDOF 10
