REMARK  Name = ZINC13144883
REMARK  11 active torsions:
REMARK  status: ('A' for Active; 'I' for Inactive)
REMARK    1  A    between atoms: C_1  and  C_2
REMARK    2  A    between atoms: C_5  and  C_8
REMARK    3  A    between atoms: C_9  and  C_35
REMARK    4  A    between atoms: C_11  and  N_19
REMARK    5  A    between atoms: C_12  and  C_13
REMARK    6  A    between atoms: C_13  and  O_15
REMARK    7  A    between atoms: O_15  and  C_16
REMARK    8  A    between atoms: C_16  and  C_17
REMARK    9  A    between atoms: C_16  and  C_18
REMARK   10  A    between atoms: C_20  and  C_22
REMARK   11  A    between atoms: C_30  and  C_32
REMARK                            x       y       z     vdW  Elec       q    Type
REMARK                         _______ _______ _______ _____ _____    ______ ____
ROOT
ATOM      1  C   UNL     1      -3.473  -4.232   3.061  0.00  0.00    +0.008 A 
ATOM      2  C   UNL     1      -3.811  -3.201   3.876  0.00  0.00    -0.003 A 
ATOM      3  S   UNL     1      -2.994  -1.805   3.133  0.00  0.00    -0.077 S 
ATOM      4  C   UNL     1      -2.244  -2.588   1.783  0.00  0.00    +0.087 A 
ATOM      5  C   UNL     1      -2.627  -3.916   1.926  0.00  0.00    +0.095 A 
ATOM      6  C   UNL     1      -4.668  -3.232   5.116  0.00  0.00    +0.052 C 
ENDROOT
BRANCH   1  11
ATOM      7  C   UNL     1      -5.310  -9.598   4.056  0.00  0.00    +0.044 C 
ATOM      8  C   UNL     1      -4.829  -8.194   3.795  0.00  0.00    -0.050 A 
ATOM      9  C   UNL     1      -3.974  -7.580   4.693  0.00  0.00    +0.004 A 
ATOM     10  C   UNL     1      -3.531  -6.295   4.460  0.00  0.00    +0.009 A 
ATOM     11  C   UNL     1      -3.946  -5.614   3.317  0.00  0.00    -0.016 A 
ATOM     12  C   UNL     1      -4.812  -6.235   2.418  0.00  0.00    +0.009 A 
ATOM     13  C   UNL     1      -5.244  -7.523   2.659  0.00  0.00    +0.004 A 
ENDBRANCH   1  11
BRANCH   4  14
ATOM     14  N   UNL     1      -1.447  -2.026   0.799  0.00  0.00    -0.279 N 
ATOM     15  C   UNL     1      -1.179  -0.705   0.821  0.00  0.00    +0.224 C 
ATOM     16  O   UNL     1      -1.636  -0.009   1.703  0.00  0.00    -0.275 OA
ATOM     17  H   UNL     1      -1.082  -2.583   0.093  0.00  0.00    +0.155 HD
BRANCH  15  18
ATOM     18  C   UNL     1      -0.313  -0.094  -0.249  0.00  0.00    +0.120 C 
ATOM     19  C   UNL     1       1.070   0.327   0.333  0.00  0.00    +0.131 C 
ATOM     20  C   UNL     1       0.748   1.061   1.669  0.00  0.00    +0.035 C 
ATOM     21  C   UNL     1       0.154   2.409   1.186  0.00  0.00    +0.035 C 
ATOM     22  C   UNL     1       0.212   2.275  -0.365  0.00  0.00    +0.133 C 
ATOM     23  C   UNL     1      -0.906   1.254  -0.733  0.00  0.00    +0.145 C 
ATOM     24  O   UNL     1       1.415   1.455  -0.537  0.00  0.00    -0.372 OA
BRANCH  23  25
ATOM     25  C   UNL     1      -2.182   1.571   0.005  0.00  0.00    +0.362 C 
ATOM     26  O   UNL     1      -2.338   2.663   0.499  0.00  0.00    -0.246 OA
ATOM     27  O   UNL     1      -3.143   0.641   0.113  0.00  0.00    -0.246 OA
ENDBRANCH  23  25
ENDBRANCH  15  18
ENDBRANCH   4  14
BRANCH   5  28
ATOM     28  C   UNL     1      -2.197  -4.944   0.978  0.00  0.00    +0.342 C 
ATOM     29  O   UNL     1      -1.163  -5.555   1.171  0.00  0.00    -0.245 OA
BRANCH  28  30
ATOM     30  O   UNL     1      -2.948  -5.215  -0.109  0.00  0.00    -0.458 OA
BRANCH  30  31
ATOM     31  C   UNL     1      -2.461  -6.248  -1.006  0.00  0.00    +0.171 C 
ATOM     32  C   UNL     1      -3.017  -7.605  -0.571  0.00  0.00    +0.052 C 
ATOM     33  C   UNL     1      -2.919  -5.942  -2.433  0.00  0.00    +0.052 C 
ENDBRANCH  30  31
ENDBRANCH  28  30
ENDBRANCH   5  28
TORSDOF 7
