REMARK  Name = ZINC24071540
REMARK  6 active torsions:
REMARK  status: ('A' for Active; 'I' for Inactive)
REMARK    1  A    between atoms: C_4  and  C_7
REMARK    2  A    between atoms: C_8  and  C_9
REMARK    3  A    between atoms: C_9  and  N_10
REMARK    4  A    between atoms: N_13  and  C_16
REMARK    5  A    between atoms: C_16  and  C_17
REMARK    6  A    between atoms: C_23  and  C_28
REMARK                            x       y       z     vdW  Elec       q    Type
REMARK                         _______ _______ _______ _____ _____    ______ ____
ROOT
ATOM      1  C   UNL     1      -1.220   3.239   0.031  0.00  0.00    +0.125 A 
ATOM      2  N   UNL     1      -1.183   1.882   0.018  0.00  0.00    -0.309 N 
ATOM      3  H   UNL     1      -2.120   1.306   0.014  0.00  0.00    +0.170 HD
ATOM      4  C   UNL     1      -0.015   1.215   0.009  0.00  0.00    +0.260 A 
ATOM      5  O   UNL     1       0.002  -0.004   0.002  0.00  0.00    -0.267 OA
ATOM      6  C   UNL     1       1.209   1.958   0.001  0.00  0.00    +0.080 A 
ATOM      7  C   UNL     1       2.583   1.473  -0.015  0.00  0.00    +0.004 A 
ATOM      8  C   UNL     1       3.593   2.376  -0.020  0.00  0.00    +0.056 A 
ATOM      9  S   UNL     1       2.745   3.943  -0.004  0.00  0.00    -0.076 S 
ATOM     10  C   UNL     1       1.071   3.356   0.010  0.00  0.00    +0.116 A 
ATOM     11  N   UNL     1      -0.121   3.945   0.025  0.00  0.00    -0.225 NA
ENDROOT
BRANCH   7  12
ATOM     12  C   UNL     1       2.871   0.018  -0.026  0.00  0.00    -0.016 A 
ATOM     13  C   UNL     1       2.259  -0.822   0.903  0.00  0.00    +0.011 A 
ATOM     14  C   UNL     1       2.526  -2.176   0.886  0.00  0.00    +0.039 A 
ATOM     15  C   UNL     1       3.408  -2.699  -0.045  0.00  0.00    +0.123 A 
ATOM     16  C   UNL     1       4.022  -1.867  -0.967  0.00  0.00    +0.039 A 
ATOM     17  C   UNL     1       3.758  -0.512  -0.962  0.00  0.00    +0.011 A 
ATOM     18  F   UNL     1       3.670  -4.024  -0.055  0.00  0.00    -0.205 F 
ENDBRANCH   7  12
BRANCH   1  19
ATOM     19  C   UNL     1      -2.553   3.943   0.048  0.00  0.00    +0.158 C 
BRANCH  19  23
ATOM     20  N   UNL     1      -2.686   8.053   1.017  0.00  0.00    +0.384 N 
ATOM     21  C   UNL     1      -3.323   7.620  -0.235  0.00  0.00    -0.063 C 
ATOM     22  C   UNL     1      -3.600   6.116  -0.169  0.00  0.00    +0.066 C 
ATOM     23  N   UNL     1      -2.338   5.397   0.054  0.00  0.00    -0.299 NA
ATOM     24  C   UNL     1      -1.702   5.830   1.305  0.00  0.00    +0.066 C 
ATOM     25  C   UNL     1      -1.424   7.334   1.239  0.00  0.00    -0.063 C 
ATOM     26  H   UNL     1      -3.367   7.810   1.846  0.00  0.00    -0.081 HD
BRANCH  20  27
ATOM     27  C   UNL     1      -2.472   9.507   1.023  0.00  0.00    -0.051 C 
BRANCH  27  29
ATOM     28  C   UNL     1      -0.488  10.569   2.004  0.00  0.00    +0.002 C 
ATOM     29  C   UNL     1      -1.605   9.882   2.197  0.00  0.00    -0.045 C 
BRANCH  28  33
ATOM     30  C   UNL     1       1.954  11.627   5.314  0.00  0.00    +0.000 A 
ATOM     31  C   UNL     1       2.327  12.000   4.035  0.00  0.00    +0.001 A 
ATOM     32  C   UNL     1       1.538  11.660   2.956  0.00  0.00    +0.008 A 
ATOM     33  C   UNL     1       0.362  10.937   3.156  0.00  0.00    -0.025 A 
ATOM     34  C   UNL     1      -0.012  10.568   4.449  0.00  0.00    +0.008 A 
ATOM     35  C   UNL     1       0.789  10.909   5.519  0.00  0.00    +0.001 A 
ENDBRANCH  28  33
ENDBRANCH  27  29
ENDBRANCH  20  27
ENDBRANCH  19  23
ENDBRANCH   1  19
TORSDOF 6
