REMARK  Name = ZINC39356139
REMARK  7 active torsions:
REMARK  status: ('A' for Active; 'I' for Inactive)
REMARK    1  A    between atoms: C_1  and  O_2
REMARK    2  A    between atoms: O_2  and  C_3
REMARK    3  A    between atoms: C_6  and  C_9
REMARK    4  A    between atoms: C_11  and  C_22
REMARK    5  A    between atoms: N_23  and  N_24
REMARK    6  A    between atoms: N_24  and  C_25
REMARK    7  A    between atoms: C_25  and  N_27
REMARK                            x       y       z     vdW  Elec       q    Type
REMARK                         _______ _______ _______ _____ _____    ______ ____
ROOT
ATOM      1  C   UNL     1      -4.981  -2.629   0.035  0.00  0.00    +0.048 C 
ATOM      2  C   UNL     1      -5.086  -3.513   1.267  0.00  0.00    +0.051 C 
ATOM      3  C   UNL     1      -6.443  -4.112   1.504  0.00  0.00    +0.085 C 
ATOM      4  S   UNL     1      -7.365  -4.598   0.042  0.00  0.00    -0.111 S 
ATOM      5  C   UNL     1      -6.578  -3.945  -1.269  0.00  0.00    +0.082 C 
ATOM      6  N   UNL     1      -7.127  -3.741  -2.429  0.00  0.00    -0.168 NA
ATOM      7  C   UNL     1      -6.538  -3.107  -3.459  0.00  0.00    +0.296 C 
ATOM      8  O   UNL     1      -6.927  -2.996  -4.607  0.00  0.00    -0.261 OA
ATOM      9  S   UNL     1      -5.038  -2.467  -2.716  0.00  0.00    -0.055 S 
ATOM     10  C   UNL     1      -5.105  -3.517  -1.206  0.00  0.00    +0.116 C 
ENDROOT
BRANCH   1  14
ATOM     11  C   UNL     1      -1.200  -0.637   0.010  0.00  0.00    +0.120 A 
ATOM     12  C   UNL     1      -2.375   0.101   0.019  0.00  0.00    +0.046 A 
ATOM     13  C   UNL     1      -3.596  -0.545   0.027  0.00  0.00    +0.007 A 
ATOM     14  C   UNL     1      -3.648  -1.927   0.026  0.00  0.00    -0.042 A 
ATOM     15  C   UNL     1      -2.479  -2.665   0.017  0.00  0.00    +0.007 A 
ATOM     16  C   UNL     1      -1.255  -2.024   0.003  0.00  0.00    +0.046 A 
BRANCH  11  18
ATOM     17  C   UNL     1      -0.017   1.425   0.010  0.00  0.00    +0.277 C 
ATOM     18  O   UNL     1       0.002  -0.004   0.002  0.00  0.00    -0.495 OA
ENDBRANCH  11  18
ENDBRANCH   1  14
BRANCH   2  19
ATOM     19  C   UNL     1      -4.716  -2.691   2.474  0.00  0.00    +0.108 C 
ATOM     20  N   UNL     1      -3.725  -3.039   3.206  0.00  0.00    -0.193 NA
BRANCH  20  21
ATOM     21  N   UNL     1      -3.381  -2.275   4.329  0.00  0.00    -0.219 N 
ATOM     22  H   UNL     1      -3.893  -1.482   4.551  0.00  0.00    +0.176 HD
BRANCH  21  23
ATOM     23  C   UNL     1      -2.338  -2.642   5.100  0.00  0.00    +0.147 C 
ATOM     24  S   UNL     1      -1.917  -1.708   6.472  0.00  0.00    -0.017 S 
BRANCH  23  25
ATOM     25  N   UNL     1      -1.627  -3.744   4.791  0.00  0.00    -0.339 N 
ATOM     26  H   UNL     1      -1.865  -4.274   4.014  0.00  0.00    +0.144 HD
ATOM     27  H   UNL     1      -0.876  -4.009   5.346  0.00  0.00    +0.144 HD
ENDBRANCH  23  25
ENDBRANCH  21  23
ENDBRANCH  20  21
ENDBRANCH   2  19
TORSDOF 6
