REMARK  Name = ZINC39665478
REMARK  9 active torsions:
REMARK  status: ('A' for Active; 'I' for Inactive)
REMARK    1  A    between atoms: C_1  and  C_2
REMARK    2  A    between atoms: C_4  and  C_8
REMARK    3  A    between atoms: N_6  and  C_7
REMARK    4  A    between atoms: C_12  and  C_21
REMARK    5  A    between atoms: N_23  and  C_24
REMARK    6  A    between atoms: C_24  and  C_25
REMARK    7  A    between atoms: C_25  and  C_27
REMARK    8  A    between atoms: C_25  and  O_28
REMARK    9  A    between atoms: O_28  and  C_29
REMARK                            x       y       z     vdW  Elec       q    Type
REMARK                         _______ _______ _______ _____ _____    ______ ____
ROOT
ATOM      1  C   UNL     1      -0.589  -1.573  -0.063  0.00  0.00    +0.267 C 
ATOM      2  O   UNL     1      -0.422  -1.392  -1.254  0.00  0.00    -0.268 OA
ATOM      3  N   UNL     1      -0.197  -2.731   0.504  0.00  0.00    -0.295 N 
ATOM      4  C   UNL     1      -0.410  -3.177   1.901  0.00  0.00    +0.121 C 
ATOM      5  C   UNL     1      -0.730  -4.684   1.786  0.00  0.00    +0.100 C 
ATOM      6  C   UNL     1      -0.099  -5.118   0.453  0.00  0.00    -0.004 C 
ATOM      7  C   UNL     1       0.540  -3.850  -0.131  0.00  0.00    +0.115 C 
ATOM      8  C   UNL     1      -1.173  -5.644  -0.494  0.00  0.00    -0.010 C 
ATOM      9  C   UNL     1      -0.514  -6.123  -1.791  0.00  0.00    -0.082 C 
ATOM     10  N   UNL     1       0.458  -7.180  -1.486  0.00  0.00    +0.379 N 
ATOM     11  C   UNL     1       1.538  -6.641  -0.650  0.00  0.00    -0.082 C 
ATOM     12  C   UNL     1       0.965  -6.184   0.694  0.00  0.00    -0.010 C 
ATOM     13  H   UNL     1      -0.005  -7.929  -0.994  0.00  0.00    -0.086 HD
ATOM     14  H   UNL     1       0.846  -7.536  -2.347  0.00  0.00    -0.086 HD
ENDROOT
BRANCH   1  18
ATOM     15  C   UNL     1      -2.723   2.757   1.482  0.00  0.00    +0.065 C 
ATOM     16  C   UNL     1      -2.150   1.364   1.419  0.00  0.00    +0.037 A 
ATOM     17  C   UNL     1      -1.625   0.761   0.327  0.00  0.00    +0.057 A 
ATOM     18  C   UNL     1      -1.223  -0.525   0.762  0.00  0.00    +0.147 A 
ATOM     19  N   UNL     1      -1.523  -0.608   2.043  0.00  0.00    -0.167 NA
ATOM     20  N   UNL     1      -2.060   0.488   2.442  0.00  0.00    -0.271 N 
ATOM     21  C   UNL     1      -2.513   0.749   3.811  0.00  0.00    +0.172 C 
ENDBRANCH   1  18
BRANCH   5  22
ATOM     22  C   UNL     1      -2.221  -4.903   1.760  0.00  0.00    +0.218 C 
ATOM     23  O   UNL     1      -2.954  -4.034   1.337  0.00  0.00    -0.275 OA
ATOM     24  N   UNL     1      -2.739  -6.064   2.206  0.00  0.00    -0.312 N 
ATOM     25  H   UNL     1      -2.162  -6.727   2.617  0.00  0.00    +0.149 HD
BRANCH  24  26
ATOM     26  C   UNL     1      -4.174  -6.327   2.068  0.00  0.00    +0.148 C 
BRANCH  26  27
ATOM     27  C   UNL     1      -4.519  -7.648   2.759  0.00  0.00    +0.187 C 
ATOM     28  C   UNL     1      -6.021  -7.910   2.635  0.00  0.00    +0.053 C 
BRANCH  27  29
ATOM     29  O   UNL     1      -4.161  -7.571   4.140  0.00  0.00    -0.488 OA
BRANCH  29  30
ATOM     30  C   UNL     1      -3.912  -8.745   4.779  0.00  0.00    +0.121 A 
ATOM     31  C   UNL     1      -4.087  -9.949   4.113  0.00  0.00    +0.045 A 
ATOM     32  C   UNL     1      -3.833 -11.140   4.765  0.00  0.00    +0.004 A 
ATOM     33  C   UNL     1      -3.406 -11.133   6.080  0.00  0.00    +0.000 A 
ATOM     34  C   UNL     1      -3.231  -9.934   6.745  0.00  0.00    +0.004 A 
ATOM     35  C   UNL     1      -3.478  -8.740   6.096  0.00  0.00    +0.045 A 
ENDBRANCH  29  30
ENDBRANCH  27  29
ENDBRANCH  26  27
ENDBRANCH  24  26
ENDBRANCH   5  22
TORSDOF 6
