REMARK  Name = ZINC09089688
REMARK  3 active torsions:
REMARK  status: ('A' for Active; 'I' for Inactive)
REMARK    1  A    between atoms: C_4  and  C_7
REMARK    2  A    between atoms: C_7  and  C_8
REMARK    3  A    between atoms: C_8  and  N_9
REMARK                            x       y       z     vdW  Elec       q    Type
REMARK                         _______ _______ _______ _____ _____    ______ ____
ROOT
ATOM      1  N   UNL     1      -0.020   1.094   2.454  0.00  0.00    -0.224 N 
ATOM      2  C   UNL     1       0.958   1.845   2.980  0.00  0.00    +0.240 C 
ATOM      3  O   UNL     1       1.231   2.906   2.461  0.00  0.00    -0.274 OA
ATOM      4  C   UNL     1       1.726   1.408   4.194  0.00  0.00    +0.146 C 
ATOM      5  C   UNL     1       1.566   2.453   5.306  0.00  0.00    +0.064 C 
ATOM      6  C   UNL     1       2.472   3.637   5.087  0.00  0.00    -0.025 A 
ATOM      7  C   UNL     1       2.339   4.726   5.935  0.00  0.00    +0.005 A 
ATOM      8  C   UNL     1       3.170   5.821   5.813  0.00  0.00    +0.000 A 
ATOM      9  C   UNL     1       4.148   5.842   4.835  0.00  0.00    +0.002 A 
ATOM     10  C   UNL     1       4.284   4.770   3.978  0.00  0.00    +0.023 A 
ATOM     11  C   UNL     1       3.444   3.667   4.091  0.00  0.00    +0.033 A 
ATOM     12  N   UNL     1       3.572   2.611   3.220  0.00  0.00    -0.325 N 
ATOM     13  C   UNL     1       3.214   1.327   3.871  0.00  0.00    +0.098 C 
ATOM     14  C   UNL     1       3.546   0.289   2.783  0.00  0.00    +0.025 C 
ATOM     15  C   UNL     1       4.862   0.857   2.182  0.00  0.00    +0.021 C 
ATOM     16  C   UNL     1       4.845   2.364   2.537  0.00  0.00    +0.105 C 
ATOM     17  C   UNL     1       1.235   0.076   4.684  0.00  0.00    +0.238 C 
ATOM     18  O   UNL     1       1.752  -0.418   5.663  0.00  0.00    -0.274 OA
ATOM     19  N   UNL     1       0.243  -0.583   4.069  0.00  0.00    -0.239 N 
ATOM     20  C   UNL     1      -0.373  -0.086   2.986  0.00  0.00    +0.315 C 
ATOM     21  O   UNL     1      -1.270  -0.723   2.470  0.00  0.00    -0.252 OA
ATOM     22  H   UNL     1      -0.089  -1.560   4.452  0.00  0.00    +0.159 HD
ENDROOT
BRANCH   1  23
ATOM     23  C   UNL     1      -0.729   1.579   1.267  0.00  0.00    +0.122 C 
BRANCH  23  24
ATOM     24  C   UNL     1      -0.013   1.086   0.008  0.00  0.00    +0.054 C 
BRANCH  24  28
ATOM     25  C   UNL     1      -2.078   2.501  -3.453  0.00  0.00    +0.000 A 
ATOM     26  C   UNL     1      -1.066   3.259  -2.894  0.00  0.00    +0.000 A 
ATOM     27  C   UNL     1      -0.398   2.801  -1.774  0.00  0.00    +0.004 A 
ATOM     28  C   UNL     1      -0.742   1.585  -1.213  0.00  0.00    -0.046 A 
ATOM     29  C   UNL     1      -1.750   0.825  -1.775  0.00  0.00    +0.004 A 
ATOM     30  C   UNL     1      -2.422   1.285  -2.892  0.00  0.00    +0.000 A 
ENDBRANCH  24  28
ENDBRANCH  23  24
ENDBRANCH   1  23
TORSDOF 3
