REMARK  Name = ZINC37946515
REMARK  5 active torsions:
REMARK  status: ('A' for Active; 'I' for Inactive)
REMARK    1  A    between atoms: C_10  and  C_11
REMARK    2  A    between atoms: C_11  and  C_13
REMARK    3  A    between atoms: C_11  and  N_16
REMARK    4  A    between atoms: N_16  and  C_17
REMARK    5  A    between atoms: C_17  and  C_18
REMARK                            x       y       z     vdW  Elec       q    Type
REMARK                         _______ _______ _______ _____ _____    ______ ____
ROOT
ATOM      1  C   UNL     1       4.960   0.161  -0.046  0.00  0.00    +0.048 C 
ENDROOT
BRANCH   1  11
ATOM      2  C   UNL     1      -0.016   1.357   0.009  0.00  0.00    +0.001 A 
ATOM      3  C   UNL     1       1.169   2.091   0.002  0.00  0.00    +0.001 A 
ATOM      4  C   UNL     1       2.378   1.468  -0.013  0.00  0.00    +0.009 A 
ATOM      5  C   UNL     1       2.438   0.064  -0.021  0.00  0.00    -0.016 A 
ATOM      6  C   UNL     1       1.233  -0.683  -0.013  0.00  0.00    -0.018 A 
ATOM      7  C   UNL     1       0.002  -0.004   0.002  0.00  0.00    +0.008 A 
ATOM      8  C   UNL     1       1.292  -2.087  -0.021  0.00  0.00    +0.008 A 
ATOM      9  C   UNL     1       2.502  -2.709  -0.036  0.00  0.00    +0.001 A 
ATOM     10  C   UNL     1       3.687  -1.976  -0.043  0.00  0.00    +0.003 A 
ATOM     11  C   UNL     1       3.668  -0.615  -0.037  0.00  0.00    -0.045 A 
ENDBRANCH   1  11
BRANCH   1  12
ATOM     12  C   UNL     1       5.341   0.519   1.367  0.00  0.00    +0.201 C 
ATOM     13  O   UNL     1       6.392   0.128   1.830  0.00  0.00    -0.277 OA
ATOM     14  N   UNL     1       4.514   1.273   2.118  0.00  0.00    -0.330 N 
ATOM     15  H   UNL     1       3.674   1.586   1.748  0.00  0.00    +0.145 HD
ATOM     16  H   UNL     1       4.760   1.504   3.028  0.00  0.00    +0.145 HD
ENDBRANCH   1  12
BRANCH   1  17
ATOM     17  N   UNL     1       6.020  -0.661  -0.646  0.00  0.00    +0.392 N 
ATOM     18  H   UNL     1       6.195  -1.464  -0.060  0.00  0.00    -0.084 HD
ATOM     19  H   UNL     1       5.729  -0.969  -1.561  0.00  0.00    -0.084 HD
BRANCH  17  20
ATOM     20  C   UNL     1       7.249   0.135  -0.764  0.00  0.00    -0.038 C 
BRANCH  20  21
ATOM     21  C   UNL     1       8.336  -0.708  -1.379  0.00  0.00    -0.027 A 
ATOM     22  C   UNL     1       8.658  -0.865  -2.687  0.00  0.00    +0.009 A 
ATOM     23  C   UNL     1       9.707  -1.699  -3.023  0.00  0.00    +0.008 A 
ATOM     24  C   UNL     1      10.384  -2.335  -2.036  0.00  0.00    +0.045 A 
ATOM     25  S   UNL     1       9.539  -1.753  -0.575  0.00  0.00    -0.104 S 
ENDBRANCH  20  21
ENDBRANCH  17  20
ENDBRANCH   1  17
TORSDOF 5
