REMARK  Name = ZINC39668906
REMARK  5 active torsions:
REMARK  status: ('A' for Active; 'I' for Inactive)
REMARK    1  A    between atoms: C_10  and  C_12
REMARK    2  A    between atoms: C_12  and  N_13
REMARK    3  A    between atoms: C_14  and  C_16
REMARK    4  A    between atoms: C_27  and  C_29
REMARK    5  A    between atoms: C_34  and  C_35
REMARK                            x       y       z     vdW  Elec       q    Type
REMARK                         _______ _______ _______ _____ _____    ______ ____
ROOT
ATOM      1  C   UNL     1       8.022  -0.225   1.713  0.00  0.00    +0.100 C 
ATOM      2  C   UNL     1       8.576  -0.363   0.277  0.00  0.00    +0.121 C 
ATOM      3  N   UNL     1       9.593   0.709   0.163  0.00  0.00    -0.296 N 
ATOM      4  C   UNL     1      10.271   0.715   1.482  0.00  0.00    +0.115 C 
ATOM      5  C   UNL     1       9.139   0.480   2.501  0.00  0.00    -0.004 C 
ATOM      6  C   UNL     1       9.628  -0.413   3.637  0.00  0.00    -0.010 C 
ATOM      7  C   UNL     1      10.697   0.332   4.442  0.00  0.00    -0.082 C 
ATOM      8  N   UNL     1      10.130   1.575   4.979  0.00  0.00    +0.379 N 
ATOM      9  C   UNL     1       9.747   2.467   3.878  0.00  0.00    -0.082 C 
ATOM     10  C   UNL     1       8.638   1.812   3.050  0.00  0.00    -0.010 C 
ATOM     11  C   UNL     1       9.844   1.499  -0.899  0.00  0.00    +0.247 C 
ATOM     12  O   UNL     1      10.784   2.270  -0.874  0.00  0.00    -0.270 OA
ATOM     13  H   UNL     1       9.315   1.359   5.534  0.00  0.00    -0.086 HD
ATOM     14  H   UNL     1      10.817   2.034   5.559  0.00  0.00    -0.086 HD
ENDROOT
BRANCH  11  15
ATOM     15  C   UNL     1       8.978   1.428  -2.095  0.00  0.00    +0.049 A 
ATOM     16  C   UNL     1       8.459   0.202  -2.513  0.00  0.00    +0.013 A 
ATOM     17  C   UNL     1       7.650   0.143  -3.629  0.00  0.00    +0.001 A 
ATOM     18  C   UNL     1       7.354   1.296  -4.334  0.00  0.00    +0.001 A 
ATOM     19  C   UNL     1       7.865   2.515  -3.925  0.00  0.00    +0.013 A 
ATOM     20  C   UNL     1       8.670   2.589  -2.807  0.00  0.00    +0.067 A 
BRANCH  20  21
ATOM     21  C   UNL     1       9.221   3.918  -2.359  0.00  0.00    +0.418 C 
ATOM     22  F   UNL     1       8.777   4.923  -3.225  0.00  0.00    -0.166 F 
ATOM     23  F   UNL     1       8.779   4.192  -1.060  0.00  0.00    -0.166 F 
ATOM     24  F   UNL     1      10.619   3.873  -2.376  0.00  0.00    -0.166 F 
ENDBRANCH  20  21
ENDBRANCH  11  15
BRANCH   1  26
ATOM     25  N   UNL     1       5.840   0.435   2.673  0.00  0.00    -0.312 N 
ATOM     26  C   UNL     1       6.770   0.613   1.714  0.00  0.00    +0.218 C 
ATOM     27  O   UNL     1       6.599   1.449   0.851  0.00  0.00    -0.275 OA
ATOM     28  H   UNL     1       5.977  -0.233   3.363  0.00  0.00    +0.149 HD
BRANCH  25  29
ATOM     29  C   UNL     1       4.623   1.250   2.674  0.00  0.00    +0.140 C 
BRANCH  29  39
ATOM     30  C   UNL     1       0.033   2.959   3.585  0.00  0.00    +0.000 A 
ATOM     31  C   UNL     1       0.600   2.388   2.461  0.00  0.00    +0.000 A 
ATOM     32  C   UNL     1       1.799   1.712   2.562  0.00  0.00    +0.006 A 
ATOM     33  C   UNL     1       2.438   1.602   3.788  0.00  0.00    -0.014 A 
ATOM     34  C   UNL     1       1.874   2.175   4.908  0.00  0.00    -0.040 A 
ATOM     35  C   UNL     1       0.669   2.851   4.806  0.00  0.00    +0.004 A 
ATOM     36  C   UNL     1       2.546   2.089   6.255  0.00  0.00    +0.063 C 
ATOM     37  C   UNL     1       3.601   0.981   6.237  0.00  0.00    +0.165 C 
ATOM     38  O   UNL     1       4.421   1.155   5.077  0.00  0.00    -0.370 OA
ATOM     39  C   UNL     1       3.742   0.851   3.859  0.00  0.00    +0.165 C 
ENDBRANCH  29  39
ENDBRANCH  25  29
ENDBRANCH   1  26
TORSDOF 5
