REMARK  Name = ZINC36386232
REMARK  9 active torsions:
REMARK  status: ('A' for Active; 'I' for Inactive)
REMARK    1  A    between atoms: C_1  and  C_2
REMARK    2  A    between atoms: C_2  and  C_3
REMARK    3  A    between atoms: C_2  and  C_4
REMARK    4  A    between atoms: C_4  and  C_5
REMARK    5  A    between atoms: C_4  and  N_23
REMARK    6  A    between atoms: N_7  and  C_8
REMARK    7  A    between atoms: C_12  and  S_14
REMARK    8  A    between atoms: S_14  and  N_17
REMARK    9  A    between atoms: C_24  and  C_26
REMARK                            x       y       z     vdW  Elec       q    Type
REMARK                         _______ _______ _______ _____ _____    ______ ____
ROOT
ATOM      1  C   UNL     1      -1.636  -0.140  -1.498  0.00  0.00    +0.238 C 
ATOM      2  O   UNL     1      -1.692  -0.952  -2.397  0.00  0.00    -0.273 OA
ATOM      3  N   UNL     1      -2.204   1.073  -1.649  0.00  0.00    -0.284 N 
ATOM      4  H   UNL     1      -2.240   1.689  -0.900  0.00  0.00    +0.155 HD
ENDROOT
BRANCH   3   5
ATOM      5  C   UNL     1      -2.743   1.445  -2.886  0.00  0.00    +0.035 A 
ATOM      6  C   UNL     1      -3.245   0.476  -3.745  0.00  0.00    +0.023 A 
ATOM      7  C   UNL     1      -3.776   0.846  -4.965  0.00  0.00    +0.004 A 
ATOM      8  C   UNL     1      -3.808   2.179  -5.332  0.00  0.00    +0.029 A 
ATOM      9  C   UNL     1      -3.308   3.146  -4.479  0.00  0.00    +0.114 A 
ATOM     10  C   UNL     1      -2.782   2.783  -3.254  0.00  0.00    +0.052 A 
BRANCH   9  11
ATOM     11  S   UNL     1      -3.350   4.843  -4.950  0.00  0.00    +0.100 S 
ATOM     12  O   UNL     1      -2.326   5.495  -4.212  0.00  0.00    -0.146 OA
ATOM     13  O   UNL     1      -3.400   4.868  -6.370  0.00  0.00    -0.146 OA
BRANCH  11  14
ATOM     14  N   UNL     1      -4.789   5.464  -4.416  0.00  0.00    -0.118 NA
ATOM     15  C   UNL     1      -5.078   6.706  -4.633  0.00  0.00    +0.117 C 
ATOM     16  N   UNL     1      -4.279   7.599  -5.296  0.00  0.00    -0.331 N 
ATOM     17  C   UNL     1      -5.100   8.724  -5.771  0.00  0.00    +0.103 C 
ATOM     18  C   UNL     1      -6.237   8.838  -4.731  0.00  0.00    +0.026 C 
ATOM     19  C   UNL     1      -6.353   7.394  -4.199  0.00  0.00    +0.074 C 
ATOM     20  H   UNL     1      -3.323   7.504  -5.432  0.00  0.00    +0.147 HD
ENDBRANCH  11  14
ENDBRANCH   9  11
ENDBRANCH   3   5
BRANCH   1  21
ATOM     21  C   UNL     1      -0.930  -0.487  -0.213  0.00  0.00    +0.162 C 
BRANCH  21  22
ATOM     22  N   UNL     1      -1.075  -1.920   0.052  0.00  0.00    -0.299 N 
ATOM     23  C   UNL     1      -0.994  -2.384   1.315  0.00  0.00    +0.251 C 
ATOM     24  O   UNL     1      -0.801  -1.611   2.236  0.00  0.00    -0.270 OA
ATOM     25  H   UNL     1      -1.229  -2.536  -0.681  0.00  0.00    +0.150 HD
BRANCH  23  26
ATOM     26  C   UNL     1      -1.139  -3.818   1.580  0.00  0.00    +0.074 A 
ATOM     27  C   UNL     1      -1.095  -4.492   2.791  0.00  0.00    +0.021 A 
ATOM     28  C   UNL     1      -1.265  -5.854   2.723  0.00  0.00    +0.008 A 
ATOM     29  C   UNL     1      -1.459  -6.434   1.513  0.00  0.00    +0.046 A 
ATOM     30  S   UNL     1      -1.425  -5.150   0.430  0.00  0.00    -0.092 S 
ENDBRANCH  23  26
ENDBRANCH  21  22
BRANCH  21  32
ATOM     31  C   UNL     1       1.231  -0.299   1.028  0.00  0.00    +0.009 C 
ATOM     32  C   UNL     1       0.555  -0.138  -0.335  0.00  0.00    +0.012 C 
ATOM     33  C   UNL     1       1.217  -1.075  -1.347  0.00  0.00    +0.009 C 
ENDBRANCH  21  32
ENDBRANCH   1  21
TORSDOF 7
