REMARK  Name = ZINC39699246
REMARK  9 active torsions:
REMARK  status: ('A' for Active; 'I' for Inactive)
REMARK    1  A    between atoms: C_1  and  C_2
REMARK    2  A    between atoms: C_7  and  C_14
REMARK    3  A    between atoms: C_14  and  C_16
REMARK    4  A    between atoms: C_14  and  N_28
REMARK    5  A    between atoms: N_21  and  C_22
REMARK    6  A    between atoms: N_28  and  C_29
REMARK    7  A    between atoms: N_28  and  C_36
REMARK    8  A    between atoms: C_29  and  C_30
REMARK    9  A    between atoms: C_36  and  C_37
REMARK                            x       y       z     vdW  Elec       q    Type
REMARK                         _______ _______ _______ _____ _____    ______ ____
ROOT
ATOM      1  C   UNL     1      -1.676  -4.776   2.304  0.00  0.00    -0.008 C 
ENDROOT
BRANCH   1   8
ATOM      2  C   UNL     1       0.135   2.478   1.748  0.00  0.00    +0.044 C 
ATOM      3  C   UNL     1       0.113   0.991   1.991  0.00  0.00    -0.049 A 
ATOM      4  C   UNL     1       1.233   0.238   1.637  0.00  0.00    +0.004 A 
ATOM      5  C   UNL     1       1.274  -1.105   1.831  0.00  0.00    +0.010 A 
ATOM      6  C   UNL     1       0.112  -1.767   2.427  0.00  0.00    -0.007 A 
ATOM      7  C   UNL     1       0.108  -3.113   2.642  0.00  0.00    -0.006 C 
ATOM      8  C   UNL     1      -1.138  -3.714   3.264  0.00  0.00    +0.088 C 
ATOM      9  C   UNL     1      -2.273  -2.771   3.595  0.00  0.00    +0.223 C 
ATOM     10  O   UNL     1      -3.296  -3.199   4.096  0.00  0.00    -0.275 OA
ATOM     11  N   UNL     1      -2.150  -1.480   3.339  0.00  0.00    -0.285 N 
ATOM     12  C   UNL     1      -1.057  -0.947   2.792  0.00  0.00    +0.041 A 
ATOM     13  C   UNL     1      -0.994   0.438   2.552  0.00  0.00    +0.027 A 
ATOM     14  H   UNL     1      -2.889  -0.892   3.559  0.00  0.00    +0.155 HD
ENDBRANCH   1   8
BRANCH   1  15
ATOM     15  C   UNL     1      -1.142  -4.509   0.895  0.00  0.00    +0.205 C 
ATOM     16  N   UNL     1      -1.335  -3.098   0.533  0.00  0.00    -0.152 NA
ATOM     17  N   UNL     1      -2.068  -3.038  -0.457  0.00  0.00    -0.070 NA
ATOM     18  N   UNL     1      -2.474  -4.292  -0.909  0.00  0.00    -0.179 N 
ATOM     19  N   UNL     1      -1.926  -5.262  -0.106  0.00  0.00    -0.185 NA
ATOM     20  H   UNL     1      -3.051  -4.455  -1.672  0.00  0.00    +0.191 HD
BRANCH  19  21
ATOM     21  C   UNL     1      -2.974  -6.064   0.541  0.00  0.00    +0.080 C 
ATOM     22  C   UNL     1      -2.897  -7.506   0.036  0.00  0.00    +0.021 C 
ATOM     23  C   UNL     1      -3.987  -8.341   0.710  0.00  0.00    +0.002 C 
ATOM     24  C   UNL     1      -5.360  -7.755   0.372  0.00  0.00    +0.000 C 
ATOM     25  C   UNL     1      -5.437  -6.313   0.877  0.00  0.00    +0.002 C 
ATOM     26  C   UNL     1      -4.346  -5.478   0.203  0.00  0.00    +0.021 C 
ENDBRANCH  19  21
ENDBRANCH   1  15
BRANCH   1  27
ATOM     27  N   UNL     1      -1.238  -6.106   2.749  0.00  0.00    +0.392 N 
ATOM     28  H   UNL     1      -1.573  -6.804   2.103  0.00  0.00    -0.080 HD
BRANCH  27  29
ATOM     29  C   UNL     1       0.229  -6.147   2.798  0.00  0.00    -0.040 C 
BRANCH  29  30
ATOM     30  C   UNL     1       0.739  -7.122   1.768  0.00  0.00    -0.046 A 
ATOM     31  C   UNL     1       0.610  -8.488   1.970  0.00  0.00    +0.005 A 
ATOM     32  C   UNL     1       1.094  -9.347   0.995  0.00  0.00    +0.020 A 
ATOM     33  C   UNL     1       1.684  -8.817  -0.137  0.00  0.00    +0.111 A 
ATOM     34  N   UNL     1       1.790  -7.512  -0.295  0.00  0.00    -0.263 NA
ATOM     35  C   UNL     1       1.336  -6.665   0.609  0.00  0.00    +0.112 A 
ENDBRANCH  29  30
ENDBRANCH  27  29
BRANCH  27  36
ATOM     36  C   UNL     1      -1.780  -6.377   4.088  0.00  0.00    -0.002 C 
BRANCH  36  37
ATOM     37  C   UNL     1      -3.283  -6.459   4.013  0.00  0.00    +0.089 A 
ATOM     38  C   UNL     1      -4.004  -7.586   3.873  0.00  0.00    +0.042 A 
ATOM     39  C   UNL     1      -5.364  -7.203   3.850  0.00  0.00    +0.041 A 
ATOM     40  C   UNL     1      -5.394  -5.864   3.977  0.00  0.00    +0.195 A 
ATOM     41  O   UNL     1      -4.131  -5.419   4.082  0.00  0.00    -0.470 OA
ENDBRANCH  36  37
ENDBRANCH  27  36
ENDBRANCH   1  27
TORSDOF 8
