REMARK  Name = ZINC20027247
REMARK  11 active torsions:
REMARK  status: ('A' for Active; 'I' for Inactive)
REMARK    1  A    between atoms: C_1  and  C_2
REMARK    2  A    between atoms: C_2  and  O_3
REMARK    3  A    between atoms: O_3  and  C_4
REMARK    4  A    between atoms: C_7  and  C_12
REMARK    5  A    between atoms: C_9  and  O_10
REMARK    6  A    between atoms: O_10  and  C_11
REMARK    7  A    between atoms: N_17  and  C_31
REMARK    8  A    between atoms: C_21  and  C_29
REMARK    9  A    between atoms: C_22  and  N_28
REMARK   10  A    between atoms: C_23  and  C_24
REMARK   11  A    between atoms: C_23  and  C_26
REMARK                            x       y       z     vdW  Elec       q    Type
REMARK                         _______ _______ _______ _____ _____    ______ ____
ROOT
ATOM      1  C   UNL     1       2.180  -2.502   0.656  0.00  0.00    +0.068 C 
ATOM      2  C   UNL     1       0.871  -1.720   0.779  0.00  0.00    +0.044 C 
ATOM      3  C   UNL     1       1.055  -0.257   0.443  0.00  0.00    +0.093 C 
ATOM      4  N   UNL     1       0.631   0.050  -0.926  0.00  0.00    -0.301 NA
ATOM      5  C   UNL     1      -0.794  -0.278  -1.103  0.00  0.00    +0.111 C 
ATOM      6  C   UNL     1      -0.926  -1.775  -0.933  0.00  0.00    -0.007 C 
ATOM      7  C   UNL     1      -0.151  -2.413  -0.076  0.00  0.00    -0.026 C 
ATOM      8  C   UNL     1      -0.252  -3.887   0.045  0.00  0.00    +0.074 C 
ATOM      9  C   UNL     1       0.762  -4.569   0.637  0.00  0.00    +0.054 C 
ATOM     10  C   UNL     1       1.973  -3.907   1.222  0.00  0.00    +0.188 C 
ATOM     11  C   UNL     1       0.893   1.457  -1.256  0.00  0.00    +0.105 C 
ENDROOT
BRANCH   1  15
ATOM     12  C   UNL     1       5.250  -0.502   2.861  0.00  0.00    +0.162 A 
ATOM     13  C   UNL     1       3.991  -0.668   3.415  0.00  0.00    +0.050 A 
ATOM     14  C   UNL     1       3.001  -1.315   2.700  0.00  0.00    +0.008 A 
ATOM     15  C   UNL     1       3.263  -1.797   1.431  0.00  0.00    -0.037 A 
ATOM     16  C   UNL     1       4.519  -1.640   0.874  0.00  0.00    +0.053 A 
ATOM     17  C   UNL     1       5.514  -0.988   1.584  0.00  0.00    +0.162 A 
BRANCH  17  18
ATOM     18  O   UNL     1       6.748  -0.828   1.036  0.00  0.00    -0.491 OA
ATOM     19  C   UNL     1       6.947  -1.352  -0.279  0.00  0.00    +0.277 C 
ENDBRANCH  17  18
BRANCH  12  20
ATOM     20  O   UNL     1       6.226   0.134   3.563  0.00  0.00    -0.489 OA
BRANCH  20  22
ATOM     21  C   UNL     1       7.098   1.288   5.499  0.00  0.00    +0.048 C 
ATOM     22  C   UNL     1       5.883   0.605   4.868  0.00  0.00    +0.226 C 
ENDBRANCH  20  22
ENDBRANCH  12  20
ENDBRANCH   1  15
BRANCH   9  23
ATOM     23  N   UNL     1       0.673  -5.931   0.704  0.00  0.00    -0.358 N 
ATOM     24  H   UNL     1       1.478  -6.512   1.178  0.00  0.00    +0.142 HD
ATOM     25  H   UNL     1      -0.204  -6.446   0.284  0.00  0.00    +0.142 HD
ENDBRANCH   9  23
BRANCH  10  26
ATOM     26  C   UNL     1       3.159  -4.725   0.920  0.00  0.00    +0.091 C 
ATOM     27  N   UNL     1       4.075  -5.356   0.688  0.00  0.00    -0.194 NA
ENDBRANCH  10  26
BRANCH  10  28
ATOM     28  C   UNL     1       1.811  -3.817   2.682  0.00  0.00    +0.091 C 
ATOM     29  N   UNL     1       1.686  -3.748   3.809  0.00  0.00    -0.194 NA
ENDBRANCH  10  28
BRANCH   8  30
ATOM     30  C   UNL     1      -1.390  -4.585  -0.471  0.00  0.00    +0.101 C 
ATOM     31  N   UNL     1      -2.293  -5.139  -0.880  0.00  0.00    -0.191 NA
ENDBRANCH   8  30
TORSDOF 8
