REMARK  Name = ZINC66837783
REMARK  5 active torsions:
REMARK  status: ('A' for Active; 'I' for Inactive)
REMARK    1  A    between atoms: C_1  and  C_2
REMARK    2  A    between atoms: C_2  and  C_3
REMARK    3  A    between atoms: C_2  and  C_4
REMARK    4  A    between atoms: C_12  and  C_14
REMARK    5  A    between atoms: C_17  and  C_19
REMARK                            x       y       z     vdW  Elec       q    Type
REMARK                         _______ _______ _______ _____ _____    ______ ____
ROOT
ATOM      1  C   UNL     1      -0.356  -4.184  -0.076  0.00  0.00    +0.133 A 
ATOM      2  C   UNL     1       0.707  -4.918  -0.530  0.00  0.00    +0.080 A 
ATOM      3  S   UNL     1       0.184  -6.500  -0.296  0.00  0.00    -0.075 S 
ATOM      4  C   UNL     1      -1.421  -6.138   0.395  0.00  0.00    +0.109 A 
ATOM      5  N   UNL     1      -1.423  -4.817   0.393  0.00  0.00    -0.234 NA
ENDROOT
BRANCH   1  13
ATOM      6  C   UNL     1      -1.449  -0.538   0.066  0.00  0.00    +0.165 C 
ATOM      7  C   UNL     1      -2.100   0.070   1.278  0.00  0.00    +0.234 C 
ATOM      8  O   UNL     1      -2.017   1.270   1.438  0.00  0.00    -0.274 OA
ATOM      9  N   UNL     1      -2.765  -0.648   2.184  0.00  0.00    -0.312 N 
ATOM     10  C   UNL     1      -2.870  -2.101   2.172  0.00  0.00    +0.123 C 
ATOM     11  C   UNL     1      -2.614  -2.652   0.768  0.00  0.00    +0.127 C 
ATOM     12  N   UNL     1      -1.409  -2.000   0.228  0.00  0.00    -0.283 N 
ATOM     13  C   UNL     1      -0.313  -2.712  -0.102  0.00  0.00    +0.266 C 
ATOM     14  O   UNL     1       0.711  -2.139  -0.422  0.00  0.00    -0.268 OA
ATOM     15  H   UNL     1      -3.209  -0.170   2.901  0.00  0.00    +0.149 HD
BRANCH   6  17
ATOM     16  C   UNL     1      -0.073   1.504  -0.358  0.00  0.00    +0.009 C 
ATOM     17  C   UNL     1      -0.024   0.001  -0.075  0.00  0.00    +0.012 C 
ATOM     18  C   UNL     1       0.747  -0.250   1.222  0.00  0.00    +0.009 C 
ENDBRANCH   6  17
ENDBRANCH   1  13
BRANCH   4  19
ATOM     19  C   UNL     1      -2.472  -7.072   0.853  0.00  0.00    +0.011 A 
ATOM     20  C   UNL     1      -3.674  -6.578   1.362  0.00  0.00    +0.014 A 
ATOM     21  C   UNL     1      -4.651  -7.451   1.789  0.00  0.00    +0.050 A 
ATOM     22  C   UNL     1      -4.445  -8.823   1.716  0.00  0.00    +0.162 A 
ATOM     23  C   UNL     1      -3.250  -9.321   1.207  0.00  0.00    +0.163 A 
ATOM     24  C   UNL     1      -2.266  -8.449   0.773  0.00  0.00    +0.060 A 
ATOM     25  O   UNL     1      -3.035 -10.663   1.121  0.00  0.00    -0.485 OA
ATOM     26  C   UNL     1      -3.891 -11.503   1.903  0.00  0.00    +0.270 C 
ATOM     27  C   UNL     1      -5.338 -11.027   1.711  0.00  0.00    +0.270 C 
ATOM     28  O   UNL     1      -5.423  -9.666   2.147  0.00  0.00    -0.485 OA
ENDBRANCH   4  19
TORSDOF 3
