REMARK  Name = ZINC36354599
REMARK  3 active torsions:
REMARK  status: ('A' for Active; 'I' for Inactive)
REMARK    1  A    between atoms: C_3  and  C_25
REMARK    2  A    between atoms: C_6  and  C_7
REMARK    3  A    between atoms: N_17  and  C_18
REMARK                            x       y       z     vdW  Elec       q    Type
REMARK                         _______ _______ _______ _____ _____    ______ ____
ROOT
ATOM      1  C   UNL     1      -1.295  -0.772   0.011  0.00  0.00    +0.080 C 
ATOM      2  C   UNL     1      -1.378  -1.657  -1.236  0.00  0.00    +0.110 C 
ATOM      3  C   UNL     1      -0.502  -2.870  -1.107  0.00  0.00    +0.219 C 
ATOM      4  O   UNL     1       0.072  -3.287  -2.091  0.00  0.00    -0.275 OA
ATOM      5  N   UNL     1      -0.333  -3.512   0.069  0.00  0.00    -0.270 N 
ATOM      6  C   UNL     1      -0.891  -2.940   1.214  0.00  0.00    +0.133 A 
ATOM      7  C   UNL     1      -1.353  -1.657   1.230  0.00  0.00    +0.089 A 
ATOM      8  N   UNL     1      -1.818  -1.399   2.450  0.00  0.00    -0.238 NA
ATOM      9  C   UNL     1      -1.673  -2.460   3.202  0.00  0.00    +0.205 A 
ATOM     10  N   UNL     1      -1.095  -3.452   2.456  0.00  0.00    -0.287 N 
ATOM     11  H   UNL     1       0.161  -4.346   0.117  0.00  0.00    +0.156 HD
ENDROOT
BRANCH  10  12
ATOM     12  C   UNL     1      -0.772  -4.746   2.891  0.00  0.00    +0.049 A 
ATOM     13  C   UNL     1      -1.165  -5.848   2.144  0.00  0.00    +0.029 A 
ATOM     14  C   UNL     1      -0.847  -7.122   2.574  0.00  0.00    +0.040 A 
ATOM     15  C   UNL     1      -0.136  -7.300   3.749  0.00  0.00    +0.124 A 
ATOM     16  C   UNL     1       0.256  -6.201   4.496  0.00  0.00    +0.040 A 
ATOM     17  C   UNL     1      -0.055  -4.926   4.066  0.00  0.00    +0.029 A 
ATOM     18  F   UNL     1       0.174  -8.546   4.168  0.00  0.00    -0.205 F 
ENDBRANCH  10  12
BRANCH   1  24
ATOM     19  C   UNL     1      -0.017   1.380   0.010  0.00  0.00    +0.005 A 
ATOM     20  C   UNL     1       1.166   2.089   0.002  0.00  0.00    +0.015 A 
ATOM     21  C   UNL     1       2.385   1.407  -0.013  0.00  0.00    +0.063 A 
ATOM     22  C   UNL     1       2.397   0.009  -0.021  0.00  0.00    +0.015 A 
ATOM     23  C   UNL     1       1.206  -0.686  -0.013  0.00  0.00    +0.005 A 
ATOM     24  C   UNL     1       0.002  -0.004   0.002  0.00  0.00    -0.038 A 
BRANCH  21  25
ATOM     25  C   UNL     1       3.655   2.158  -0.022  0.00  0.00    +0.387 C 
ATOM     26  O   UNL     1       3.642   3.381  -0.015  0.00  0.00    -0.241 OA
ATOM     27  O   UNL     1       4.721   1.558  -0.035  0.00  0.00    -0.241 OA
ENDBRANCH  21  25
ENDBRANCH   1  24
TORSDOF 3
