REMARK  Name = ZINC39679032
REMARK  11 active torsions:
REMARK  status: ('A' for Active; 'I' for Inactive)
REMARK    1  A    between atoms: C_1  and  N_2
REMARK    2  A    between atoms: N_2  and  C_3
REMARK    3  A    between atoms: N_2  and  C_4
REMARK    4  A    between atoms: C_4  and  C_5
REMARK    5  A    between atoms: C_5  and  C_6
REMARK    6  A    between atoms: C_6  and  C_7
REMARK    7  A    between atoms: C_7  and  N_8
REMARK    8  A    between atoms: C_9  and  C_11
REMARK    9  A    between atoms: C_22  and  C_24
REMARK   10  A    between atoms: C_29  and  S_30
REMARK   11  A    between atoms: S_30  and  C_31
REMARK                            x       y       z     vdW  Elec       q    Type
REMARK                         _______ _______ _______ _____ _____    ______ ____
ROOT
ATOM      1  C   UNL     1      -8.350  -0.781  -3.413  0.00  0.00    +0.100 C 
ATOM      2  C   UNL     1      -8.122  -2.307  -3.485  0.00  0.00    +0.121 C 
ATOM      3  N   UNL     1      -9.127  -2.791  -4.460  0.00  0.00    -0.296 N 
ATOM      4  C   UNL     1      -9.148  -1.750  -5.516  0.00  0.00    +0.115 C 
ATOM      5  C   UNL     1      -9.023  -0.419  -4.748  0.00  0.00    -0.004 C 
ATOM      6  C   UNL     1      -8.153   0.561  -5.530  0.00  0.00    -0.010 C 
ATOM      7  C   UNL     1      -8.869   0.951  -6.826  0.00  0.00    -0.082 C 
ATOM      8  N   UNL     1     -10.165   1.563  -6.506  0.00  0.00    +0.379 N 
ATOM      9  C   UNL     1     -11.029   0.584  -5.836  0.00  0.00    -0.082 C 
ATOM     10  C   UNL     1     -10.404   0.179  -4.498  0.00  0.00    -0.010 C 
ATOM     11  C   UNL     1      -9.859  -3.921  -4.400  0.00  0.00    +0.249 C 
ATOM     12  O   UNL     1     -10.579  -4.230  -5.331  0.00  0.00    -0.270 OA
ATOM     13  H   UNL     1     -10.020   2.354  -5.896  0.00  0.00    -0.086 HD
ATOM     14  H   UNL     1     -10.607   1.875  -7.357  0.00  0.00    -0.086 HD
ENDROOT
BRANCH  11  15
ATOM     15  C   UNL     1      -9.786  -4.784  -3.207  0.00  0.00    +0.069 A 
ATOM     16  C   UNL     1      -8.582  -4.938  -2.511  0.00  0.00    +0.017 A 
ATOM     17  C   UNL     1      -8.566  -5.758  -1.398  0.00  0.00    +0.020 A 
ATOM     18  C   UNL     1      -9.729  -6.398  -1.006  0.00  0.00    +0.112 A 
ATOM     19  N   UNL     1     -10.854  -6.240  -1.674  0.00  0.00    -0.248 NA
ATOM     20  C   UNL     1     -10.927  -5.463  -2.744  0.00  0.00    +0.114 A 
BRANCH  20  21
ATOM     21  S   UNL     1     -12.459  -5.283  -3.595  0.00  0.00    -0.069 S 
BRANCH  21  22
ATOM     22  C   UNL     1     -13.536  -6.413  -2.778  0.00  0.00    +0.014 A 
ATOM     23  C   UNL     1     -14.361  -5.971  -1.751  0.00  0.00    +0.015 A 
ATOM     24  C   UNL     1     -15.204  -6.859  -1.113  0.00  0.00    +0.001 A 
ATOM     25  C   UNL     1     -15.227  -8.188  -1.494  0.00  0.00    +0.000 A 
ATOM     26  C   UNL     1     -14.407  -8.633  -2.515  0.00  0.00    +0.001 A 
ATOM     27  C   UNL     1     -13.566  -7.748  -3.162  0.00  0.00    +0.015 A 
ENDBRANCH  21  22
ENDBRANCH  20  21
ENDBRANCH  11  15
BRANCH   1  29
ATOM     28  N   UNL     1      -6.980   1.129  -2.642  0.00  0.00    -0.315 N 
ATOM     29  C   UNL     1      -7.034  -0.059  -3.276  0.00  0.00    +0.218 C 
ATOM     30  O   UNL     1      -6.024  -0.547  -3.737  0.00  0.00    -0.275 OA
ATOM     31  H   UNL     1      -7.788   1.519  -2.274  0.00  0.00    +0.149 HD
BRANCH  28  32
ATOM     32  C   UNL     1      -5.700   1.830  -2.509  0.00  0.00    +0.104 C 
BRANCH  32  33
ATOM     33  C   UNL     1      -5.915   3.144  -1.754  0.00  0.00    +0.017 C 
BRANCH  33  34
ATOM     34  C   UNL     1      -4.579   3.876  -1.615  0.00  0.00    -0.017 C 
BRANCH  34  35
ATOM     35  C   UNL     1      -4.794   5.190  -0.861  0.00  0.00    -0.080 C 
BRANCH  35  37
ATOM     36  C   UNL     1      -3.026   6.284  -2.058  0.00  0.00    -0.097 C 
ATOM     37  N   UNL     1      -3.511   5.893  -0.727  0.00  0.00    +0.376 N 
ATOM     38  C   UNL     1      -3.695   7.093   0.099  0.00  0.00    -0.097 C 
ATOM     39  H   UNL     1      -2.837   5.283  -0.289  0.00  0.00    -0.083 HD
ENDBRANCH  35  37
ENDBRANCH  34  35
ENDBRANCH  33  34
ENDBRANCH  32  33
ENDBRANCH  28  32
ENDBRANCH   1  29
TORSDOF 9
