REMARK  Name = ZINC39664734
REMARK  9 active torsions:
REMARK  status: ('A' for Active; 'I' for Inactive)
REMARK    1  A    between atoms: C_1  and  C_2
REMARK    2  A    between atoms: C_6  and  C_9
REMARK    3  A    between atoms: C_13  and  C_22
REMARK    4  A    between atoms: N_24  and  C_25
REMARK    5  A    between atoms: C_25  and  C_27
REMARK    6  A    between atoms: C_25  and  C_31
REMARK    7  A    between atoms: C_27  and  N_28
REMARK    8  A    between atoms: N_28  and  C_29
REMARK    9  A    between atoms: N_28  and  C_30
REMARK                            x       y       z     vdW  Elec       q    Type
REMARK                         _______ _______ _______ _____ _____    ______ ____
ROOT
ATOM      1  C   UNL     1       0.467  -3.629   2.506  0.00  0.00    +0.251 C 
ATOM      2  O   UNL     1       1.426  -4.159   3.032  0.00  0.00    -0.270 OA
ATOM      3  N   UNL     1      -0.739  -3.668   3.108  0.00  0.00    -0.296 N 
ATOM      4  C   UNL     1      -2.033  -3.175   2.581  0.00  0.00    +0.121 C 
ATOM      5  C   UNL     1      -3.065  -4.235   3.028  0.00  0.00    +0.100 C 
ATOM      6  C   UNL     1      -2.427  -4.911   4.253  0.00  0.00    -0.004 C 
ATOM      7  C   UNL     1      -1.070  -4.219   4.444  0.00  0.00    +0.115 C 
ATOM      8  C   UNL     1      -2.221  -6.399   3.988  0.00  0.00    -0.010 C 
ATOM      9  C   UNL     1      -1.639  -7.061   5.240  0.00  0.00    -0.082 C 
ATOM     10  N   UNL     1      -2.557  -6.867   6.370  0.00  0.00    +0.379 N 
ATOM     11  C   UNL     1      -2.677  -5.437   6.678  0.00  0.00    -0.082 C 
ATOM     12  C   UNL     1      -3.303  -4.707   5.486  0.00  0.00    -0.010 C 
ATOM     13  H   UNL     1      -3.465  -7.236   6.130  0.00  0.00    -0.086 HD
ATOM     14  H   UNL     1      -2.201  -7.355   7.178  0.00  0.00    -0.086 HD
ENDROOT
BRANCH   1  20
ATOM     15  C   UNL     1       1.153   0.571  -0.106  0.00  0.00    +0.047 C 
ATOM     16  C   UNL     1       0.953  -0.922  -0.055  0.00  0.00    -0.014 A 
ATOM     17  C   UNL     1       0.913  -1.653  -1.228  0.00  0.00    +0.007 A 
ATOM     18  C   UNL     1       0.729  -3.024  -1.192  0.00  0.00    +0.021 A 
ATOM     19  C   UNL     1       0.583  -3.673   0.018  0.00  0.00    +0.056 A 
ATOM     20  C   UNL     1       0.622  -2.942   1.209  0.00  0.00    +0.091 A 
ATOM     21  C   UNL     1       0.814  -1.557   1.165  0.00  0.00    +0.140 A 
ATOM     22  F   UNL     1       0.858  -0.843   2.310  0.00  0.00    -0.204 F 
ATOM     23 CL   UNL     1       0.352  -5.393   0.060  0.00  0.00    -0.083 Cl
ENDBRANCH   1  20
BRANCH   5  24
ATOM     24  C   UNL     1      -3.293  -5.241   1.930  0.00  0.00    +0.219 C 
ATOM     25  O   UNL     1      -2.380  -5.555   1.196  0.00  0.00    -0.275 OA
ATOM     26  N   UNL     1      -4.512  -5.792   1.764  0.00  0.00    -0.310 N 
ATOM     27  H   UNL     1      -5.224  -5.594   2.392  0.00  0.00    +0.149 HD
BRANCH  26  28
ATOM     28  C   UNL     1      -4.761  -6.691   0.634  0.00  0.00    +0.087 C 
BRANCH  28  29
ATOM     29  C   UNL     1      -5.956  -7.559   0.936  0.00  0.00    -0.029 A 
ATOM     30  C   UNL     1      -7.060  -7.019   1.569  0.00  0.00    +0.005 A 
ATOM     31  C   UNL     1      -8.155  -7.815   1.846  0.00  0.00    +0.000 A 
ATOM     32  C   UNL     1      -8.147  -9.151   1.491  0.00  0.00    +0.000 A 
ATOM     33  C   UNL     1      -7.043  -9.691   0.858  0.00  0.00    +0.000 A 
ATOM     34  C   UNL     1      -5.949  -8.894   0.577  0.00  0.00    +0.005 A 
ENDBRANCH  28  29
BRANCH  28  35
ATOM     35  C   UNL     1      -5.037  -5.865  -0.624  0.00  0.00    -0.052 C 
BRANCH  35  36
ATOM     36  N   UNL     1      -5.177  -6.762  -1.779  0.00  0.00    +0.377 N 
ATOM     37  C   UNL     1      -5.576  -5.983  -2.959  0.00  0.00    -0.097 C 
ATOM     38  C   UNL     1      -3.893  -7.426  -2.041  0.00  0.00    -0.097 C 
ATOM     39  H   UNL     1      -5.881  -7.457  -1.581  0.00  0.00    -0.083 HD
ENDBRANCH  35  36
ENDBRANCH  28  35
ENDBRANCH  26  28
ENDBRANCH   5  24
TORSDOF 6
