REMARK  Name = ZINC39463702
REMARK  5 active torsions:
REMARK  status: ('A' for Active; 'I' for Inactive)
REMARK    1  A    between atoms: C_4  and  O_7
REMARK    2  A    between atoms: O_7  and  S_8
REMARK    3  A    between atoms: S_8  and  C_11
REMARK    4  A    between atoms: C_16  and  C_21
REMARK    5  A    between atoms: C_26  and  O_27
REMARK                            x       y       z     vdW  Elec       q    Type
REMARK                         _______ _______ _______ _____ _____    ______ ____
ROOT
ATOM      1  C   UNL     1       3.350  -2.191   2.475  0.00  0.00    +0.137 A 
ATOM      2  C   UNL     1       3.841  -3.461   2.408  0.00  0.00    +0.077 A 
ATOM      3  C   UNL     1       3.022  -4.541   2.783  0.00  0.00    +0.143 A 
ATOM      4  N   UNL     1       3.235  -5.851   2.817  0.00  0.00    -0.235 NA
ATOM      5  C   UNL     1       2.139  -6.470   3.252  0.00  0.00    +0.140 A 
ATOM      6  C   UNL     1       1.183  -5.529   3.509  0.00  0.00    +0.080 A 
ATOM      7  N   UNL     1       1.741  -4.304   3.213  0.00  0.00    -0.259 N 
ATOM      8  C   UNL     1       1.257  -3.028   3.276  0.00  0.00    +0.259 A 
ATOM      9  C   UNL     1       2.040  -1.975   2.922  0.00  0.00    +0.101 A 
ATOM     10  O   UNL     1      -0.010  -2.811   3.702  0.00  0.00    -0.267 OA
ENDROOT
BRANCH   6  11
ATOM     11  C   UNL     1      -0.184  -5.777   4.008  0.00  0.00    +0.042 A 
ATOM     12  C   UNL     1      -1.282  -5.209   3.359  0.00  0.00    +0.013 A 
ATOM     13  C   UNL     1      -2.557  -5.444   3.830  0.00  0.00    +0.001 A 
ATOM     14  C   UNL     1      -2.753  -6.242   4.944  0.00  0.00    +0.004 A 
ATOM     15  C   UNL     1      -1.673  -6.810   5.595  0.00  0.00    +0.046 A 
ATOM     16  C   UNL     1      -0.388  -6.589   5.131  0.00  0.00    +0.126 A 
BRANCH  16  17
ATOM     17  O   UNL     1       0.673  -7.152   5.767  0.00  0.00    -0.506 OA
ATOM     18  H   UNL     1       1.043  -6.606   6.474  0.00  0.00    +0.292 HD
ENDBRANCH  16  17
ENDBRANCH   6  11
BRANCH   1  19
ATOM     19  S   UNL     1       4.361  -0.826   2.009  0.00  0.00    +0.151 S 
ATOM     20  O   UNL     1       5.641  -1.357   1.695  0.00  0.00    -0.131 OA
ATOM     21  O   UNL     1       4.174   0.175   3.000  0.00  0.00    -0.131 OA
BRANCH  19  22
ATOM     22  O   UNL     1       3.793  -0.266   0.713  0.00  0.00    -0.342 OA
BRANCH  22  26
ATOM     23  C   UNL     1       0.322   1.910   1.202  0.00  0.00    +0.000 A 
ATOM     24  C   UNL     1       1.549   2.543   1.268  0.00  0.00    +0.004 A 
ATOM     25  C   UNL     1       2.713   1.817   1.104  0.00  0.00    +0.048 A 
ATOM     26  C   UNL     1       2.649   0.450   0.874  0.00  0.00    +0.157 A 
ATOM     27  C   UNL     1       1.417  -0.183   0.809  0.00  0.00    +0.048 A 
ATOM     28  C   UNL     1       0.256   0.548   0.973  0.00  0.00    +0.004 A 
ENDBRANCH  22  26
ENDBRANCH  19  22
ENDBRANCH   1  19
TORSDOF 5
