REMARK  Name = ZINC20763616
REMARK  9 active torsions:
REMARK  status: ('A' for Active; 'I' for Inactive)
REMARK    1  A    between atoms: C_1  and  C_2
REMARK    2  A    between atoms: C_2  and  O_3
REMARK    3  A    between atoms: O_3  and  C_4
REMARK    4  A    between atoms: C_8  and  C_11
REMARK    5  A    between atoms: C_9  and  O_10
REMARK    6  A    between atoms: C_14  and  C_26
REMARK    7  A    between atoms: C_16  and  C_19
REMARK    8  A    between atoms: C_30  and  O_32
REMARK    9  A    between atoms: O_32  and  C_33
REMARK                            x       y       z     vdW  Elec       q    Type
REMARK                         _______ _______ _______ _____ _____    ______ ____
ROOT
ATOM      1  C   UNL     1      -1.217   7.485   0.447  0.00  0.00    -0.028 C 
ATOM      2  C   UNL     1      -1.409   6.019   0.049  0.00  0.00    +0.044 C 
ATOM      3  C   UNL     1      -0.076   5.324   0.033  0.00  0.00    +0.040 C 
ATOM      4  N   UNL     1       1.039   5.953   0.032  0.00  0.00    -0.299 NA
ATOM      5  C   UNL     1       1.159   7.405   0.044  0.00  0.00    +0.081 C 
ATOM      6  N   UNL     1      -0.106   8.036  -0.349  0.00  0.00    +0.401 N 
ATOM      7  H   UNL     1      -0.289   7.842  -1.416  0.00  0.00    -0.081 HD
ATOM      8  H   UNL     1      -0.036   9.120  -0.180  0.00  0.00    -0.081 HD
ENDROOT
BRANCH   5   9
ATOM      9  C   UNL     1       2.242   7.824  -0.916  0.00  0.00    -0.040 A 
ATOM     10  C   UNL     1       2.175   9.057  -1.538  0.00  0.00    +0.005 A 
ATOM     11  C   UNL     1       3.171   9.444  -2.415  0.00  0.00    +0.020 A 
ATOM     12  C   UNL     1       4.229   8.593  -2.679  0.00  0.00    +0.041 A 
ATOM     13  C   UNL     1       4.293   7.357  -2.060  0.00  0.00    +0.020 A 
ATOM     14  C   UNL     1       3.300   6.973  -1.180  0.00  0.00    +0.005 A 
ATOM     15 CL   UNL     1       5.476   9.076  -3.786  0.00  0.00    -0.084 Cl
ENDBRANCH   5   9
BRANCH   1  20
ATOM     16  C   UNL     1      -4.666   8.998   0.829  0.00  0.00    +0.162 A 
ATOM     17  C   UNL     1      -4.795   9.684  -0.368  0.00  0.00    +0.049 A 
ATOM     18  C   UNL     1      -3.769   9.658  -1.294  0.00  0.00    +0.004 A 
ATOM     19  C   UNL     1      -2.611   8.951  -1.028  0.00  0.00    +0.006 A 
ATOM     20  C   UNL     1      -2.479   8.259   0.162  0.00  0.00    -0.016 A 
ATOM     21  C   UNL     1      -3.503   8.282   1.095  0.00  0.00    +0.160 A 
BRANCH  21  22
ATOM     22  O   UNL     1      -3.372   7.606   2.267  0.00  0.00    -0.503 OA
ATOM     23  H   UNL     1      -2.452   7.040   2.476  0.00  0.00    +0.292 HD
ENDBRANCH  21  22
BRANCH  16  24
ATOM     24  O   UNL     1      -5.675   9.023   1.741  0.00  0.00    -0.489 OA
BRANCH  24  26
ATOM     25  C   UNL     1      -7.856   9.689   2.539  0.00  0.00    +0.048 C 
ATOM     26  C   UNL     1      -6.839   9.778   1.400  0.00  0.00    +0.226 C 
ENDBRANCH  24  26
ENDBRANCH  16  24
ENDBRANCH   1  20
BRANCH   3  27
ATOM     27  C   UNL     1      -0.052   3.848   0.024  0.00  0.00    -0.001 A 
ATOM     28  C   UNL     1      -1.248   3.127   0.031  0.00  0.00    +0.010 A 
ATOM     29  C   UNL     1      -1.221   1.748   0.017  0.00  0.00    +0.004 A 
ATOM     30  C   UNL     1      -0.013   1.076   0.008  0.00  0.00    +0.045 A 
ATOM     31  C   UNL     1       1.182   1.784   0.000  0.00  0.00    +0.121 A 
ATOM     32  C   UNL     1       1.167   3.168   0.008  0.00  0.00    +0.055 A 
BRANCH  31  33
ATOM     33  O   UNL     1       2.366   1.117  -0.015  0.00  0.00    -0.495 OA
ATOM     34  C   UNL     1       2.307  -0.311  -0.022  0.00  0.00    +0.277 C 
ENDBRANCH  31  33
ENDBRANCH   3  27
TORSDOF 7
