REMARK  Name = ZINC13417979
REMARK  10 active torsions:
REMARK  status: ('A' for Active; 'I' for Inactive)
REMARK    1  A    between atoms: C_1  and  C_2
REMARK    2  A    between atoms: C_2  and  C_3
REMARK    3  A    between atoms: C_3  and  C_5
REMARK    4  A    between atoms: C_3  and  C_6
REMARK    5  A    between atoms: C_9  and  N_12
REMARK    6  A    between atoms: C_13  and  C_15
REMARK    7  A    between atoms: C_15  and  C_17
REMARK    8  A    between atoms: C_15  and  N_18
REMARK    9  A    between atoms: C_25  and  C_30
REMARK   10  A    between atoms: C_26  and  C_28
REMARK                            x       y       z     vdW  Elec       q    Type
REMARK                         _______ _______ _______ _____ _____    ______ ____
ROOT
ATOM      1  C   UNL     1       3.698   8.761   0.082  0.00  0.00    +0.174 C 
ATOM      2  C   UNL     1       3.738   9.636   1.336  0.00  0.00    +0.041 C 
ENDROOT
BRANCH   1   3
ATOM      3  N   UNL     1       2.577   7.823   0.176  0.00  0.00    -0.287 N 
ATOM      4  C   UNL     1       1.315   8.306   0.288  0.00  0.00    +0.204 A 
ATOM      5  N   UNL     1       0.279   7.517   0.376  0.00  0.00    -0.230 NA
ATOM      6  C   UNL     1       0.407   6.197   0.360  0.00  0.00    +0.116 A 
ATOM      7  C   UNL     1       1.670   5.571   0.246  0.00  0.00    +0.076 A 
ATOM      8  C   UNL     1       2.821   6.498   0.149  0.00  0.00    +0.263 A 
ATOM      9  O   UNL     1       3.958   6.074   0.047  0.00  0.00    -0.267 OA
ATOM     10  C   UNL     1       1.659   4.175   0.248  0.00  0.00    -0.015 A 
ATOM     11  C   UNL     1       0.474   3.505   0.344  0.00  0.00    +0.106 A 
ATOM     12  S   UNL     1      -0.719   4.828   0.454  0.00  0.00    -0.062 S 
ATOM     13  C   UNL     1       2.953   3.409   0.139  0.00  0.00    +0.046 C 
BRANCH  11  14
ATOM     14  C   UNL     1       0.240   2.059   0.359  0.00  0.00    +0.393 C 
ATOM     15  O   UNL     1       1.178   1.290   0.274  0.00  0.00    -0.240 OA
ATOM     16  O   UNL     1      -1.017   1.580   0.467  0.00  0.00    -0.240 OA
ENDBRANCH  11  14
ENDBRANCH   1   3
BRANCH   1  18
ATOM     17  N   UNL     1       4.440  10.577  -1.425  0.00  0.00    -0.284 N 
ATOM     18  C   UNL     1       3.523   9.633  -1.135  0.00  0.00    +0.240 C 
ATOM     19  O   UNL     1       2.556   9.486  -1.852  0.00  0.00    -0.273 OA
ATOM     20  H   UNL     1       5.172  10.746  -0.812  0.00  0.00    +0.155 HD
BRANCH  17  24
ATOM     21  C   UNL     1       4.132  12.764  -4.957  0.00  0.00    -0.044 A 
ATOM     22  C   UNL     1       4.650  13.358  -3.821  0.00  0.00    +0.006 A 
ATOM     23  C   UNL     1       4.753  12.636  -2.649  0.00  0.00    +0.023 A 
ATOM     24  C   UNL     1       4.336  11.312  -2.611  0.00  0.00    +0.033 A 
ATOM     25  C   UNL     1       3.821  10.717  -3.756  0.00  0.00    +0.023 A 
ATOM     26  C   UNL     1       3.716  11.446  -4.924  0.00  0.00    +0.006 A 
BRANCH  21  27
ATOM     27  C   UNL     1       4.021  13.556  -6.235  0.00  0.00    +0.016 C 
ATOM     28  C   UNL     1       4.849  12.878  -7.329  0.00  0.00    +0.012 C 
BRANCH  27  30
ATOM     29  C   UNL     1       2.425  14.524  -7.896  0.00  0.00    +0.004 C 
ATOM     30  C   UNL     1       2.555  13.618  -6.670  0.00  0.00    +0.004 C 
ENDBRANCH  27  30
ENDBRANCH  21  27
ENDBRANCH  17  24
ENDBRANCH   1  18
TORSDOF 6
