REMARK  Name = ZINC12780082
REMARK  6 active torsions:
REMARK  status: ('A' for Active; 'I' for Inactive)
REMARK    1  A    between atoms: C_6  and  N_7
REMARK    2  A    between atoms: C_11  and  C_13
REMARK    3  A    between atoms: C_13  and  C_14
REMARK    4  A    between atoms: C_14  and  S_15
REMARK    5  A    between atoms: S_15  and  C_16
REMARK    6  A    between atoms: C_19  and  C_21
REMARK                            x       y       z     vdW  Elec       q    Type
REMARK                         _______ _______ _______ _____ _____    ______ ____
ROOT
ATOM      1  N   UNL     1       5.011  -0.648   2.231  0.00  0.00    -0.269 N 
ATOM      2  C   UNL     1       5.391  -1.783   2.852  0.00  0.00    +0.310 C 
ATOM      3  O   UNL     1       4.654  -2.750   2.855  0.00  0.00    -0.252 OA
ATOM      4  N   UNL     1       6.587  -1.845   3.469  0.00  0.00    -0.240 N 
ATOM      5  C   UNL     1       6.967  -2.979   4.090  0.00  0.00    +0.221 C 
ATOM      6  O   UNL     1       6.233  -3.944   4.093  0.00  0.00    -0.275 OA
ATOM      7  H   UNL     1       5.624   0.100   2.170  0.00  0.00    +0.156 HD
ATOM      8  H   UNL     1       7.174  -1.073   3.467  0.00  0.00    +0.159 HD
ENDROOT
BRANCH   1  14
ATOM      9  C   UNL     1       3.051   0.660   1.698  0.00  0.00    +0.027 A 
ATOM     10  C   UNL     1       1.787   0.758   1.148  0.00  0.00    +0.051 A 
ATOM     11  C   UNL     1       1.193  -0.352   0.570  0.00  0.00    +0.166 A 
ATOM     12  C   UNL     1       1.871  -1.569   0.543  0.00  0.00    +0.168 A 
ATOM     13  C   UNL     1       3.137  -1.666   1.095  0.00  0.00    +0.073 A 
ATOM     14  C   UNL     1       3.729  -0.551   1.673  0.00  0.00    +0.038 A 
ATOM     15  O   UNL     1       1.080  -2.495  -0.074  0.00  0.00    -0.453 OA
ATOM     16  C   UNL     1       0.085  -1.738  -0.787  0.00  0.00    +0.466 C 
ATOM     17  O   UNL     1      -0.023  -0.517  -0.031  0.00  0.00    -0.453 OA
ENDBRANCH   1  14
BRANCH   5  18
ATOM     18  C   UNL     1       8.305  -3.048   4.781  0.00  0.00    +0.107 C 
BRANCH  18  19
ATOM     19  C   UNL     1       8.488  -4.435   5.400  0.00  0.00    +0.088 C 
BRANCH  19  20
ATOM     20  S   UNL     1      10.094  -4.518   6.230  0.00  0.00    -0.065 S 
BRANCH  20  21
ATOM     21  C   UNL     1      10.042  -6.172   6.834  0.00  0.00    +0.277 A 
ATOM     22  N   UNL     1       9.059  -7.026   6.678  0.00  0.00    -0.101 NA
ATOM     23  N   UNL     1       9.367  -8.138   7.247  0.00  0.00    -0.111 NA
ATOM     24  C   UNL     1      10.543  -8.036   7.793  0.00  0.00    +0.221 A 
ATOM     25  O   UNL     1      11.001  -6.793   7.546  0.00  0.00    -0.415 OA
BRANCH  24  26
ATOM     26  C   UNL     1      11.264  -9.114   8.561  0.00  0.00    +0.077 C 
ATOM     27  C   UNL     1      11.478 -10.329   7.656  0.00  0.00    +0.013 C 
ATOM     28  C   UNL     1      12.210 -11.423   8.436  0.00  0.00    +0.001 C 
ATOM     29  C   UNL     1      11.373 -11.832   9.650  0.00  0.00    +0.000 C 
ATOM     30  C   UNL     1      11.159 -10.617  10.555  0.00  0.00    +0.001 C 
ATOM     31  C   UNL     1      10.427  -9.523   9.775  0.00  0.00    +0.013 C 
ENDBRANCH  24  26
ENDBRANCH  20  21
ENDBRANCH  19  20
ENDBRANCH  18  19
ENDBRANCH   5  18
TORSDOF 6
