REMARK  Name = ZINC65553571
REMARK  8 active torsions:
REMARK  status: ('A' for Active; 'I' for Inactive)
REMARK    1  A    between atoms: C_1  and  C_2
REMARK    2  A    between atoms: C_2  and  C_4
REMARK    3  A    between atoms: C_2  and  N_7
REMARK    4  A    between atoms: C_4  and  C_5
REMARK    5  A    between atoms: C_4  and  C_6
REMARK    6  A    between atoms: C_8  and  C_10
REMARK    7  A    between atoms: N_13  and  C_16
REMARK    8  A    between atoms: C_16  and  N_17
REMARK                            x       y       z     vdW  Elec       q    Type
REMARK                         _______ _______ _______ _____ _____    ______ ____
ROOT
ATOM      1  C   UNL     1      -3.465  -1.164  -1.134  0.00  0.00    +0.071 C 
ATOM      2  C   UNL     1      -4.348  -0.232  -0.301  0.00  0.00    -0.006 C 
ATOM      3  C   UNL     1      -5.796  -0.723  -0.360  0.00  0.00    -0.075 C 
ATOM      4  N   UNL     1      -6.260  -0.724  -1.752  0.00  0.00    +0.393 N 
ATOM      5  C   UNL     1      -5.463  -1.670  -2.542  0.00  0.00    -0.075 C 
ATOM      6  C   UNL     1      -4.002  -1.216  -2.567  0.00  0.00    -0.006 C 
ATOM      7  H   UNL     1      -6.161   0.203  -2.139  0.00  0.00    -0.079 HD
ENDROOT
BRANCH   1   9
ATOM      8  N   UNL     1      -1.372  -0.511   0.012  0.00  0.00    -0.312 N 
ATOM      9  C   UNL     1      -2.051  -0.643  -1.145  0.00  0.00    +0.216 C 
ATOM     10  O   UNL     1      -1.524  -0.341  -2.194  0.00  0.00    -0.276 OA
ATOM     11  H   UNL     1      -1.794  -0.752   0.852  0.00  0.00    +0.149 HD
BRANCH   8  13
ATOM     12  C   UNL     1      -0.019   1.526   0.010  0.00  0.00    +0.028 C 
ATOM     13  C   UNL     1       0.002  -0.004   0.002  0.00  0.00    +0.072 C 
BRANCH  13  14
ATOM     14  C   UNL     1       0.742  -0.511   1.242  0.00  0.00    +0.003 C 
ATOM     15  C   UNL     1       2.178   0.019   1.231  0.00  0.00    +0.009 C 
ATOM     16  C   UNL     1       0.026  -0.018   2.500  0.00  0.00    +0.009 C 
ENDBRANCH  13  14
ENDBRANCH   8  13
ENDBRANCH   1   9
BRANCH   4  17
ATOM     17  C   UNL     1      -7.674  -1.121  -1.796  0.00  0.00    +0.074 C 
BRANCH  17  18
ATOM     18  N   UNL     1      -8.171  -1.008  -3.169  0.00  0.00    -0.229 N 
ATOM     19  C   UNL     1      -8.976  -0.037  -3.648  0.00  0.00    +0.349 A 
ATOM     20  O   UNL     1      -9.420   0.904  -3.013  0.00  0.00    -0.244 OA
ATOM     21  N   UNL     1      -9.202  -0.293  -4.952  0.00  0.00    -0.251 N 
ATOM     22  C   UNL     1      -9.943   0.371  -5.901  0.00  0.00    +0.098 A 
ATOM     23  C   UNL     1     -10.016  -0.091  -7.161  0.00  0.00    +0.018 A 
ATOM     24  C   UNL     1      -9.333  -1.266  -7.535  0.00  0.00    +0.005 A 
ATOM     25  C   UNL     1      -8.595  -1.939  -6.619  0.00  0.00    +0.049 A 
ATOM     26  C   UNL     1      -8.522  -1.448  -5.291  0.00  0.00    +0.162 A 
ATOM     27  N   UNL     1      -7.892  -1.886  -4.225  0.00  0.00    -0.151 NA
ENDBRANCH  17  18
ENDBRANCH   4  17
TORSDOF 5
