REMARK  Name = ZINC34957450
REMARK  4 active torsions:
REMARK  status: ('A' for Active; 'I' for Inactive)
REMARK    1  A    between atoms: C_5  and  S_7
REMARK    2  A    between atoms: S_7  and  N_10
REMARK    3  A    between atoms: C_13  and  C_16
REMARK    4  A    between atoms: C_16  and  C_17
REMARK                            x       y       z     vdW  Elec       q    Type
REMARK                         _______ _______ _______ _____ _____    ______ ____
ROOT
ATOM      1  N   UNL     1       1.893  -2.913  -1.466  0.00  0.00    -0.103 NA
ATOM      2  C   UNL     1       2.030  -4.188  -1.738  0.00  0.00    +0.192 A 
ATOM      3  N   UNL     1       2.554  -4.790  -2.862  0.00  0.00    -0.336 N 
ATOM      4  C   UNL     1       2.590  -6.153  -2.913  0.00  0.00    +0.035 A 
ATOM      5  C   UNL     1       2.127  -6.874  -1.892  0.00  0.00    +0.070 A 
ATOM      6  S   UNL     1       1.597  -5.610  -0.748  0.00  0.00    -0.057 S 
ATOM      7  H   UNL     1       2.889  -4.257  -3.600  0.00  0.00    +0.168 HD
ENDROOT
BRANCH   1   8
ATOM      8  S   UNL     1       1.232  -2.441  -0.024  0.00  0.00    +0.102 S 
ATOM      9  O   UNL     1       2.143  -2.841   0.991  0.00  0.00    -0.146 OA
ATOM     10  O   UNL     1      -0.124  -2.865  -0.040  0.00  0.00    -0.146 OA
BRANCH   8  15
ATOM     11  C   UNL     1      -0.017   1.378   0.010  0.00  0.00    +0.002 A 
ATOM     12  C   UNL     1       1.171   2.086   0.002  0.00  0.00    +0.001 A 
ATOM     13  C   UNL     1       2.377   1.412  -0.013  0.00  0.00    +0.017 A 
ATOM     14  C   UNL     1       2.397   0.029  -0.021  0.00  0.00    +0.045 A 
ATOM     15  C   UNL     1       1.208  -0.679  -0.013  0.00  0.00    +0.126 A 
ATOM     16  C   UNL     1       0.002  -0.004   0.002  0.00  0.00    +0.030 A 
ATOM     17 BR   UNL     1       4.047  -0.894  -0.042  0.00  0.00    -0.048 Br
ENDBRANCH   8  15
ENDBRANCH   1   8
BRANCH   4  18
ATOM     18  C   UNL     1       3.156  -6.844  -4.126  0.00  0.00    +0.178 C 
BRANCH  18  19
ATOM     19  C   UNL     1       2.082  -6.977  -5.175  0.00  0.00    +0.362 C 
ATOM     20  O   UNL     1       0.961  -6.550  -4.957  0.00  0.00    -0.246 OA
ATOM     21  O   UNL     1       2.334  -7.512  -6.241  0.00  0.00    -0.246 OA
ENDBRANCH  18  19
ENDBRANCH   4  18
TORSDOF 4
