REMARK  Name = ZINC13283480
REMARK  3 active torsions:
REMARK  status: ('A' for Active; 'I' for Inactive)
REMARK    1  A    between atoms: C_6  and  C_7
REMARK    2  A    between atoms: C_8  and  C_15
REMARK    3  A    between atoms: C_12  and  N_13
REMARK                            x       y       z     vdW  Elec       q    Type
REMARK                         _______ _______ _______ _____ _____    ______ ____
ROOT
ATOM      1  C   UNL     1      -2.535   4.527   0.049  0.00  0.00    +0.044 A 
ATOM      2  C   UNL     1      -3.399   4.428   1.138  0.00  0.00    +0.066 A 
ATOM      3  N   UNL     1      -4.540   5.097   1.118  0.00  0.00    -0.218 NA
ATOM      4  C   UNL     1      -4.875   5.846   0.077  0.00  0.00    +0.215 A 
ATOM      5  N   UNL     1      -4.089   5.966  -0.983  0.00  0.00    -0.199 NA
ATOM      6  C   UNL     1      -2.924   5.331  -1.038  0.00  0.00    +0.129 A 
ATOM      7  N   UNL     1      -6.082   6.523   0.097  0.00  0.00    -0.327 N 
ATOM      8  H   UNL     1      -6.341   7.075  -0.657  0.00  0.00    +0.145 HD
ATOM      9  H   UNL     1      -6.668   6.446   0.866  0.00  0.00    +0.145 HD
ENDROOT
BRANCH   1  15
ATOM     10  C   UNL     1      -0.043   4.506   0.026  0.00  0.00    +0.010 A 
ATOM     11  C   UNL     1       1.157   3.824   0.011  0.00  0.00    +0.022 A 
ATOM     12  C   UNL     1       1.170   2.440   0.004  0.00  0.00    +0.059 A 
ATOM     13  C   UNL     1      -0.021   1.732   0.012  0.00  0.00    +0.060 A 
ATOM     14  C   UNL     1      -1.227   2.405   0.021  0.00  0.00    +0.030 A 
ATOM     15  C   UNL     1      -1.244   3.799   0.034  0.00  0.00    -0.011 A 
ATOM     16 CL   UNL     1       0.002  -0.004   0.002  0.00  0.00    -0.082 Cl
ATOM     17 CL   UNL     1       2.682   1.589  -0.015  0.00  0.00    -0.082 Cl
ENDBRANCH   1  15
BRANCH   6  18
ATOM     18  N   UNL     1      -2.106   5.458  -2.147  0.00  0.00    -0.343 N 
ATOM     19  H   UNL     1      -1.257   4.990  -2.179  0.00  0.00    +0.144 HD
ATOM     20  H   UNL     1      -2.382   6.014  -2.892  0.00  0.00    +0.144 HD
ENDBRANCH   6  18
BRANCH   2  21
ATOM     21  C   UNL     1      -3.035   3.576   2.326  0.00  0.00    +0.136 C 
ATOM     22 BR   UNL     1      -2.046   4.661   3.633  0.00  0.00    -0.085 Br
ENDBRANCH   2  21
TORSDOF 3
