REMARK  Name = ZINC16977394
REMARK  9 active torsions:
REMARK  status: ('A' for Active; 'I' for Inactive)
REMARK    1  A    between atoms: C_1  and  N_2
REMARK    2  A    between atoms: C_15  and  C_17
REMARK    3  A    between atoms: N_23  and  C_26
REMARK    4  A    between atoms: C_26  and  C_27
REMARK    5  A    between atoms: C_27  and  C_28
REMARK    6  A    between atoms: C_31  and  O_36
REMARK    7  A    between atoms: C_32  and  O_34
REMARK    8  A    between atoms: O_34  and  C_35
REMARK    9  A    between atoms: O_36  and  C_37
REMARK                            x       y       z     vdW  Elec       q    Type
REMARK                         _______ _______ _______ _____ _____    ______ ____
ROOT
ATOM      1  C   UNL     1       2.171  -0.117   1.099  0.00  0.00    +0.074 A 
ATOM      2  C   UNL     1       2.930  -0.491  -0.024  0.00  0.00    +0.260 A 
ATOM      3  N   UNL     1       4.232  -0.148  -0.090  0.00  0.00    -0.275 N 
ATOM      4  H   UNL     1       4.759  -0.405  -0.863  0.00  0.00    +0.173 HD
ATOM      5  C   UNL     1       4.807   0.547   0.908  0.00  0.00    +0.332 A 
ATOM      6  O   UNL     1       5.983   0.847   0.830  0.00  0.00    -0.246 OA
ATOM      7  N   UNL     1       4.100   0.915   1.992  0.00  0.00    -0.260 N 
ATOM      8  C   UNL     1       2.771   0.591   2.098  0.00  0.00    +0.262 A 
ATOM      9  O   UNL     1       2.064   0.967   3.185  0.00  0.00    -0.267 OA
ATOM     10  O   UNL     1       2.415  -1.121  -0.931  0.00  0.00    -0.267 OA
ENDROOT
BRANCH   1  25
ATOM     11  C   UNL     1      -0.018   1.465   0.010  0.00  0.00    -0.095 C 
ATOM     12  N   UNL     1       0.002  -0.004   0.002  0.00  0.00    +0.387 N 
ATOM     13  C   UNL     1      -1.377  -0.509  -0.005  0.00  0.00    -0.073 C 
ATOM     14  C   UNL     1      -1.372  -2.009  -0.333  0.00  0.00    +0.019 C 
ATOM     15  C   UNL     1      -0.363  -2.675   0.569  0.00  0.00    -0.022 A 
ATOM     16  C   UNL     1      -0.186  -4.076   0.876  0.00  0.00    +0.003 A 
ATOM     17  C   UNL     1      -0.854  -5.232   0.462  0.00  0.00    +0.010 A 
ATOM     18  C   UNL     1      -0.404  -6.426   0.969  0.00  0.00    +0.001 A 
ATOM     19  C   UNL     1       0.662  -6.495   1.852  0.00  0.00    +0.002 A 
ATOM     20  C   UNL     1       1.342  -5.367   2.279  0.00  0.00    +0.026 A 
ATOM     21  C   UNL     1       0.907  -4.141   1.780  0.00  0.00    +0.047 A 
ATOM     22  N   UNL     1       1.340  -2.863   1.989  0.00  0.00    -0.359 N 
ATOM     23  H   UNL     1       2.078  -2.611   2.566  0.00  0.00    +0.166 HD
ATOM     24  C   UNL     1       0.577  -1.991   1.261  0.00  0.00    +0.011 A 
ATOM     25  C   UNL     1       0.714  -0.488   1.195  0.00  0.00    +0.021 C 
ATOM     26  H   UNL     1       0.479  -0.327  -0.826  0.00  0.00    -0.081 HD
ENDBRANCH   1  25
BRANCH   7  27
ATOM     27  C   UNL     1       4.752   1.672   3.064  0.00  0.00    +0.134 C 
BRANCH  27  28
ATOM     28  C   UNL     1       4.621   3.170   2.784  0.00  0.00    +0.057 C 
BRANCH  28  29
ATOM     29  C   UNL     1       5.292   3.948   3.886  0.00  0.00    -0.042 A 
ATOM     30  C   UNL     1       4.570   4.323   5.004  0.00  0.00    +0.007 A 
ATOM     31  C   UNL     1       5.181   5.037   6.018  0.00  0.00    +0.049 A 
ATOM     32  C   UNL     1       6.520   5.378   5.916  0.00  0.00    +0.161 A 
ATOM     33  C   UNL     1       7.247   4.999   4.791  0.00  0.00    +0.162 A 
ATOM     34  C   UNL     1       6.630   4.280   3.780  0.00  0.00    +0.053 A 
BRANCH  33  35
ATOM     35  O   UNL     1       8.562   5.331   4.686  0.00  0.00    -0.491 OA
ATOM     36  C   UNL     1       9.245   4.910   3.504  0.00  0.00    +0.277 C 
ENDBRANCH  33  35
BRANCH  32  37
ATOM     37  O   UNL     1       7.122   6.080   6.912  0.00  0.00    -0.491 OA
ATOM     38  C   UNL     1       6.314   6.434   8.036  0.00  0.00    +0.277 C 
ENDBRANCH  32  37
ENDBRANCH  28  29
ENDBRANCH  27  28
ENDBRANCH   7  27
TORSDOF 6
