REMARK  Name = ZINC39541594
REMARK  6 active torsions:
REMARK  status: ('A' for Active; 'I' for Inactive)
REMARK    1  A    between atoms: C_7  and  C_10
REMARK    2  A    between atoms: C_10  and  C_11
REMARK    3  A    between atoms: C_11  and  N_12
REMARK    4  A    between atoms: C_13  and  C_15
REMARK    5  A    between atoms: N_21  and  C_24
REMARK    6  A    between atoms: C_24  and  C_25
REMARK                            x       y       z     vdW  Elec       q    Type
REMARK                         _______ _______ _______ _____ _____    ______ ____
ROOT
ATOM      1  C   UNL     1      -5.935   6.846  -2.651  0.00  0.00    +0.082 C 
ATOM      2  C   UNL     1      -7.295   7.100  -3.304  0.00  0.00    +0.020 C 
ATOM      3  C   UNL     1      -6.020   7.627  -3.961  0.00  0.00    -0.021 C 
ATOM      4  C   UNL     1      -5.535   6.936  -5.240  0.00  0.00    -0.011 C 
ATOM      5  C   UNL     1      -6.076   7.709  -6.447  0.00  0.00    -0.078 C 
ATOM      6  N   UNL     1      -5.653   9.111  -6.362  0.00  0.00    +0.382 N 
ATOM      7  C   UNL     1      -6.288   9.763  -5.210  0.00  0.00    -0.078 C 
ATOM      8  C   UNL     1      -5.762   9.137  -3.913  0.00  0.00    -0.011 C 
ATOM      9  H   UNL     1      -4.650   9.152  -6.258  0.00  0.00    -0.081 HD
ENDROOT
BRANCH   1  11
ATOM     10  N   UNL     1      -5.290   4.709  -1.585  0.00  0.00    -0.315 N 
ATOM     11  C   UNL     1      -5.385   5.444  -2.711  0.00  0.00    +0.217 C 
ATOM     12  O   UNL     1      -5.028   4.978  -3.772  0.00  0.00    -0.275 OA
ATOM     13  H   UNL     1      -5.575   5.083  -0.737  0.00  0.00    +0.149 HD
BRANCH  10  14
ATOM     14  C   UNL     1      -4.755   3.347  -1.643  0.00  0.00    +0.109 C 
BRANCH  14  15
ATOM     15  C   UNL     1      -4.756   2.739  -0.239  0.00  0.00    +0.056 C 
BRANCH  15  22
ATOM     16  C   UNL     1      -0.407   0.992  -0.137  0.00  0.00    +0.001 A 
ATOM     17  C   UNL     1      -0.378  -0.393  -0.221  0.00  0.00    +0.002 A 
ATOM     18  C   UNL     1      -1.547  -1.115  -0.322  0.00  0.00    +0.026 A 
ATOM     19  C   UNL     1      -2.769  -0.452  -0.340  0.00  0.00    +0.047 A 
ATOM     20  N   UNL     1      -4.077  -0.875  -0.430  0.00  0.00    -0.360 N 
ATOM     21  C   UNL     1      -4.918   0.203  -0.404  0.00  0.00    +0.087 A 
ATOM     22  C   UNL     1      -4.206   1.337  -0.299  0.00  0.00    -0.021 A 
ATOM     23  C   UNL     1      -2.793   0.952  -0.254  0.00  0.00    +0.003 A 
ATOM     24  C   UNL     1      -1.597   1.664  -0.147  0.00  0.00    +0.010 A 
ATOM     25  H   UNL     1      -4.359  -1.801  -0.501  0.00  0.00    +0.165 HD
ENDBRANCH  15  22
ENDBRANCH  14  15
ENDBRANCH  10  14
ENDBRANCH   1  11
BRANCH   6  26
ATOM     26  C   UNL     1      -6.041   9.813  -7.592  0.00  0.00    -0.047 C 
BRANCH  26  27
ATOM     27  C   UNL     1      -5.264   9.254  -8.756  0.00  0.00    -0.080 C 
ATOM     28  C   UNL     1      -5.798   8.308  -9.539  0.00  0.00    -0.000 C 
ATOM     29  C   UNL     1      -5.104   7.767 -10.628  0.00  0.00    +0.025 C 
ATOM     30  C   UNL     1      -3.820   8.154 -10.990  0.00  0.00    +0.060 C 
ATOM     31  C   UNL     1      -3.142   9.140 -10.250  0.00  0.00    +0.077 C 
ATOM     32  N   UNL     1      -1.934   9.443 -10.663  0.00  0.00    -0.199 NA
ATOM     33  S   UNL     1      -1.643   8.519 -11.948  0.00  0.00    +0.081 S 
ATOM     34  N   UNL     1      -3.071   7.663 -12.052  0.00  0.00    -0.268 N 
ATOM     35  C   UNL     1      -3.873   9.754  -9.061  0.00  0.00    +0.087 C 
ATOM     36  H   UNL     1      -3.320   6.985 -12.700  0.00  0.00    +0.162 HD
ENDBRANCH  26  27
ENDBRANCH   6  26
TORSDOF 6
