REMARK  Name = ZINC39454833
REMARK  8 active torsions:
REMARK  status: ('A' for Active; 'I' for Inactive)
REMARK    1  A    between atoms: C_2  and  C_3
REMARK    2  A    between atoms: C_3  and  N_4
REMARK    3  A    between atoms: C_5  and  C_19
REMARK    4  A    between atoms: C_9  and  S_10
REMARK    5  A    between atoms: S_10  and  C_11
REMARK    6  A    between atoms: C_11  and  C_12
REMARK    7  A    between atoms: N_22  and  C_25
REMARK    8  A    between atoms: C_25  and  C_26
REMARK                            x       y       z     vdW  Elec       q    Type
REMARK                         _______ _______ _______ _____ _____    ______ ____
ROOT
ATOM      1  N   UNL     1      -1.347  -1.533  -1.187  0.00  0.00    -0.285 N 
ATOM      2  C   UNL     1      -1.832  -1.086  -2.503  0.00  0.00    +0.180 C 
ATOM      3  N   UNL     1      -1.701  -2.282  -3.353  0.00  0.00    -0.246 N 
ATOM      4  N   UNL     1      -1.180  -3.289  -2.532  0.00  0.00    -0.163 NA
ATOM      5  C   UNL     1      -0.980  -2.863  -1.331  0.00  0.00    +0.176 C 
ATOM      6  H   UNL     1      -1.929  -2.356  -4.293  0.00  0.00    +0.170 HD
ENDROOT
BRANCH   2   7
ATOM      7  C   UNL     1      -0.963   0.054  -3.037  0.00  0.00    +0.025 C 
ATOM      8  C   UNL     1      -1.155   1.297  -2.163  0.00  0.00    -0.012 C 
ATOM      9  C   UNL     1      -0.346   2.456  -2.749  0.00  0.00    -0.078 C 
ATOM     10  N   UNL     1      -0.806   2.739  -4.113  0.00  0.00    +0.383 N 
ATOM     11  C   UNL     1      -0.559   1.577  -4.974  0.00  0.00    -0.078 C 
ATOM     12  C   UNL     1      -1.377   0.384  -4.474  0.00  0.00    -0.012 C 
ATOM     13  H   UNL     1      -1.795   2.941  -4.098  0.00  0.00    -0.081 HD
BRANCH  10  14
ATOM     14  C   UNL     1      -0.080   3.902  -4.642  0.00  0.00    -0.025 C 
BRANCH  14  15
ATOM     15  C   UNL     1      -0.637   4.269  -5.994  0.00  0.00    +0.000 A 
ATOM     16  H   UNL     1       0.422   3.017  -7.278  0.00  0.00    +0.166 HD
ATOM     17  C   UNL     1      -1.580   5.199  -6.211  0.00  0.00    +0.029 A 
ATOM     18  C   UNL     1      -1.823   5.233  -7.655  0.00  0.00    -0.000 A 
ATOM     19  C   UNL     1      -2.670   5.975  -8.480  0.00  0.00    +0.010 A 
ATOM     20  C   UNL     1      -2.659   5.765  -9.830  0.00  0.00    +0.001 A 
ATOM     21  C   UNL     1      -1.811   4.819 -10.389  0.00  0.00    +0.002 A 
ATOM     22  C   UNL     1      -0.967   4.075  -9.594  0.00  0.00    +0.026 A 
ATOM     23  C   UNL     1      -0.962   4.272  -8.217  0.00  0.00    +0.047 A 
ATOM     24  N   UNL     1      -0.251   3.709  -7.181  0.00  0.00    -0.360 N 
ENDBRANCH  14  15
ENDBRANCH  10  14
ENDBRANCH   2   7
BRANCH   1  25
ATOM     25  C   UNL     1      -1.262  -0.729   0.035  0.00  0.00    +0.135 C 
BRANCH  25  27
ATOM     26  C   UNL     1      -1.872  -1.620   2.224  0.00  0.00    +0.005 C 
ATOM     27  C   UNL     1      -2.268  -1.230   1.038  0.00  0.00    -0.016 C 
ENDBRANCH  25  27
ENDBRANCH   1  25
BRANCH   5  28
ATOM     28  S   UNL     1      -0.325  -3.853  -0.029  0.00  0.00    -0.084 S 
BRANCH  28  29
ATOM     29  C   UNL     1      -0.042  -5.468  -0.805  0.00  0.00    +0.112 C 
BRANCH  29  30
ATOM     30  C   UNL     1       0.525  -6.422   0.214  0.00  0.00    -0.036 A 
ATOM     31  C   UNL     1       1.894  -6.518   0.385  0.00  0.00    +0.004 A 
ATOM     32  C   UNL     1       2.416  -7.393   1.319  0.00  0.00    +0.002 A 
ATOM     33  C   UNL     1       1.569  -8.174   2.083  0.00  0.00    +0.020 A 
ATOM     34  C   UNL     1       0.199  -8.079   1.913  0.00  0.00    +0.041 A 
ATOM     35  C   UNL     1      -0.323  -7.198   0.982  0.00  0.00    +0.024 A 
ATOM     36 CL   UNL     1      -0.865  -9.059   2.872  0.00  0.00    -0.084 Cl
ENDBRANCH  29  30
ENDBRANCH  28  29
ENDBRANCH   5  28
TORSDOF 8
