REMARK  Name = ZINC39711123
REMARK  10 active torsions:
REMARK  status: ('A' for Active; 'I' for Inactive)
REMARK    1  A    between atoms: C_1  and  C_2
REMARK    2  A    between atoms: C_5  and  C_43
REMARK    3  A    between atoms: C_10  and  C_14
REMARK    4  A    between atoms: C_14  and  C_16
REMARK    5  A    between atoms: C_14  and  N_28
REMARK    6  A    between atoms: N_21  and  C_22
REMARK    7  A    between atoms: N_28  and  C_29
REMARK    8  A    between atoms: N_28  and  C_36
REMARK    9  A    between atoms: C_29  and  C_30
REMARK   10  A    between atoms: C_36  and  C_37
REMARK                            x       y       z     vdW  Elec       q    Type
REMARK                         _______ _______ _______ _____ _____    ______ ____
ROOT
ATOM      1  C   UNL     1      -0.990  -0.734   4.800  0.00  0.00    -0.010 C 
ENDROOT
BRANCH   1  11
ATOM      2  C   UNL     1       3.407   0.407   7.199  0.00  0.00    +0.044 C 
ATOM      3  C   UNL     1       3.439   0.663   5.714  0.00  0.00    -0.042 A 
ATOM      4  C   UNL     1       4.419   1.426   5.165  0.00  0.00    +0.004 A 
ATOM      5  C   UNL     1       4.464   1.673   3.793  0.00  0.00    +0.005 A 
ATOM      6  C   UNL     1       3.543   1.175   2.927  0.00  0.00    -0.029 A 
ATOM      7  C   UNL     1       2.486   0.372   3.393  0.00  0.00    +0.043 A 
ATOM      8  N   UNL     1       1.589  -0.112   2.535  0.00  0.00    -0.284 N 
ATOM      9  C   UNL     1       0.572  -0.872   2.905  0.00  0.00    +0.223 C 
ATOM     10  O   UNL     1      -0.216  -1.285   2.075  0.00  0.00    -0.275 OA
ATOM     11  C   UNL     1       0.392  -1.226   4.364  0.00  0.00    +0.088 C 
ATOM     12  C   UNL     1       1.410  -0.678   5.345  0.00  0.00    -0.006 C 
ATOM     13  C   UNL     1       2.417   0.089   4.838  0.00  0.00    -0.004 A 
ATOM     14  C   UNL     1       3.655   1.485   1.457  0.00  0.00    +0.045 C 
ATOM     15  H   UNL     1       1.686   0.103   1.594  0.00  0.00    +0.155 HD
ENDBRANCH   1  11
BRANCH   1  16
ATOM     16  C   UNL     1      -2.063  -1.674   4.247  0.00  0.00    +0.183 C 
ATOM     17  N   UNL     1      -1.532  -3.042   4.097  0.00  0.00    -0.229 N 
ATOM     18  N   UNL     1      -1.615  -3.337   2.731  0.00  0.00    -0.064 NA
ATOM     19  N   UNL     1      -2.087  -2.413   2.075  0.00  0.00    -0.061 NA
ATOM     20  N   UNL     1      -2.421  -1.302   2.865  0.00  0.00    -0.213 N 
ATOM     21  H   UNL     1      -1.193  -3.618   4.800  0.00  0.00    +0.172 HD
BRANCH  20  22
ATOM     22  C   UNL     1      -3.005  -0.036   2.415  0.00  0.00    +0.096 C 
ATOM     23  C   UNL     1      -4.408  -0.289   1.861  0.00  0.00    +0.024 C 
ATOM     24  C   UNL     1      -5.017   1.033   1.390  0.00  0.00    +0.002 C 
ATOM     25  C   UNL     1      -4.137   1.638   0.294  0.00  0.00    +0.000 C 
ATOM     26  C   UNL     1      -2.734   1.892   0.849  0.00  0.00    +0.002 C 
ATOM     27  C   UNL     1      -2.125   0.569   1.319  0.00  0.00    +0.024 C 
ENDBRANCH  20  22
ENDBRANCH   1  16
BRANCH   1  28
ATOM     28  N   UNL     1      -1.063  -0.716   6.267  0.00  0.00    +0.389 N 
ATOM     29  H   UNL     1      -0.211  -0.325   6.641  0.00  0.00    -0.081 HD
BRANCH  28  30
ATOM     30  C   UNL     1      -2.205   0.105   6.690  0.00  0.00    -0.041 C 
BRANCH  30  31
ATOM     31  C   UNL     1      -1.954   1.544   6.321  0.00  0.00    -0.046 A 
ATOM     32  C   UNL     1      -1.075   2.317   7.065  0.00  0.00    +0.005 A 
ATOM     33  C   UNL     1      -0.874   3.636   6.689  0.00  0.00    +0.020 A 
ATOM     34  C   UNL     1      -1.552   4.134   5.592  0.00  0.00    +0.111 A 
ATOM     35  N   UNL     1      -2.381   3.370   4.908  0.00  0.00    -0.263 NA
ATOM     36  C   UNL     1      -2.592   2.110   5.233  0.00  0.00    +0.112 A 
ENDBRANCH  30  31
ENDBRANCH  28  30
BRANCH  28  37
ATOM     37  C   UNL     1      -1.234  -2.087   6.766  0.00  0.00    -0.046 C 
BRANCH  37  38
ATOM     38  C   UNL     1       0.130  -2.776   6.841  0.00  0.00    +0.102 C 
ATOM     39  C   UNL     1      -0.051  -4.252   7.255  0.00  0.00    +0.032 C 
ATOM     40  C   UNL     1       1.151  -4.476   8.213  0.00  0.00    +0.030 C 
ATOM     41  C   UNL     1       1.260  -3.081   8.879  0.00  0.00    +0.160 C 
ATOM     42  O   UNL     1       0.941  -2.141   7.837  0.00  0.00    -0.378 OA
ENDBRANCH  37  38
ENDBRANCH  28  37
ENDBRANCH   1  28
TORSDOF 8
