REMARK  Name = ZINC66978614
REMARK  8 active torsions:
REMARK  status: ('A' for Active; 'I' for Inactive)
REMARK    1  A    between atoms: C_1  and  C_2
REMARK    2  A    between atoms: C_2  and  C_4
REMARK    3  A    between atoms: C_2  and  N_13
REMARK    4  A    between atoms: C_4  and  C_6
REMARK    5  A    between atoms: C_4  and  N_7
REMARK    6  A    between atoms: N_16  and  C_17
REMARK    7  A    between atoms: C_17  and  C_18
REMARK    8  A    between atoms: C_18  and  O_28
REMARK                            x       y       z     vdW  Elec       q    Type
REMARK                         _______ _______ _______ _____ _____    ______ ____
ROOT
ATOM      1  N   UNL     1       0.904  -0.767  -1.150  0.00  0.00    -0.295 N 
ATOM      2  C   UNL     1       0.416  -0.641  -2.400  0.00  0.00    +0.300 C 
ATOM      3  O   UNL     1      -0.726  -0.263  -2.571  0.00  0.00    -0.253 OA
ATOM      4  N   UNL     1       1.195  -0.935  -3.460  0.00  0.00    -0.296 N 
ATOM      5  H   UNL     1       1.816  -1.069  -1.013  0.00  0.00    +0.151 HD
ATOM      6  H   UNL     1       2.107  -1.237  -3.323  0.00  0.00    +0.150 HD
ENDROOT
BRANCH   1   8
ATOM      7  C   UNL     1       0.126   1.054   0.284  0.00  0.00    +0.029 C 
ATOM      8  C   UNL     1       0.058  -0.448   0.002  0.00  0.00    +0.088 C 
BRANCH   8   9
ATOM      9  C   UNL     1       0.552  -1.220   1.228  0.00  0.00    +0.074 C 
ATOM     10  C   UNL     1      -0.415  -1.000   2.393  0.00  0.00    +0.026 C 
BRANCH   9  11
ATOM     11  N   UNL     1       0.618  -2.652   0.910  0.00  0.00    -0.294 NA
ATOM     12  C   UNL     1      -0.723  -3.200   0.662  0.00  0.00    +0.113 C 
ATOM     13  C   UNL     1      -0.603  -4.677   0.277  0.00  0.00    +0.175 C 
ATOM     14  O   UNL     1       0.086  -5.380   1.314  0.00  0.00    -0.377 OA
ATOM     15  C   UNL     1       1.396  -4.873   1.582  0.00  0.00    +0.175 C 
ATOM     16  C   UNL     1       1.296  -3.398   1.980  0.00  0.00    +0.113 C 
ENDBRANCH   9  11
ENDBRANCH   8   9
ENDBRANCH   1   8
BRANCH   4  17
ATOM     17  C   UNL     1       0.665  -0.799  -4.819  0.00  0.00    +0.145 C 
BRANCH  17  18
ATOM     18  C   UNL     1       1.781  -1.064  -5.831  0.00  0.00    +0.107 C 
ATOM     19  C   UNL     1       2.923  -0.079  -5.591  0.00  0.00    +0.041 C 
ATOM     20  C   UNL     1       3.928  -0.214  -6.742  0.00  0.00    +0.008 C 
ATOM     21  C   UNL     1       3.285   0.344  -8.010  0.00  0.00    +0.035 C 
ATOM     22  C   UNL     1       1.926  -0.267  -8.227  0.00  0.00    -0.041 A 
ATOM     23  C   UNL     1       1.233  -0.911  -7.226  0.00  0.00    -0.011 A 
ATOM     24  C   UNL     1      -0.020  -1.447  -7.492  0.00  0.00    +0.007 A 
ATOM     25  C   UNL     1      -0.574  -1.344  -8.751  0.00  0.00    +0.000 A 
ATOM     26  C   UNL     1       0.122  -0.701  -9.757  0.00  0.00    +0.000 A 
ATOM     27  C   UNL     1       1.367  -0.166  -9.495  0.00  0.00    +0.004 A 
BRANCH  18  28
ATOM     28  O   UNL     1       2.265  -2.398  -5.659  0.00  0.00    -0.382 OA
ATOM     29  H   UNL     1       1.592  -3.080  -5.788  0.00  0.00    +0.211 HD
ENDBRANCH  18  28
ENDBRANCH  17  18
ENDBRANCH   4  17
TORSDOF 6
