REMARK  Name = ZINC09242429
REMARK  3 active torsions:
REMARK  status: ('A' for Active; 'I' for Inactive)
REMARK    1  A    between atoms: C_1  and  C_2
REMARK    2  A    between atoms: N_20  and  C_23
REMARK    3  A    between atoms: C_27  and  N_29
REMARK                            x       y       z     vdW  Elec       q    Type
REMARK                         _______ _______ _______ _____ _____    ______ ____
ROOT
ATOM      1  C   UNL     1      -3.169   5.593   3.563  0.00  0.00    +0.044 C 
ATOM      2  C   UNL     1      -2.855   5.828   2.108  0.00  0.00    -0.050 A 
ATOM      3  C   UNL     1      -2.941   7.103   1.577  0.00  0.00    +0.005 A 
ATOM      4  C   UNL     1      -2.652   7.320   0.246  0.00  0.00    +0.024 A 
ATOM      5  C   UNL     1      -2.272   6.260  -0.573  0.00  0.00    +0.036 A 
ATOM      6  C   UNL     1      -2.201   4.978  -0.033  0.00  0.00    -0.027 A 
ATOM      7  C   UNL     1      -2.480   4.771   1.300  0.00  0.00    +0.008 A 
ATOM      8  C   UNL     1      -1.780   4.075  -1.159  0.00  0.00    +0.053 C 
ATOM      9  C   UNL     1      -0.605   3.243  -0.871  0.00  0.00    +0.089 C 
ATOM     10  C   UNL     1      -1.226   2.099   0.018  0.00  0.00    +0.074 C 
ATOM     11  C   UNL     1      -2.424   1.764  -0.860  0.00  0.00    -0.054 C 
ATOM     12  C   UNL     1      -4.136   3.451  -0.909  0.00  0.00    -0.076 C 
ATOM     13  C   UNL     1      -4.808   2.107  -0.529  0.00  0.00    -0.020 C 
ATOM     14  C   UNL     1      -3.602   1.298   0.018  0.00  0.00    -0.016 C 
ATOM     15  C   UNL     1      -0.014   1.208   0.009  0.00  0.00    +0.228 C 
ATOM     16  O   UNL     1       0.002  -0.004   0.002  0.00  0.00    -0.275 OA
ATOM     17  N   UNL     1       1.064   2.047   0.003  0.00  0.00    -0.210 N 
ATOM     18  C   UNL     1       0.732   3.334  -0.338  0.00  0.00    +0.229 C 
ATOM     19  O   UNL     1       1.413   4.330  -0.216  0.00  0.00    -0.275 OA
ATOM     20  C   UNL     1      -1.609   4.995  -2.344  0.00  0.00    +0.212 C 
ATOM     21  O   UNL     1      -1.257   4.678  -3.461  0.00  0.00    -0.277 OA
ATOM     22  N   UNL     1      -1.921   6.235  -1.924  0.00  0.00    -0.286 N 
ATOM     23  H   UNL     1      -1.904   7.020  -2.494  0.00  0.00    +0.155 HD
ATOM     24  N   UNL     1      -2.819   3.045  -1.467  0.00  0.00    +0.395 N 
ATOM     25  H   UNL     1      -2.899   2.935  -2.485  0.00  0.00    -0.079 HD
ENDROOT
BRANCH  17  26
ATOM     26  C   UNL     1       2.369   1.636   0.311  0.00  0.00    +0.046 A 
ATOM     27  C   UNL     1       3.411   2.553   0.281  0.00  0.00    +0.025 A 
ATOM     28  C   UNL     1       4.696   2.146   0.585  0.00  0.00    +0.024 A 
ATOM     29  C   UNL     1       4.944   0.826   0.918  0.00  0.00    +0.071 A 
ATOM     30  C   UNL     1       3.907  -0.089   0.948  0.00  0.00    +0.146 A 
ATOM     31  C   UNL     1       2.620   0.314   0.651  0.00  0.00    +0.058 A 
ATOM     32 CL   UNL     1       6.560   0.318   1.298  0.00  0.00    -0.081 Cl
BRANCH  30  33
ATOM     33  N   UNL     1       4.176  -1.500   1.304  0.00  0.00    +0.058 N 
ATOM     34  O   UNL     1       3.264  -2.307   1.331  0.00  0.00    -0.126 OA
ATOM     35  O   UNL     1       5.310  -1.855   1.571  0.00  0.00    -0.126 OA
ENDBRANCH  30  33
ENDBRANCH  17  26
TORSDOF 2
