REMARK  Name = ZINC13512470
REMARK  13 active torsions:
REMARK  status: ('A' for Active; 'I' for Inactive)
REMARK    1  A    between atoms: C_1  and  O_2
REMARK    2  A    between atoms: O_2  and  C_3
REMARK    3  A    between atoms: C_6  and  C_11
REMARK    4  A    between atoms: C_8  and  O_9
REMARK    5  A    between atoms: O_9  and  C_10
REMARK    6  A    between atoms: C_11  and  C_12
REMARK    7  A    between atoms: C_12  and  N_13
REMARK    8  A    between atoms: N_13  and  C_14
REMARK    9  A    between atoms: C_14  and  C_15
REMARK   10  A    between atoms: C_15  and  C_27
REMARK   11  A    between atoms: N_21  and  C_24
REMARK   12  A    between atoms: C_24  and  C_25
REMARK   13  A    between atoms: C_27  and  C_28
REMARK                            x       y       z     vdW  Elec       q    Type
REMARK                         _______ _______ _______ _____ _____    ______ ____
ROOT
ATOM      1  C   UNL     1       6.745  -4.253  -6.107  0.00  0.00    +0.113 C 
ATOM      2  C   UNL     1       6.174  -5.651  -6.246  0.00  0.00    +0.234 C 
ATOM      3  O   UNL     1       6.244  -6.452  -5.339  0.00  0.00    -0.274 OA
ATOM      4  N   UNL     1       5.586  -5.971  -7.418  0.00  0.00    -0.239 N 
ATOM      5  C   UNL     1       5.501  -5.099  -8.430  0.00  0.00    +0.315 C 
ATOM      6  O   UNL     1       4.954  -5.470  -9.449  0.00  0.00    -0.252 OA
ATOM      7  N   UNL     1       5.974  -3.847  -8.400  0.00  0.00    -0.221 N 
ATOM      8  C   UNL     1       6.596  -3.344  -7.312  0.00  0.00    +0.237 C 
ATOM      9  O   UNL     1       7.019  -2.208  -7.300  0.00  0.00    -0.274 OA
ATOM     10  H   UNL     1       5.213  -6.859  -7.531  0.00  0.00    +0.159 HD
ENDROOT
BRANCH   1  11
ATOM     11  C   UNL     1       6.064  -3.577  -4.915  0.00  0.00    -0.057 C 
BRANCH  11  12
ATOM     12  N   UNL     1       4.642  -3.368  -5.217  0.00  0.00    +0.380 N 
ATOM     13  H   UNL     1       4.202  -4.258  -5.396  0.00  0.00    -0.086 HD
ATOM     14  H   UNL     1       4.555  -2.779  -6.032  0.00  0.00    -0.086 HD
BRANCH  12  15
ATOM     15  C   UNL     1       3.989  -2.719  -4.072  0.00  0.00    -0.078 C 
BRANCH  15  16
ATOM     16  C   UNL     1       2.507  -2.501  -4.386  0.00  0.00    +0.016 C 
BRANCH  16  20
ATOM     17  C   UNL     1       0.606  -0.608  -1.056  0.00  0.00    +0.161 A 
ATOM     18  C   UNL     1       1.173   0.159  -2.062  0.00  0.00    +0.049 A 
ATOM     19  C   UNL     1       1.787  -0.456  -3.137  0.00  0.00    +0.007 A 
ATOM     20  C   UNL     1       1.837  -1.836  -3.212  0.00  0.00    -0.045 A 
ATOM     21  C   UNL     1       1.273  -2.606  -2.212  0.00  0.00    +0.053 A 
ATOM     22  C   UNL     1       0.662  -1.996  -1.129  0.00  0.00    +0.162 A 
BRANCH  17  24
ATOM     23  C   UNL     1      -0.017   1.425   0.010  0.00  0.00    +0.277 C 
ATOM     24  O   UNL     1       0.002  -0.004   0.002  0.00  0.00    -0.491 OA
ENDBRANCH  17  24
BRANCH  22  25
ATOM     25  O   UNL     1       0.112  -2.753  -0.142  0.00  0.00    -0.491 OA
ATOM     26  C   UNL     1       0.206  -4.171  -0.283  0.00  0.00    +0.277 C 
ENDBRANCH  22  25
ENDBRANCH  16  20
ENDBRANCH  15  16
ENDBRANCH  12  15
ENDBRANCH  11  12
ENDBRANCH   1  11
BRANCH   7  27
ATOM     27  C   UNL     1       5.812  -2.998  -9.583  0.00  0.00    +0.144 C 
BRANCH  27  28
ATOM     28  C   UNL     1       4.509  -2.248  -9.488  0.00  0.00    -0.015 C 
ATOM     29  C   UNL     1       4.497  -0.941  -9.579  0.00  0.00    +0.005 C 
ENDBRANCH  27  28
ENDBRANCH   7  27
BRANCH   1  30
ATOM     30  C   UNL     1       8.236  -4.381  -5.790  0.00  0.00    +0.059 C 
BRANCH  30  31
ATOM     31  C   UNL     1       8.940  -5.044  -6.945  0.00  0.00    -0.042 A 
ATOM     32  C   UNL     1       9.060  -6.421  -6.982  0.00  0.00    +0.007 A 
ATOM     33  C   UNL     1       9.704  -7.034  -8.040  0.00  0.00    +0.050 A 
ATOM     34  C   UNL     1      10.233  -6.268  -9.067  0.00  0.00    +0.166 A 
ATOM     35  C   UNL     1      10.113  -4.881  -9.030  0.00  0.00    +0.166 A 
ATOM     36  C   UNL     1       9.460  -4.274  -7.969  0.00  0.00    +0.053 A 
ATOM     37  O   UNL     1      10.708  -4.362 -10.143  0.00  0.00    -0.453 OA
ATOM     38  C   UNL     1      11.549  -5.412 -10.655  0.00  0.00    +0.466 C 
ATOM     39  O   UNL     1      10.904  -6.618 -10.204  0.00  0.00    -0.453 OA
ENDBRANCH  30  31
ENDBRANCH   1  30
TORSDOF 11
