REMARK  Name = ZINC51652500
REMARK  5 active torsions:
REMARK  status: ('A' for Active; 'I' for Inactive)
REMARK    1  A    between atoms: C_6  and  C_10
REMARK    2  A    between atoms: C_11  and  C_12
REMARK    3  A    between atoms: C_14  and  C_15
REMARK    4  A    between atoms: C_14  and  C_17
REMARK    5  A    between atoms: N_19  and  C_20
REMARK                            x       y       z     vdW  Elec       q    Type
REMARK                         _______ _______ _______ _____ _____    ______ ____
ROOT
ATOM      1  C   UNL     1      -2.453  -2.429  -1.879  0.00  0.00    +0.201 C 
ATOM      2  O   UNL     1      -1.133  -2.701  -1.774  0.00  0.00    -0.286 OA
ATOM      3  C   UNL     1      -3.196  -2.955  -2.949  0.00  0.00    +0.160 C 
ENDROOT
BRANCH   3   4
ATOM      4  C   UNL     1      -4.600  -2.761  -3.001  0.00  0.00    +0.258 C 
ATOM      5  O   UNL     1      -5.146  -2.042  -2.184  0.00  0.00    -0.269 OA
ATOM      6  N   UNL     1      -5.330  -3.372  -3.955  0.00  0.00    -0.308 N 
ATOM      7  H   UNL     1      -4.895  -3.945  -4.606  0.00  0.00    +0.149 HD
BRANCH   6   8
ATOM      8  C   UNL     1      -6.780  -3.171  -4.009  0.00  0.00    +0.073 C 
ATOM      9  C   UNL     1      -7.490  -4.204  -3.110  0.00  0.00    +0.022 C 
ATOM     10  C   UNL     1      -8.779  -4.564  -3.890  0.00  0.00    +0.002 C 
ATOM     11  C   UNL     1      -8.296  -4.577  -5.362  0.00  0.00    +0.002 C 
ATOM     12  C   UNL     1      -7.292  -3.409  -5.441  0.00  0.00    +0.022 C 
ENDBRANCH   6   8
ENDBRANCH   3   4
BRANCH   1  14
ATOM     13  C   UNL     1      -2.332  -1.017   0.063  0.00  0.00    +0.033 C 
ATOM     14  C   UNL     1      -3.079  -1.622  -0.923  0.00  0.00    +0.054 C 
BRANCH  13  20
ATOM     15  C   UNL     1      -0.215  -0.013  -2.226  0.00  0.00    +0.101 A 
ATOM     16  C   UNL     1       0.862   0.280  -2.955  0.00  0.00    +0.067 A 
ATOM     17  S   UNL     1       2.183  -0.326  -1.916  0.00  0.00    -0.058 S 
ATOM     18  C   UNL     1       1.174  -0.927  -0.580  0.00  0.00    +0.179 A 
ATOM     19  N   UNL     1      -0.091  -0.632  -1.004  0.00  0.00    -0.292 N 
ATOM     20  C   UNL     1      -0.930  -1.092   0.028  0.00  0.00    +0.085 A 
ATOM     21  C   UNL     1      -0.106  -1.634   1.004  0.00  0.00    +0.156 A 
ATOM     22  N   UNL     1       1.150  -1.510   0.593  0.00  0.00    -0.209 NA
ATOM     23 CL   UNL     1      -0.626  -2.347   2.499  0.00  0.00    -0.060 Cl
ENDBRANCH  13  20
ENDBRANCH   1  14
BRANCH   3  24
ATOM     24  C   UNL     1      -2.536  -3.689  -3.987  0.00  0.00    +0.108 C 
ATOM     25  N   UNL     1      -2.012  -4.270  -4.810  0.00  0.00    -0.191 NA
ENDBRANCH   3  24
TORSDOF 5
