REMARK  Name = ZINC55575135
REMARK  6 active torsions:
REMARK  status: ('A' for Active; 'I' for Inactive)
REMARK    1  A    between atoms: C_1  and  C_2
REMARK    2  A    between atoms: C_5  and  C_8
REMARK    3  A    between atoms: C_9  and  S_10
REMARK    4  A    between atoms: S_10  and  N_13
REMARK    5  A    between atoms: N_13  and  N_14
REMARK    6  A    between atoms: C_15  and  C_17
REMARK                            x       y       z     vdW  Elec       q    Type
REMARK                         _______ _______ _______ _____ _____    ______ ____
ROOT
ATOM      1  N   UNL     1      -1.113  -4.617   3.531  0.00  0.00    -0.108 NA
ATOM      2  H   UNL     1      -1.814  -4.008   3.812  0.00  0.00    +0.172 HD
ENDROOT
BRANCH   1   3
ATOM      3  N   UNL     1      -1.185  -5.974   3.871  0.00  0.00    -0.227 N 
ATOM      4  C   UNL     1      -1.323  -6.339   5.161  0.00  0.00    +0.275 C 
ATOM      5  O   UNL     1      -1.384  -5.490   6.031  0.00  0.00    -0.267 OA
ATOM      6  H   UNL     1      -1.137  -6.651   3.178  0.00  0.00    +0.171 HD
BRANCH   4   7
ATOM      7  C   UNL     1      -1.399  -7.760   5.517  0.00  0.00    +0.104 A 
ATOM      8  C   UNL     1      -1.545  -8.275   6.788  0.00  0.00    +0.047 A 
ATOM      9  C   UNL     1      -1.571  -9.668   6.666  0.00  0.00    +0.036 A 
ATOM     10  C   UNL     1      -1.444  -9.973   5.352  0.00  0.00    +0.098 A 
ATOM     11  N   UNL     1      -1.344  -8.821   4.643  0.00  0.00    -0.356 N 
ATOM     12  H   UNL     1      -1.248  -8.757   3.680  0.00  0.00    +0.166 HD
ATOM     13 BR   UNL     1      -1.753 -10.907   8.083  0.00  0.00    -0.049 Br
ENDBRANCH   4   7
ENDBRANCH   1   3
BRANCH   1  14
ATOM     14  S   UNL     1       0.171  -4.051   2.652  0.00  0.00    +0.067 S 
ATOM     15  O   UNL     1       1.346  -4.449   3.346  0.00  0.00    -0.152 OA
ATOM     16  O   UNL     1      -0.111  -2.692   2.349  0.00  0.00    -0.152 OA
BRANCH  14  18
ATOM     17  C   UNL     1       0.017  -4.255  -0.019  0.00  0.00    +0.028 C 
ATOM     18  C   UNL     1       0.174  -4.918   1.118  0.00  0.00    +0.155 C 
BRANCH  17  23
ATOM     19  C   UNL     1       0.794   1.444  -0.156  0.00  0.00    +0.044 C 
ATOM     20  C   UNL     1       0.590  -0.048  -0.120  0.00  0.00    -0.050 A 
ATOM     21  C   UNL     1      -0.490  -0.612  -0.775  0.00  0.00    +0.004 A 
ATOM     22  C   UNL     1      -0.682  -1.978  -0.746  0.00  0.00    +0.008 A 
ATOM     23  C   UNL     1       0.217  -2.791  -0.054  0.00  0.00    -0.024 A 
ATOM     24  C   UNL     1       1.304  -2.216   0.604  0.00  0.00    +0.008 A 
ATOM     25  C   UNL     1       1.488  -0.850   0.563  0.00  0.00    +0.004 A 
ENDBRANCH  17  23
ENDBRANCH  14  18
ENDBRANCH   1  14
TORSDOF 5
