REMARK  Name = ZINC39664833
REMARK  13 active torsions:
REMARK  status: ('A' for Active; 'I' for Inactive)
REMARK    1  A    between atoms: C_1  and  C_2
REMARK    2  A    between atoms: C_2  and  C_3
REMARK    3  A    between atoms: C_3  and  C_4
REMARK    4  A    between atoms: C_4  and  C_5
REMARK    5  A    between atoms: C_5  and  C_7
REMARK    6  A    between atoms: C_5  and  C_8
REMARK    7  A    between atoms: C_12  and  C_21
REMARK    8  A    between atoms: N_23  and  C_24
REMARK    9  A    between atoms: C_24  and  C_26
REMARK   10  A    between atoms: C_24  and  C_30
REMARK   11  A    between atoms: C_26  and  N_27
REMARK   12  A    between atoms: N_27  and  C_28
REMARK   13  A    between atoms: N_27  and  C_29
REMARK                            x       y       z     vdW  Elec       q    Type
REMARK                         _______ _______ _______ _____ _____    ______ ____
ROOT
ATOM      1  C   UNL     1       2.283  -2.305  -4.911  0.00  0.00    +0.218 C 
ATOM      2  O   UNL     1       1.333  -2.127  -4.179  0.00  0.00    -0.275 OA
ATOM      3  N   UNL     1       2.680  -3.558  -5.209  0.00  0.00    -0.300 N 
ATOM      4  C   UNL     1       3.878  -3.973  -5.975  0.00  0.00    +0.121 C 
ATOM      5  C   UNL     1       4.402  -5.224  -5.233  0.00  0.00    +0.100 C 
ATOM      6  C   UNL     1       3.175  -5.784  -4.494  0.00  0.00    -0.004 C 
ATOM      7  C   UNL     1       2.020  -4.832  -4.837  0.00  0.00    +0.115 C 
ATOM      8  C   UNL     1       3.421  -5.784  -2.988  0.00  0.00    -0.010 C 
ATOM      9  C   UNL     1       2.211  -6.397  -2.278  0.00  0.00    -0.082 C 
ATOM     10  N   UNL     1       2.002  -7.768  -2.760  0.00  0.00    +0.379 N 
ATOM     11  C   UNL     1       1.675  -7.752  -4.191  0.00  0.00    -0.082 C 
ATOM     12  C   UNL     1       2.862  -7.195  -4.982  0.00  0.00    -0.010 C 
ATOM     13  H   UNL     1       2.843  -8.306  -2.615  0.00  0.00    -0.086 HD
ATOM     14  H   UNL     1       1.243  -8.191  -2.248  0.00  0.00    -0.086 HD
ENDROOT
BRANCH   5  15
ATOM     15  C   UNL     1       5.479  -4.839  -4.252  0.00  0.00    +0.219 C 
ATOM     16  O   UNL     1       6.191  -5.693  -3.767  0.00  0.00    -0.275 OA
ATOM     17  N   UNL     1       5.651  -3.546  -3.913  0.00  0.00    -0.310 N 
ATOM     18  H   UNL     1       5.035  -2.872  -4.242  0.00  0.00    +0.149 HD
BRANCH  17  19
ATOM     19  C   UNL     1       6.768  -3.158  -3.048  0.00  0.00    +0.087 C 
BRANCH  19  20
ATOM     20  C   UNL     1       6.418  -1.887  -2.316  0.00  0.00    -0.029 A 
ATOM     21  C   UNL     1       5.738  -0.878  -2.971  0.00  0.00    +0.005 A 
ATOM     22  C   UNL     1       5.417   0.288  -2.300  0.00  0.00    +0.000 A 
ATOM     23  C   UNL     1       5.777   0.443  -0.974  0.00  0.00    +0.000 A 
ATOM     24  C   UNL     1       6.457  -0.567  -0.319  0.00  0.00    +0.000 A 
ATOM     25  C   UNL     1       6.773  -1.734  -0.989  0.00  0.00    +0.005 A 
ENDBRANCH  19  20
BRANCH  19  26
ATOM     26  C   UNL     1       8.017  -2.928  -3.900  0.00  0.00    -0.052 C 
BRANCH  26  27
ATOM     27  N   UNL     1       9.183  -2.755  -3.023  0.00  0.00    +0.377 N 
ATOM     28  C   UNL     1       9.487  -4.028  -2.355  0.00  0.00    -0.097 C 
ATOM     29  C   UNL     1      10.340  -2.334  -3.824  0.00  0.00    -0.097 C 
ATOM     30  H   UNL     1       8.980  -2.051  -2.329  0.00  0.00    -0.083 HD
ENDBRANCH  26  27
ENDBRANCH  19  26
ENDBRANCH  17  19
ENDBRANCH   5  15
BRANCH   1  31
ATOM     31  C   UNL     1       3.019  -1.124  -5.489  0.00  0.00    +0.072 C 
ATOM     32  C   UNL     1       2.993   0.033  -4.489  0.00  0.00    +0.017 C 
BRANCH  31  33
ATOM     33  C   UNL     1       2.343  -0.689  -6.791  0.00  0.00    +0.012 C 
BRANCH  33  34
ATOM     34  C   UNL     1       3.162   0.428  -7.442  0.00  0.00    +0.000 C 
BRANCH  34  36
ATOM     35  C   UNL     1       3.304   1.980  -9.395  0.00  0.00    +0.004 C 
ATOM     36  C   UNL     1       2.486   0.864  -8.744  0.00  0.00    -0.003 C 
ENDBRANCH  34  36
ENDBRANCH  33  34
ENDBRANCH  31  33
ENDBRANCH   1  31
TORSDOF 9
