REMARK  Name = ZINC43214705
REMARK  4 active torsions:
REMARK  status: ('A' for Active; 'I' for Inactive)
REMARK    1  A    between atoms: C_4  and  C_10
REMARK    2  A    between atoms: C_5  and  C_7
REMARK    3  A    between atoms: C_10  and  O_12
REMARK    4  A    between atoms: O_12  and  C_13
REMARK                            x       y       z     vdW  Elec       q    Type
REMARK                         _______ _______ _______ _____ _____    ______ ____
ROOT
ATOM      1  C   UNL     1       3.624  -0.827  -0.013  0.00  0.00    +0.340 C 
ATOM      2  O   UNL     1       3.576  -2.037   0.077  0.00  0.00    -0.245 OA
ENDROOT
BRANCH   1   6
ATOM      3  C   UNL     1       0.030   1.457  -0.003  0.00  0.00    +0.001 A 
ATOM      4  C   UNL     1       1.258   2.093   0.007  0.00  0.00    +0.001 A 
ATOM      5  C   UNL     1       2.429   1.357   0.003  0.00  0.00    +0.016 A 
ATOM      6  C   UNL     1       2.375  -0.034  -0.009  0.00  0.00    +0.073 A 
ATOM      7  C   UNL     1       1.125  -0.682  -0.018  0.00  0.00    +0.077 A 
ATOM      8  C   UNL     1      -0.043   0.077  -0.015  0.00  0.00    +0.016 A 
BRANCH   7   9
ATOM      9  C   UNL     1       1.053  -2.157  -0.032  0.00  0.00    +0.387 C 
ATOM     10  O   UNL     1       1.115  -2.763  -1.092  0.00  0.00    -0.241 OA
ATOM     11  O   UNL     1       0.931  -2.773   1.018  0.00  0.00    -0.241 OA
ENDBRANCH   7   9
ENDBRANCH   1   6
BRANCH   1  12
ATOM     12  O   UNL     1       4.815  -0.206  -0.116  0.00  0.00    -0.457 OA
BRANCH  12  13
ATOM     13  C   UNL     1       5.980  -1.033  -0.114  0.00  0.00    +0.184 C 
ATOM     14  C   UNL     1       6.329  -1.430  -1.550  0.00  0.00    +0.049 C 
ATOM     15  C   UNL     1       7.813  -1.830  -1.622  0.00  0.00    -0.003 C 
ATOM     16  C   UNL     1       8.705  -0.622  -1.401  0.00  0.00    +0.005 C 
ATOM     17  C   UNL     1       7.970   0.416  -0.553  0.00  0.00    +0.011 C 
ATOM     18  C   UNL     1       7.154  -0.263   0.493  0.00  0.00    +0.053 C 
ATOM     19  C   UNL     1       8.031  -1.218   1.262  0.00  0.00    -0.009 C 
ATOM     20  C   UNL     1       8.442  -2.336   0.752  0.00  0.00    -0.008 C 
ATOM     21  C   UNL     1       8.077  -2.918  -0.580  0.00  0.00    +0.046 C 
ATOM     22 BR   UNL     1       9.640  -3.348   1.808  0.00  0.00    -0.055 Br
ENDBRANCH  12  13
ENDBRANCH   1  12
TORSDOF 4
