REMARK  Name = ZINC08864671
REMARK  3 active torsions:
REMARK  status: ('A' for Active; 'I' for Inactive)
REMARK    1  A    between atoms: C_1  and  C_2
REMARK    2  A    between atoms: N_11  and  S_12
REMARK    3  A    between atoms: S_12  and  C_15
REMARK                            x       y       z     vdW  Elec       q    Type
REMARK                         _______ _______ _______ _____ _____    ______ ____
ROOT
ATOM      1  C   UNL     1       2.914  -3.569  -6.589  0.00  0.00    +0.047 C 
ATOM      2  C   UNL     1       3.893  -2.814  -5.728  0.00  0.00    -0.006 A 
ATOM      3  C   UNL     1       5.076  -2.378  -6.268  0.00  0.00    +0.046 A 
ATOM      4  C   UNL     1       6.005  -1.679  -5.509  0.00  0.00    +0.021 A 
ATOM      5  C   UNL     1       5.731  -1.416  -4.179  0.00  0.00    +0.019 A 
ATOM      6  C   UNL     1       4.551  -1.849  -3.631  0.00  0.00    +0.041 A 
ATOM      7  C   UNL     1       3.582  -2.562  -4.372  0.00  0.00    +0.085 A 
ATOM      8  N   UNL     1       2.472  -2.924  -3.690  0.00  0.00    -0.223 NA
ATOM      9  C   UNL     1       2.295  -2.626  -2.423  0.00  0.00    +0.179 A 
ATOM     10  S   UNL     1       3.798  -1.745  -2.025  0.00  0.00    -0.051 S 
ATOM     11  N   UNL     1       1.223  -2.923  -1.606  0.00  0.00    -0.194 N 
ATOM     12 CL   UNL     1       5.420  -2.708  -7.937  0.00  0.00    -0.083 Cl
ATOM     13  H   UNL     1       0.465  -3.413  -1.960  0.00  0.00    +0.176 HD
ENDROOT
BRANCH  11  14
ATOM     14  S   UNL     1       1.231  -2.441  -0.022  0.00  0.00    +0.074 S 
ATOM     15  O   UNL     1       2.487  -2.833   0.515  0.00  0.00    -0.150 OA
ATOM     16  O   UNL     1      -0.003  -2.866   0.538  0.00  0.00    -0.150 OA
BRANCH  14  17
ATOM     17  C   UNL     1       1.208  -0.679  -0.013  0.00  0.00    +0.109 A 
ATOM     18  C   UNL     1       0.002  -0.004   0.002  0.00  0.00    +0.030 A 
ATOM     19  C   UNL     1      -0.017   1.378   0.010  0.00  0.00    +0.022 A 
ATOM     20  C   UNL     1       1.172   2.086   0.002  0.00  0.00    +0.041 A 
ATOM     21  C   UNL     1       2.379   1.409  -0.013  0.00  0.00    +0.022 A 
ATOM     22  C   UNL     1       2.397   0.027  -0.021  0.00  0.00    +0.030 A 
ATOM     23 CL   UNL     1       1.149   3.821   0.011  0.00  0.00    -0.084 Cl
ENDBRANCH  14  17
ENDBRANCH  11  14
TORSDOF 2
