REMARK  Name = ZINC01277948
REMARK  6 active torsions:
REMARK  status: ('A' for Active; 'I' for Inactive)
REMARK    1  A    between atoms: C_1  and  O_2
REMARK    2  A    between atoms: O_2  and  C_3
REMARK    3  A    between atoms: C_5  and  C_11
REMARK    4  A    between atoms: C_8  and  O_9
REMARK    5  A    between atoms: N_12  and  N_13
REMARK    6  A    between atoms: C_14  and  C_20
REMARK                            x       y       z     vdW  Elec       q    Type
REMARK                         _______ _______ _______ _____ _____    ______ ____
ROOT
ATOM      1  N   UNL     1      -6.054  -1.779  -0.054  0.00  0.00    -0.188 N 
ATOM      2  C   UNL     1      -6.377  -2.576  -1.136  0.00  0.00    +0.186 A 
ATOM      3  N   UNL     1      -6.322  -3.824  -0.762  0.00  0.00    -0.151 NA
ATOM      4  N   UNL     1      -5.957  -3.856   0.591  0.00  0.00    -0.253 N 
ATOM      5  H   UNL     1      -5.839  -4.651   1.134  0.00  0.00    +0.191 HD
ATOM      6  C   UNL     1      -5.793  -2.581   0.998  0.00  0.00    +0.197 A 
ATOM      7  S   UNL     1      -5.340  -2.072   2.569  0.00  0.00    -0.010 S 
ENDROOT
BRANCH   2   8
ATOM      8  C   UNL     1      -6.726  -2.094  -2.490  0.00  0.00    +0.056 A 
ATOM      9  C   UNL     1      -6.743  -0.726  -2.764  0.00  0.00    +0.014 A 
ATOM     10  C   UNL     1      -7.070  -0.282  -4.029  0.00  0.00    +0.001 A 
ATOM     11  C   UNL     1      -7.381  -1.190  -5.026  0.00  0.00    +0.003 A 
ATOM     12  C   UNL     1      -7.366  -2.547  -4.763  0.00  0.00    +0.039 A 
ATOM     13  C   UNL     1      -7.034  -3.006  -3.502  0.00  0.00    +0.134 A 
ATOM     14  F   UNL     1      -7.014  -4.333  -3.247  0.00  0.00    -0.205 F 
ENDBRANCH   2   8
BRANCH   1  16
ATOM     15  C   UNL     1      -4.897   0.228   0.267  0.00  0.00    +0.141 C 
ATOM     16  N   UNL     1      -6.000  -0.379  -0.052  0.00  0.00    -0.171 NA
BRANCH  15  19
ATOM     17  C   UNL     1      -1.279  -0.620   0.804  0.00  0.00    +0.163 A 
ATOM     18  C   UNL     1      -2.471   0.080   0.796  0.00  0.00    +0.059 A 
ATOM     19  C   UNL     1      -3.624  -0.514   0.277  0.00  0.00    -0.001 A 
ATOM     20  C   UNL     1      -3.567  -1.815  -0.232  0.00  0.00    +0.028 A 
ATOM     21  C   UNL     1      -2.374  -2.507  -0.221  0.00  0.00    +0.063 A 
ATOM     22  C   UNL     1      -1.228  -1.914   0.290  0.00  0.00    +0.173 A 
ATOM     23 BR   UNL     1      -2.299  -4.267  -0.909  0.00  0.00    -0.046 Br
BRANCH  17  25
ATOM     24  C   UNL     1      -0.281   1.285   1.819  0.00  0.00    +0.277 C 
ATOM     25  O   UNL     1      -0.155  -0.044   1.308  0.00  0.00    -0.491 OA
ENDBRANCH  17  25
BRANCH  22  26
ATOM     26  O   UNL     1      -0.053  -2.599   0.293  0.00  0.00    -0.503 OA
ATOM     27  H   UNL     1       0.095  -3.122   1.093  0.00  0.00    +0.292 HD
ENDBRANCH  22  26
ENDBRANCH  15  19
ENDBRANCH   1  16
TORSDOF 5
