REMARK  Name = ZINC13116973
REMARK  8 active torsions:
REMARK  status: ('A' for Active; 'I' for Inactive)
REMARK    1  A    between atoms: C_1  and  C_2
REMARK    2  A    between atoms: C_2  and  C_3
REMARK    3  A    between atoms: C_3  and  C_31
REMARK    4  A    between atoms: N_6  and  N_10
REMARK    5  A    between atoms: C_11  and  C_13
REMARK    6  A    between atoms: C_13  and  N_14
REMARK    7  A    between atoms: C_21  and  C_24
REMARK    8  A    between atoms: C_27  and  C_30
REMARK                            x       y       z     vdW  Elec       q    Type
REMARK                         _______ _______ _______ _____ _____    ______ ____
ROOT
ATOM      1  N   UNL     1      -4.042   5.632  -2.393  0.00  0.00    -0.290 N 
ATOM      2  C   UNL     1      -5.159   4.918  -2.686  0.00  0.00    +0.203 A 
ATOM      3  N   UNL     1      -5.727   5.005  -3.859  0.00  0.00    -0.230 NA
ATOM      4  C   UNL     1      -5.230   5.797  -4.805  0.00  0.00    +0.116 A 
ATOM      5  C   UNL     1      -4.079   6.574  -4.593  0.00  0.00    +0.080 A 
ATOM      6  C   UNL     1      -3.483   6.459  -3.296  0.00  0.00    +0.263 A 
ATOM      7  O   UNL     1      -2.483   7.097  -3.016  0.00  0.00    -0.267 OA
ATOM      8  C   UNL     1      -3.665   7.387  -5.730  0.00  0.00    +0.004 A 
ATOM      9  C   UNL     1      -4.396   7.336  -6.869  0.00  0.00    +0.056 A 
ATOM     10  S   UNL     1      -5.695   6.181  -6.473  0.00  0.00    -0.076 S 
ENDROOT
BRANCH   8  11
ATOM     11  C   UNL     1      -2.465   8.254  -5.641  0.00  0.00    -0.017 A 
ATOM     12  C   UNL     1      -2.312   9.129  -4.566  0.00  0.00    +0.009 A 
ATOM     13  C   UNL     1      -1.192   9.930  -4.487  0.00  0.00    +0.004 A 
ATOM     14  C   UNL     1      -0.226   9.873  -5.476  0.00  0.00    -0.050 A 
ATOM     15  C   UNL     1      -0.375   9.011  -6.547  0.00  0.00    +0.004 A 
ATOM     16  C   UNL     1      -1.489   8.201  -6.635  0.00  0.00    +0.009 A 
ATOM     17  C   UNL     1       0.993  10.755  -5.386  0.00  0.00    +0.044 C 
ENDBRANCH   8  11
BRANCH   1  18
ATOM     18  C   UNL     1      -3.437   5.505  -1.065  0.00  0.00    +0.223 C 
BRANCH  18  20
ATOM     19  N   UNL     1      -1.733   4.091   0.039  0.00  0.00    -0.222 N 
ATOM     20  C   UNL     1      -2.421   4.391  -1.081  0.00  0.00    +0.250 C 
ATOM     21  O   UNL     1      -2.223   3.766  -2.100  0.00  0.00    -0.272 OA
ATOM     22  H   UNL     1      -1.892   4.591   0.855  0.00  0.00    +0.174 HD
BRANCH  19  26
ATOM     23  C   UNL     1       1.158   1.862   0.001  0.00  0.00    +0.111 C 
ATOM     24  C   UNL     1       0.545   3.248   0.013  0.00  0.00    +0.263 C 
ATOM     25  O   UNL     1       1.132   4.309   0.014  0.00  0.00    -0.271 OA
ATOM     26  N   UNL     1      -0.789   3.056   0.025  0.00  0.00    -0.137 N 
ATOM     27  C   UNL     1      -1.101   1.755   0.016  0.00  0.00    +0.326 C 
ATOM     28  O   UNL     1      -2.240   1.333   0.019  0.00  0.00    -0.251 OA
ATOM     29  N   UNL     1      -0.011   0.966   0.007  0.00  0.00    -0.284 N 
ATOM     30  C   UNL     1       1.990   1.653  -1.266  0.00  0.00    +0.041 C 
ATOM     31  H   UNL     1       0.002  -0.004   0.002  0.00  0.00    +0.151 HD
BRANCH  23  33
ATOM     32  C   UNL     1       2.532   0.198   1.260  0.00  0.00    +0.006 C 
ATOM     33  C   UNL     1       2.015   1.638   1.249  0.00  0.00    +0.032 C 
ENDBRANCH  23  33
ENDBRANCH  19  26
ENDBRANCH  18  20
ENDBRANCH   1  18
TORSDOF 5
