REMARK  Name = ZINC12572336
REMARK  15 active torsions:
REMARK  status: ('A' for Active; 'I' for Inactive)
REMARK    1  A    between atoms: C_1  and  C_2
REMARK    2  A    between atoms: C_2  and  N_64
REMARK    3  A    between atoms: C_3  and  C_25
REMARK    4  A    between atoms: C_5  and  C_12
REMARK    5  A    between atoms: C_8  and  C_9
REMARK    6  A    between atoms: C_8  and  C_10
REMARK    7  A    between atoms: C_10  and  O_11
REMARK    8  A    between atoms: C_12  and  N_66
REMARK    9  A    between atoms: C_13  and  C_14
REMARK   10  A    between atoms: C_13  and  N_66
REMARK   11  A    between atoms: C_17  and  O_22
REMARK   12  A    between atoms: C_18  and  C_20
REMARK   13  A    between atoms: C_20  and  O_21
REMARK   14  A    between atoms: O_22  and  C_23
REMARK   15  A    between atoms: C_23  and  C_24
REMARK                            x       y       z     vdW  Elec       q    Type
REMARK                         _______ _______ _______ _____ _____    ______ ____
ROOT
ATOM      1  C   UNL     1       1.432  -0.412  -0.254  0.00  0.00    -0.035 C 
ATOM      2  C   UNL     1       0.003   0.074   0.069  0.00  0.00    -0.039 C 
ATOM      3  C   UNL     1       0.132   1.600   0.258  0.00  0.00    -0.010 C 
ATOM      4  C   UNL     1       1.628   1.907   0.033  0.00  0.00    -0.044 C 
ATOM      5  C   UNL     1       1.875   2.326  -1.417  0.00  0.00    -0.007 C 
ATOM      6  N   UNL     1       2.287   0.634   0.319  0.00  0.00    +0.389 N 
ATOM      7  H   UNL     1       2.371   0.503   1.334  0.00  0.00    -0.080 HD
ENDROOT
BRANCH   1   8
ATOM      8  C   UNL     1       1.691  -1.748   0.393  0.00  0.00    -0.061 A 
ATOM      9  C   UNL     1       2.027  -1.814   1.733  0.00  0.00    +0.003 A 
ATOM     10  C   UNL     1       2.259  -3.039   2.328  0.00  0.00    +0.020 A 
ATOM     11  C   UNL     1       2.167  -4.200   1.581  0.00  0.00    +0.041 A 
ATOM     12  C   UNL     1       1.836  -4.133   0.239  0.00  0.00    +0.020 A 
ATOM     13  C   UNL     1       1.599  -2.908  -0.354  0.00  0.00    +0.003 A 
ATOM     14 CL   UNL     1       2.465  -5.739   2.326  0.00  0.00    -0.084 Cl
ENDBRANCH   1   8
BRANCH   6  16
ATOM     15  C   UNL     1       4.343  -0.728   0.050  0.00  0.00    -0.017 C 
ATOM     16  C   UNL     1       3.650   0.591  -0.297  0.00  0.00    -0.081 C 
ENDBRANCH   6  16
BRANCH   4  17
ATOM     17  C   UNL     1       2.099   3.001   0.994  0.00  0.00    +0.143 C 
BRANCH  17  18
ATOM     18  O   UNL     1       1.364   4.201   0.745  0.00  0.00    -0.396 OA
ATOM     19  H   UNL     1       1.610   4.939   1.319  0.00  0.00    +0.209 HD
ENDBRANCH  17  18
ENDBRANCH   4  17
BRANCH   2  20
ATOM     20  C   UNL     1      -0.503  -0.580   1.357  0.00  0.00    -0.080 C 
BRANCH  20  21
ATOM     21  N   UNL     1      -1.886  -0.137   1.613  0.00  0.00    +0.382 N 
ATOM     22  H   UNL     1      -2.482  -0.413   0.824  0.00  0.00    -0.085 HD
ATOM     23  H   UNL     1      -1.901   0.885   1.711  0.00  0.00    -0.085 HD
BRANCH  21  24
ATOM     24  C   UNL     1      -2.400  -0.752   2.850  0.00  0.00    -0.047 C 
BRANCH  24  25
ATOM     25  C   UNL     1      -3.813  -0.282   3.086  0.00  0.00    -0.064 A 
ATOM     26  C   UNL     1      -4.874  -0.995   2.560  0.00  0.00    +0.005 A 
ATOM     27  C   UNL     1      -6.170  -0.566   2.774  0.00  0.00    +0.046 A 
ATOM     28  C   UNL     1      -6.405   0.581   3.518  0.00  0.00    +0.126 A 
ATOM     29  C   UNL     1      -5.338   1.294   4.046  0.00  0.00    +0.020 A 
ATOM     30  C   UNL     1      -4.045   0.858   3.833  0.00  0.00    +0.011 A 
BRANCH  29  31
ATOM     31  C   UNL     1      -5.590   2.540   4.855  0.00  0.00    +0.194 C 
BRANCH  31  32
ATOM     32  O   UNL     1      -4.343   3.090   5.284  0.00  0.00    -0.390 OA
ATOM     33  H   UNL     1      -4.429   3.895   5.812  0.00  0.00    +0.210 HD
ENDBRANCH  31  32
ENDBRANCH  29  31
BRANCH  28  34
ATOM     34  O   UNL     1      -7.679   1.005   3.731  0.00  0.00    -0.492 OA
BRANCH  34  35
ATOM     35  C   UNL     1      -8.727   0.222   3.158  0.00  0.00    +0.225 C 
ATOM     36  C   UNL     1     -10.079   0.850   3.502  0.00  0.00    +0.048 C 
ENDBRANCH  34  35
ENDBRANCH  28  34
ENDBRANCH  24  25
ENDBRANCH  21  24
ENDBRANCH  20  21
ENDBRANCH   2  20
TORSDOF 12
