REMARK  Name = ZINC04223770
REMARK  7 active torsions:
REMARK  status: ('A' for Active; 'I' for Inactive)
REMARK    1  A    between atoms: C_1  and  C_2
REMARK    2  A    between atoms: C_6  and  N_9
REMARK    3  A    between atoms: C_7  and  C_8
REMARK    4  A    between atoms: N_9  and  C_10
REMARK    5  A    between atoms: C_10  and  N_12
REMARK    6  A    between atoms: C_20  and  C_22
REMARK    7  A    between atoms: C_25  and  N_28
REMARK                            x       y       z     vdW  Elec       q    Type
REMARK                         _______ _______ _______ _____ _____    ______ ____
ROOT
ATOM      1  N   UNL     1      -0.028  -0.046  -0.163  0.00  0.00    -0.298 N 
ATOM      2  C   UNL     1       0.698  -1.004   0.685  0.00  0.00    +0.129 C 
ATOM      3  C   UNL     1       2.136  -1.141   0.175  0.00  0.00    +0.140 C 
ATOM      4  N   UNL     1       2.688   0.194  -0.080  0.00  0.00    -0.347 N 
ATOM      5  C   UNL     1       4.003   0.526  -0.198  0.00  0.00    +0.086 A 
ATOM      6  C   UNL     1       4.084   1.851  -0.442  0.00  0.00    +0.019 A 
ATOM      7  C   UNL     1       2.768   2.357  -0.473  0.00  0.00    +0.025 A 
ATOM      8  C   UNL     1       1.939   1.326  -0.246  0.00  0.00    +0.044 A 
ATOM      9  C   UNL     1       0.429   1.356  -0.174  0.00  0.00    +0.152 C 
ENDROOT
BRANCH   9  10
ATOM     10  C   UNL     1      -0.012   2.051   1.088  0.00  0.00    -0.021 A 
ATOM     11  C   UNL     1       0.456   1.619   2.315  0.00  0.00    +0.008 A 
ATOM     12  C   UNL     1       0.055   2.260   3.472  0.00  0.00    +0.033 A 
ATOM     13  C   UNL     1      -0.823   3.325   3.403  0.00  0.00    +0.126 A 
ATOM     14  C   UNL     1      -1.295   3.754   2.177  0.00  0.00    +0.033 A 
ATOM     15  C   UNL     1      -0.890   3.117   1.019  0.00  0.00    +0.008 A 
BRANCH  13  16
ATOM     16  N   UNL     1      -1.257   4.008   4.643  0.00  0.00    +0.056 N 
ATOM     17  O   UNL     1      -2.030   4.947   4.582  0.00  0.00    -0.126 OA
ATOM     18  O   UNL     1      -0.841   3.630   5.724  0.00  0.00    -0.126 OA
ENDBRANCH  13  16
ENDBRANCH   9  10
BRANCH   1  19
ATOM     19  C   UNL     1      -1.080  -0.439  -0.909  0.00  0.00    +0.138 C 
ATOM     20  S   UNL     1      -1.822   0.662  -1.990  0.00  0.00    -0.018 S 
BRANCH  19  21
ATOM     21  N   UNL     1      -1.549  -1.698  -0.803  0.00  0.00    -0.296 N 
ATOM     22  H   UNL     1      -1.174  -2.301  -0.142  0.00  0.00    +0.154 HD
BRANCH  21  28
ATOM     23  C   UNL     1      -3.397  -5.143  -3.783  0.00  0.00    +0.044 C 
ATOM     24  C   UNL     1      -3.498  -3.802  -3.104  0.00  0.00    -0.046 A 
ATOM     25  C   UNL     1      -4.606  -3.002  -3.315  0.00  0.00    +0.004 A 
ATOM     26  C   UNL     1      -4.701  -1.770  -2.694  0.00  0.00    +0.002 A 
ATOM     27  C   UNL     1      -3.692  -1.337  -1.856  0.00  0.00    +0.023 A 
ATOM     28  C   UNL     1      -2.575  -2.136  -1.647  0.00  0.00    +0.036 A 
ATOM     29  C   UNL     1      -2.482  -3.373  -2.272  0.00  0.00    -0.026 A 
ATOM     30  C   UNL     1      -1.275  -4.245  -2.043  0.00  0.00    +0.046 C 
ENDBRANCH  21  28
ENDBRANCH  19  21
ENDBRANCH   1  19
TORSDOF 5
