REMARK  Name = ZINC38570360
REMARK  5 active torsions:
REMARK  status: ('A' for Active; 'I' for Inactive)
REMARK    1  A    between atoms: C_1  and  C_2
REMARK    2  A    between atoms: C_4  and  C_34
REMARK    3  A    between atoms: C_6  and  N_8
REMARK    4  A    between atoms: C_9  and  O_33
REMARK    5  A    between atoms: C_11  and  C_18
REMARK                            x       y       z     vdW  Elec       q    Type
REMARK                         _______ _______ _______ _____ _____    ______ ____
ROOT
ATOM      1  N   UNL     1       0.052  -2.797   2.392  0.00  0.00    -0.255 N 
ATOM      2  C   UNL     1       0.153  -2.067   3.657  0.00  0.00    +0.222 C 
ATOM      3  C   UNL     1      -0.686  -2.773   4.724  0.00  0.00    +0.145 C 
ATOM      4  C   UNL     1      -0.398  -4.253   4.682  0.00  0.00    +0.228 C 
ATOM      5  O   UNL     1      -0.407  -4.902   5.705  0.00  0.00    -0.275 OA
ATOM      6  N   UNL     1      -0.130  -4.852   3.507  0.00  0.00    -0.267 N 
ATOM      7  C   UNL     1      -0.032  -4.137   2.374  0.00  0.00    +0.145 C 
ATOM      8  S   UNL     1      -0.007  -4.956   0.871  0.00  0.00    -0.018 S 
ATOM      9  H   UNL     1      -0.009  -5.814   3.478  0.00  0.00    +0.157 HD
ENDROOT
BRANCH   3  10
ATOM     10  C   UNL     1      -2.172  -2.533   4.449  0.00  0.00    +0.117 C 
ATOM     11  C   UNL     1      -2.998  -3.133   5.562  0.00  0.00    +0.038 A 
ATOM     12  H   UNL     1      -2.006  -2.594   7.313  0.00  0.00    +0.166 HD
ATOM     13  C   UNL     1      -4.124  -3.849   5.340  0.00  0.00    -0.016 A 
ATOM     14  C   UNL     1      -4.633  -4.256   6.630  0.00  0.00    +0.003 A 
ATOM     15  C   UNL     1      -5.749  -5.003   7.019  0.00  0.00    +0.010 A 
ATOM     16  C   UNL     1      -5.926  -5.199   8.367  0.00  0.00    +0.001 A 
ATOM     17  C   UNL     1      -5.047  -4.687   9.307  0.00  0.00    +0.002 A 
ATOM     18  C   UNL     1      -3.935  -3.944   8.950  0.00  0.00    +0.026 A 
ATOM     19  C   UNL     1      -3.729  -3.728   7.590  0.00  0.00    +0.047 A 
ATOM     20  N   UNL     1      -2.756  -3.056   6.906  0.00  0.00    -0.356 N 
ATOM     21  C   UNL     1      -4.679  -4.122   3.964  0.00  0.00    +0.052 C 
ATOM     22  C   UNL     1      -4.007  -3.152   2.982  0.00  0.00    +0.086 C 
ATOM     23  N   UNL     1      -2.550  -3.178   3.181  0.00  0.00    -0.307 NA
ATOM     24  H   UNL     1      -2.068  -2.755   2.402  0.00  0.00    +0.123 HD
ENDBRANCH   3  10
BRANCH   1  30
ATOM     25  C   UNL     1      -2.212   0.332  -0.649  0.00  0.00    +0.044 C 
ATOM     26  C   UNL     1      -1.048  -0.565  -0.314  0.00  0.00    -0.048 A 
ATOM     27  C   UNL     1       0.006  -0.689  -1.200  0.00  0.00    +0.006 A 
ATOM     28  C   UNL     1       1.076  -1.511  -0.896  0.00  0.00    -0.048 A 
ATOM     29  C   UNL     1       1.094  -2.211   0.294  0.00  0.00    +0.027 A 
ATOM     30  C   UNL     1       0.037  -2.089   1.186  0.00  0.00    +0.038 A 
ATOM     31  C   UNL     1      -1.034  -1.259   0.880  0.00  0.00    +0.027 A 
ATOM     32  C   UNL     1       2.223  -1.643  -1.865  0.00  0.00    +0.044 C 
ENDBRANCH   1  30
BRANCH   2  33
ATOM     33  O   UNL     1       1.519  -2.025   4.075  0.00  0.00    -0.373 OA
ATOM     34  H   UNL     1       2.110  -1.590   3.446  0.00  0.00    +0.212 HD
ENDBRANCH   2  33
TORSDOF 3
