REMARK  Name = ZINC17300321
REMARK  3 active torsions:
REMARK  status: ('A' for Active; 'I' for Inactive)
REMARK    1  A    between atoms: C_3  and  S_21
REMARK    2  A    between atoms: C_6  and  N_7
REMARK    3  A    between atoms: N_7  and  N_8
REMARK                            x       y       z     vdW  Elec       q    Type
REMARK                         _______ _______ _______ _____ _____    ______ ____
ROOT
ATOM      1  N   UNL     1      -1.175  -2.009   0.003  0.00  0.00    -0.178 NA
ATOM      2  C   UNL     1      -2.278  -2.729   0.095  0.00  0.00    +0.136 C 
ATOM      3  C   UNL     1      -3.604  -2.086   0.101  0.00  0.00    +0.013 A 
ATOM      4  C   UNL     1      -3.732  -0.701   0.009  0.00  0.00    +0.012 A 
ATOM      5  C   UNL     1      -4.986  -0.130   0.017  0.00  0.00    +0.016 A 
ATOM      6  C   UNL     1      -6.123  -0.922   0.116  0.00  0.00    +0.018 A 
ATOM      7  C   UNL     1      -6.020  -2.291   0.207  0.00  0.00    +0.023 A 
ATOM      8  C   UNL     1      -4.755  -2.896   0.201  0.00  0.00    -0.015 A 
ATOM      9  C   UNL     1      -4.621  -4.345   0.297  0.00  0.00    +0.012 C 
ATOM     10  C   UNL     1      -3.411  -4.942   0.293  0.00  0.00    +0.054 C 
ATOM     11  C   UNL     1      -2.216  -4.196   0.189  0.00  0.00    +0.206 C 
ATOM     12  O   UNL     1      -1.137  -4.766   0.182  0.00  0.00    -0.286 OA
ATOM     13 BR   UNL     1      -7.831  -0.111   0.124  0.00  0.00    -0.050 Br
ENDROOT
BRANCH   1  14
ATOM     14  N   UNL     1      -1.152  -0.804   0.462  0.00  0.00    -0.237 N 
ATOM     15  H   UNL     1      -1.911  -0.459   0.958  0.00  0.00    +0.174 HD
BRANCH  14  21
ATOM     16  C   UNL     1      -0.009   1.303   0.739  0.00  0.00    +0.026 A 
ATOM     17  C   UNL     1       1.098   2.099   0.522  0.00  0.00    +0.031 A 
ATOM     18  C   UNL     1       2.179   1.605  -0.186  0.00  0.00    +0.120 A 
ATOM     19  C   UNL     1       2.156   0.313  -0.679  0.00  0.00    +0.031 A 
ATOM     20  C   UNL     1       1.052  -0.489  -0.467  0.00  0.00    +0.026 A 
ATOM     21  C   UNL     1      -0.036   0.003   0.245  0.00  0.00    +0.048 A 
BRANCH  18  22
ATOM     22  S   UNL     1       3.590   2.625  -0.461  0.00  0.00    +0.140 S 
ATOM     23  O   UNL     1       4.177   2.203  -1.722  0.00  0.00    -0.140 OA
ATOM     24  O   UNL     1       3.113   3.998  -0.516  0.00  0.00    -0.140 OA
ATOM     25  O   UNL     1       4.492   2.408   0.659  0.00  0.00    -0.043 OA
ENDBRANCH  18  22
ENDBRANCH  14  21
ENDBRANCH   1  14
TORSDOF 3
