REMARK  Name = ZINC13064712
REMARK  12 active torsions:
REMARK  status: ('A' for Active; 'I' for Inactive)
REMARK    1  A    between atoms: C_1  and  C_2
REMARK    2  A    between atoms: C_2  and  C_3
REMARK    3  A    between atoms: C_3  and  C_5
REMARK    4  A    between atoms: C_3  and  N_69
REMARK    5  A    between atoms: N_9  and  C_10
REMARK    6  A    between atoms: C_10  and  C_11
REMARK    7  A    between atoms: C_16  and  C_17
REMARK    8  A    between atoms: C_16  and  N_69
REMARK    9  A    between atoms: C_26  and  C_27
REMARK   10  A    between atoms: C_26  and  N_69
REMARK   11  A    between atoms: C_31  and  C_40
REMARK   12  A    between atoms: C_32  and  C_39
REMARK                            x       y       z     vdW  Elec       q    Type
REMARK                         _______ _______ _______ _____ _____    ______ ____
ROOT
ATOM      1  N   UNL     1      -6.564   4.102  -0.969  0.00  0.00    +0.392 N 
ATOM      2  H   UNL     1      -6.155   3.168  -1.093  0.00  0.00    -0.080 HD
ENDROOT
BRANCH   1   3
ATOM      3  C   UNL     1      -7.951   4.089  -1.481  0.00  0.00    +0.003 C 
BRANCH   3   4
ATOM      4  C   UNL     1      -7.952   4.475  -2.938  0.00  0.00    +0.139 A 
ATOM      5  N   UNL     1      -7.194   3.972  -3.882  0.00  0.00    -0.115 NA
ATOM      6  N   UNL     1      -7.495   4.559  -4.989  0.00  0.00    -0.023 NA
ATOM      7  N   UNL     1      -8.419   5.429  -4.774  0.00  0.00    -0.044 NA
ATOM      8  N   UNL     1      -8.728   5.407  -3.522  0.00  0.00    -0.223 N 
BRANCH   8   9
ATOM      9  C   UNL     1      -9.734   6.241  -2.859  0.00  0.00    +0.221 C 
BRANCH   9  10
ATOM     10  C   UNL     1      -9.199   7.641  -2.698  0.00  0.00    +0.126 A 
ATOM     11  C   UNL     1      -9.431   8.672  -3.530  0.00  0.00    +0.046 A 
ATOM     12  C   UNL     1      -8.743   9.788  -3.000  0.00  0.00    +0.041 A 
ATOM     13  C   UNL     1      -8.126   9.370  -1.881  0.00  0.00    +0.195 A 
ATOM     14  O   UNL     1      -8.405   8.069  -1.703  0.00  0.00    -0.466 OA
ENDBRANCH   9  10
ENDBRANCH   8   9
ENDBRANCH   3   4
BRANCH   3  16
ATOM     15  C   UNL     1      -8.623   2.328   0.159  0.00  0.00    +0.002 C 
ATOM     16  C   UNL     1      -8.513   2.675  -1.328  0.00  0.00    -0.011 C 
ENDBRANCH   3  16
ENDBRANCH   1   3
BRANCH   1  17
ATOM     17  C   UNL     1      -5.756   5.083  -1.723  0.00  0.00    -0.041 C 
BRANCH  17  18
ATOM     18  C   UNL     1      -4.299   4.731  -1.567  0.00  0.00    -0.060 A 
ATOM     19  C   UNL     1      -3.596   5.180  -0.464  0.00  0.00    +0.005 A 
ATOM     20  C   UNL     1      -2.261   4.854  -0.313  0.00  0.00    +0.050 A 
ATOM     21  C   UNL     1      -1.621   4.087  -1.273  0.00  0.00    +0.166 A 
ATOM     22  C   UNL     1      -2.329   3.639  -2.386  0.00  0.00    +0.166 A 
ATOM     23  C   UNL     1      -3.668   3.964  -2.528  0.00  0.00    +0.051 A 
ATOM     24  O   UNL     1      -1.485   2.912  -3.175  0.00  0.00    -0.453 OA
ATOM     25  C   UNL     1      -0.157   3.260  -2.742  0.00  0.00    +0.466 C 
ATOM     26  O   UNL     1      -0.335   3.639  -1.365  0.00  0.00    -0.453 OA
ENDBRANCH  17  18
ENDBRANCH   1  17
BRANCH   1  27
ATOM     27  C   UNL     1      -6.560   4.442   0.469  0.00  0.00    -0.036 C 
BRANCH  27  28
ATOM     28  C   UNL     1      -7.317   5.722   0.711  0.00  0.00    +0.001 A 
ATOM     29  C   UNL     1      -8.622   5.676   1.077  0.00  0.00    +0.017 A 
ATOM     30  C   UNL     1      -9.331   6.938   1.299  0.00  0.00    -0.001 A 
ATOM     31  C   UNL     1     -10.682   6.955   1.660  0.00  0.00    +0.013 A 
ATOM     32  C   UNL     1     -11.315   8.149   1.860  0.00  0.00    -0.047 A 
ATOM     33  C   UNL     1     -10.628   9.346   1.708  0.00  0.00    -0.046 A 
ATOM     34  C   UNL     1      -9.297   9.354   1.353  0.00  0.00    +0.030 A 
ATOM     35  C   UNL     1      -8.633   8.150   1.138  0.00  0.00    +0.049 A 
ATOM     36  N   UNL     1      -7.303   8.128   0.777  0.00  0.00    -0.322 N 
ATOM     37  H   UNL     1      -6.822   8.964   0.670  0.00  0.00    +0.169 HD
ATOM     38  C   UNL     1      -6.662   6.964   0.569  0.00  0.00    +0.251 A 
ATOM     39  O   UNL     1      -5.486   6.983   0.249  0.00  0.00    -0.268 OA
ATOM     40  C   UNL     1     -11.347  10.651   1.933  0.00  0.00    +0.044 C 
ATOM     41  C   UNL     1     -12.771   8.167   2.249  0.00  0.00    +0.044 C 
ENDBRANCH  27  28
ENDBRANCH   1  27
TORSDOF 9
