REMARK  Name = ZINC39530180
REMARK  6 active torsions:
REMARK  status: ('A' for Active; 'I' for Inactive)
REMARK    1  A    between atoms: C_1  and  C_2
REMARK    2  A    between atoms: C_2  and  O_3
REMARK    3  A    between atoms: O_3  and  C_4
REMARK    4  A    between atoms: N_7  and  C_11
REMARK    5  A    between atoms: C_16  and  C_17
REMARK    6  A    between atoms: C_22  and  O_23
REMARK                            x       y       z     vdW  Elec       q    Type
REMARK                         _______ _______ _______ _____ _____    ______ ____
ROOT
ATOM      1  C   UNL     1       2.878  -4.472   2.553  0.00  0.00    +0.038 A 
ATOM      2  C   UNL     1       3.590  -4.632   3.733  0.00  0.00    +0.025 A 
ATOM      3  C   UNL     1       4.720  -5.426   3.757  0.00  0.00    +0.016 A 
ATOM      4  C   UNL     1       5.150  -6.065   2.607  0.00  0.00    +0.014 A 
ATOM      5  C   UNL     1       4.452  -5.915   1.425  0.00  0.00    +0.024 A 
ATOM      6  C   UNL     1       3.308  -5.122   1.389  0.00  0.00    +0.008 A 
ATOM      7  I   UNL     1       6.867  -7.265   2.660  0.00  0.00    -0.044 I 
ENDROOT
BRANCH   1  10
ATOM      8  C   UNL     1      -0.366  -3.518   3.752  0.00  0.00    +0.203 C 
ATOM      9  C   UNL     1       0.395  -4.264   2.651  0.00  0.00    +0.152 C 
ATOM     10  N   UNL     1       1.736  -3.671   2.526  0.00  0.00    -0.324 N 
ATOM     11  C   UNL     1       1.840  -2.212   2.374  0.00  0.00    +0.120 C 
ATOM     12  C   UNL     1       1.021  -1.547   3.485  0.00  0.00    +0.102 C 
ATOM     13  N   UNL     1      -0.348  -2.077   3.465  0.00  0.00    -0.289 NA
ATOM     14  H   UNL     1      -0.800  -1.878   2.586  0.00  0.00    +0.124 HD
BRANCH   8  15
ATOM     15  O   UNL     1      -1.718  -3.979   3.793  0.00  0.00    -0.361 OA
BRANCH  15  17
ATOM     16  C   UNL     1      -3.882  -4.067   4.865  0.00  0.00    +0.034 C 
ATOM     17  C   UNL     1      -2.457  -3.515   4.925  0.00  0.00    +0.158 C 
ENDBRANCH  15  17
ENDBRANCH   8  15
ENDBRANCH   1  10
BRANCH   6  18
ATOM     18  C   UNL     1       2.552  -4.962   0.124  0.00  0.00    +0.025 A 
ATOM     19  C   UNL     1       1.863  -6.043  -0.421  0.00  0.00    +0.012 A 
ATOM     20  C   UNL     1       1.160  -5.889  -1.599  0.00  0.00    +0.001 A 
ATOM     21  C   UNL     1       1.137  -4.663  -2.241  0.00  0.00    +0.004 A 
ATOM     22  C   UNL     1       1.817  -3.584  -1.709  0.00  0.00    +0.046 A 
ATOM     23  C   UNL     1       2.522  -3.723  -0.524  0.00  0.00    +0.125 A 
BRANCH  23  24
ATOM     24  O   UNL     1       3.186  -2.662   0.003  0.00  0.00    -0.506 OA
ATOM     25  H   UNL     1       4.099  -2.577  -0.304  0.00  0.00    +0.292 HD
ENDBRANCH  23  24
ENDBRANCH   6  18
TORSDOF 5
