REMARK  Name = ZINC66230091
REMARK  6 active torsions:
REMARK  status: ('A' for Active; 'I' for Inactive)
REMARK    1  A    between atoms: C_1  and  C_2
REMARK    2  A    between atoms: C_2  and  C_4
REMARK    3  A    between atoms: C_2  and  N_17
REMARK    4  A    between atoms: N_6  and  S_7
REMARK    5  A    between atoms: S_7  and  C_10
REMARK    6  A    between atoms: C_18  and  C_20
REMARK                            x       y       z     vdW  Elec       q    Type
REMARK                         _______ _______ _______ _____ _____    ______ ____
ROOT
ATOM      1  C   UNL     1       0.707  -0.490  -1.238  0.00  0.00    +0.284 C 
ATOM      2  O   UNL     1       2.021  -0.793  -1.191  0.00  0.00    -0.267 OA
ATOM      3  N   UNL     1       0.055  -0.616  -2.344  0.00  0.00    -0.089 NA
ENDROOT
BRANCH   3   4
ATOM      4  S   UNL     1       0.830  -1.150  -3.706  0.00  0.00    +0.104 S 
ATOM      5  O   UNL     1       1.773  -0.146  -4.057  0.00  0.00    -0.146 OA
ATOM      6  O   UNL     1       1.209  -2.497  -3.457  0.00  0.00    -0.146 OA
BRANCH   4   7
ATOM      7  C   UNL     1      -0.364  -1.195  -5.001  0.00  0.00    +0.139 A 
ATOM      8  C   UNL     1      -0.240  -0.363  -6.100  0.00  0.00    +0.058 A 
ATOM      9  C   UNL     1      -1.177  -0.423  -7.079  0.00  0.00    +0.081 A 
ATOM     10  S   UNL     1      -2.279  -1.683  -6.459  0.00  0.00    -0.063 S 
ATOM     11  C   UNL     1      -1.415  -2.049  -4.939  0.00  0.00    +0.106 A 
ATOM     12 CL   UNL     1      -1.818  -3.199  -3.703  0.00  0.00    -0.074 Cl
ATOM     13 CL   UNL     1      -1.278   0.489  -8.552  0.00  0.00    -0.076 Cl
ENDBRANCH   4   7
ENDBRANCH   3   4
BRANCH   1  15
ATOM     14  C   UNL     1      -0.019   1.526   0.010  0.00  0.00    +0.038 C 
ATOM     15  C   UNL     1       0.002  -0.004   0.002  0.00  0.00    +0.162 C 
BRANCH  15  16
ATOM     16  N   UNL     1       0.711  -0.489   1.189  0.00  0.00    -0.304 N 
ATOM     17  C   UNL     1       0.051  -0.633   2.355  0.00  0.00    +0.217 C 
ATOM     18  O   UNL     1      -1.129  -0.361   2.423  0.00  0.00    -0.275 OA
ATOM     19  H   UNL     1       1.654  -0.707   1.135  0.00  0.00    +0.149 HD
BRANCH  17  20
ATOM     20  C   UNL     1       0.780  -1.133   3.576  0.00  0.00    +0.075 C 
ATOM     21  C   UNL     1       0.910  -2.664   3.633  0.00  0.00    +0.013 C 
ATOM     22  C   UNL     1       0.625  -2.554   5.140  0.00  0.00    +0.001 C 
ATOM     23  C   UNL     1      -0.112  -1.241   4.825  0.00  0.00    +0.013 C 
ENDBRANCH  17  20
ENDBRANCH  15  16
ENDBRANCH   1  15
TORSDOF 5
