REMARK  Name = ZINC26188188
REMARK  10 active torsions:
REMARK  status: ('A' for Active; 'I' for Inactive)
REMARK    1  A    between atoms: C_5  and  C_7
REMARK    2  A    between atoms: C_7  and  C_9
REMARK    3  A    between atoms: C_7  and  C_30
REMARK    4  A    between atoms: C_9  and  C_10
REMARK    5  A    between atoms: C_10  and  N_11
REMARK    6  A    between atoms: N_13  and  C_14
REMARK    7  A    between atoms: C_14  and  C_15
REMARK    8  A    between atoms: C_15  and  C_16
REMARK    9  A    between atoms: C_16  and  C_17
REMARK   10  A    between atoms: N_23  and  C_24
REMARK                            x       y       z     vdW  Elec       q    Type
REMARK                         _______ _______ _______ _____ _____    ______ ____
ROOT
ATOM      1  N   UNL     1      -1.375  -1.454   1.003  0.00  0.00    -0.358 N 
ATOM      2  C   UNL     1      -1.342  -0.637  -0.012  0.00  0.00    +0.172 C 
ATOM      3  N   UNL     1      -0.135  -0.213  -0.515  0.00  0.00    -0.358 N 
ATOM      4  N   UNL     1      -2.515  -0.199  -0.580  0.00  0.00    -0.355 N 
ATOM      5  H   UNL     1       0.799  -0.476   0.002  0.00  0.00    +0.162 HD
ATOM      6  H   UNL     1      -3.381  -0.875  -0.645  0.00  0.00    +0.163 HD
ATOM      7  H   UNL     1      -0.439  -1.866   1.407  0.00  0.00    +0.162 HD
ENDROOT
BRANCH   4   8
ATOM      8  C   UNL     1      -2.613   1.168  -1.098  0.00  0.00    +0.082 C 
ATOM      9  C   UNL     1      -2.246   2.160   0.008  0.00  0.00    +0.024 C 
ATOM     10  C   UNL     1      -2.348   3.588  -0.533  0.00  0.00    +0.002 C 
ATOM     11  C   UNL     1      -3.780   3.854  -1.003  0.00  0.00    +0.000 C 
ATOM     12  C   UNL     1      -4.146   2.862  -2.109  0.00  0.00    +0.002 C 
ATOM     13  C   UNL     1      -4.045   1.435  -1.568  0.00  0.00    +0.024 C 
ENDBRANCH   4   8
BRANCH   1  14
ATOM     14  C   UNL     1      -2.658  -1.823   1.605  0.00  0.00    +0.116 C 
BRANCH  14  15
ATOM     15  C   UNL     1      -2.921  -3.312   1.372  0.00  0.00    +0.035 C 
BRANCH  15  16
ATOM     16  C   UNL     1      -4.261  -3.698   2.001  0.00  0.00    +0.069 C 
BRANCH  16  17
ATOM     17  C   UNL     1      -4.464  -5.186   1.879  0.00  0.00    -0.038 A 
ATOM     18  C   UNL     1      -4.390  -5.795   0.640  0.00  0.00    +0.005 A 
ATOM     19  C   UNL     1      -4.571  -7.160   0.529  0.00  0.00    +0.015 A 
ATOM     20  C   UNL     1      -4.836  -7.917   1.656  0.00  0.00    +0.018 A 
ATOM     21  C   UNL     1      -4.915  -7.307   2.895  0.00  0.00    +0.015 A 
ATOM     22  C   UNL     1      -4.728  -5.942   3.006  0.00  0.00    +0.005 A 
ATOM     23 BR   UNL     1      -5.090  -9.785   1.504  0.00  0.00    -0.050 Br
ENDBRANCH  16  17
BRANCH  16  28
ATOM     24  C   UNL     1      -6.305  -2.071  -0.717  0.00  0.00    +0.003 A 
ATOM     25  C   UNL     1      -7.408  -1.681   0.027  0.00  0.00    +0.020 A 
ATOM     26  C   UNL     1      -7.442  -1.962   1.379  0.00  0.00    +0.111 A 
ATOM     27  N   UNL     1      -6.444  -2.598   1.962  0.00  0.00    -0.259 NA
ATOM     28  C   UNL     1      -5.377  -2.979   1.287  0.00  0.00    +0.049 A 
ATOM     29  C   UNL     1      -5.273  -2.733  -0.069  0.00  0.00    +0.024 A 
ENDBRANCH  16  28
ENDBRANCH  15  16
ENDBRANCH  14  15
ENDBRANCH   1  14
BRANCH   3  30
ATOM     30  C   UNL     1      -0.093   0.589  -1.740  0.00  0.00    +0.116 C 
BRANCH  30  31
ATOM     31  C   UNL     1       1.318   0.544  -2.331  0.00  0.00    +0.027 C 
BRANCH  31  32
ATOM     32  C   UNL     1       1.362   1.382  -3.611  0.00  0.00    +0.056 C 
BRANCH  32  33
ATOM     33  C   UNL     1       2.751   1.338  -4.193  0.00  0.00    +0.033 A 
ATOM     34  C   UNL     1       3.073   0.965  -5.446  0.00  0.00    +0.105 A 
ATOM     35  N   UNL     1       4.433   1.072  -5.554  0.00  0.00    -0.352 N 
ATOM     36  H   UNL     1       4.931   0.817  -6.501  0.00  0.00    +0.166 HD
ATOM     37  C   UNL     1       4.896   1.507  -4.363  0.00  0.00    +0.171 A 
ATOM     38  N   UNL     1       3.884   1.669  -3.555  0.00  0.00    -0.350 N 
ATOM     39  H   UNL     1       3.846   2.012  -2.510  0.00  0.00    +0.166 HD
ENDBRANCH  32  33
ENDBRANCH  31  32
ENDBRANCH  30  31
ENDBRANCH   3  30
TORSDOF 10
