REMARK  Name = ZINC39670716
REMARK  8 active torsions:
REMARK  status: ('A' for Active; 'I' for Inactive)
REMARK    1  A    between atoms: C_1  and  C_2
REMARK    2  A    between atoms: C_9  and  C_11
REMARK    3  A    between atoms: C_11  and  N_12
REMARK    4  A    between atoms: C_13  and  C_15
REMARK    5  A    between atoms: C_26  and  C_28
REMARK    6  A    between atoms: C_28  and  C_30
REMARK    7  A    between atoms: C_28  and  O_31
REMARK    8  A    between atoms: O_31  and  C_32
REMARK                            x       y       z     vdW  Elec       q    Type
REMARK                         _______ _______ _______ _____ _____    ______ ____
ROOT
ATOM      1  C   UNL     1      -2.940  -1.746   7.066  0.00  0.00    +0.100 C 
ATOM      2  C   UNL     1      -3.780  -0.482   6.773  0.00  0.00    +0.121 C 
ATOM      3  N   UNL     1      -4.640  -0.319   7.968  0.00  0.00    -0.297 N 
ATOM      4  C   UNL     1      -3.760  -0.671   9.107  0.00  0.00    +0.115 C 
ATOM      5  C   UNL     1      -2.929  -1.866   8.599  0.00  0.00    -0.004 C 
ATOM      6  C   UNL     1      -1.500  -1.776   9.125  0.00  0.00    -0.010 C 
ATOM      7  C   UNL     1      -1.508  -1.956  10.646  0.00  0.00    -0.082 C 
ATOM      8  N   UNL     1      -2.094  -3.259  10.982  0.00  0.00    +0.379 N 
ATOM      9  C   UNL     1      -3.498  -3.303  10.555  0.00  0.00    -0.082 C 
ATOM     10  C   UNL     1      -3.573  -3.179   9.031  0.00  0.00    -0.010 C 
ATOM     11  C   UNL     1      -5.932   0.062   8.010  0.00  0.00    +0.256 C 
ATOM     12  O   UNL     1      -6.550   0.225   6.979  0.00  0.00    -0.272 OA
ATOM     13  H   UNL     1      -1.579  -3.990  10.514  0.00  0.00    -0.086 HD
ATOM     14  H   UNL     1      -2.043  -3.402  11.980  0.00  0.00    -0.086 HD
ENDROOT
BRANCH   1  16
ATOM     15  N   UNL     1      -0.774  -2.660   6.298  0.00  0.00    -0.309 N 
ATOM     16  C   UNL     1      -1.537  -1.577   6.542  0.00  0.00    +0.219 C 
ATOM     17  O   UNL     1      -1.095  -0.465   6.340  0.00  0.00    -0.275 OA
ATOM     18  H   UNL     1      -1.127  -3.549   6.460  0.00  0.00    +0.149 HD
BRANCH  15  19
ATOM     19  C   UNL     1       0.590  -2.496   5.789  0.00  0.00    +0.159 C 
BRANCH  19  28
ATOM     20  C   UNL     1       1.843  -6.802   2.472  0.00  0.00    +0.064 C 
ATOM     21  C   UNL     1       2.244  -6.792   3.925  0.00  0.00    +0.022 A 
ATOM     22  C   UNL     1       2.923  -7.839   4.438  0.00  0.00    +0.021 A 
ATOM     23  C   UNL     1       3.303  -7.842   5.790  0.00  0.00    +0.005 A 
ATOM     24  C   UNL     1       2.983  -6.784   6.583  0.00  0.00    +0.045 A 
ATOM     25  C   UNL     1       2.273  -5.699   6.032  0.00  0.00    +0.116 A 
ATOM     26  N   UNL     1       1.921  -5.722   4.707  0.00  0.00    -0.305 N 
ATOM     27  C   UNL     1       1.257  -4.553   4.450  0.00  0.00    +0.115 A 
ATOM     28  C   UNL     1       1.224  -3.850   5.603  0.00  0.00    +0.051 A 
ATOM     29  N   UNL     1       1.836  -4.561   6.553  0.00  0.00    -0.342 N 
ATOM     30  H   UNL     1       1.952  -4.284   7.476  0.00  0.00    +0.167 HD
ENDBRANCH  19  28
ENDBRANCH  15  19
ENDBRANCH   1  16
BRANCH  11  31
ATOM     31  C   UNL     1      -6.609   0.287   9.337  0.00  0.00    +0.256 C 
ATOM     32  C   UNL     1      -6.012   1.524  10.011  0.00  0.00    +0.062 C 
BRANCH  31  33
ATOM     33  O   UNL     1      -8.009   0.486   9.130  0.00  0.00    -0.480 OA
BRANCH  33  34
ATOM     34  C   UNL     1      -8.834   0.190  10.169  0.00  0.00    +0.122 A 
ATOM     35  C   UNL     1     -10.210   0.240   9.999  0.00  0.00    +0.045 A 
ATOM     36  C   UNL     1     -11.047  -0.062  11.056  0.00  0.00    +0.004 A 
ATOM     37  C   UNL     1     -10.514  -0.413  12.282  0.00  0.00    +0.000 A 
ATOM     38  C   UNL     1      -9.144  -0.464  12.454  0.00  0.00    +0.004 A 
ATOM     39  C   UNL     1      -8.303  -0.168  11.399  0.00  0.00    +0.045 A 
ENDBRANCH  33  34
ENDBRANCH  31  33
ENDBRANCH  11  31
TORSDOF 6
