REMARK  Name = ZINC39464291
REMARK  4 active torsions:
REMARK  status: ('A' for Active; 'I' for Inactive)
REMARK    1  A    between atoms: C_4  and  O_31
REMARK    2  A    between atoms: C_5  and  C_7
REMARK    3  A    between atoms: P_18  and  C_24
REMARK    4  A    between atoms: C_29  and  O_30
REMARK                            x       y       z     vdW  Elec       q    Type
REMARK                         _______ _______ _______ _____ _____    ______ ____
ROOT
ATOM      1  C   UNL     1       1.244  -2.166  -0.021  0.00  0.00    +0.021 A 
ATOM      2  C   UNL     1       0.743  -2.869  -1.113  0.00  0.00    +0.015 A 
ATOM      3  C   UNL     1       0.767  -4.253  -1.120  0.00  0.00    -0.041 A 
ATOM      4  C   UNL     1       1.288  -4.943  -0.045  0.00  0.00    -0.021 A 
ATOM      5  C   UNL     1       1.789  -4.246   1.046  0.00  0.00    +0.044 A 
ATOM      6  C   UNL     1       1.776  -2.866   1.062  0.00  0.00    +0.132 A 
ATOM      7  F   UNL     1       2.272  -2.195   2.125  0.00  0.00    -0.205 F 
ATOM      8  C   UNL     1       1.333  -6.449  -0.006  0.00  0.00    +0.129 C 
ATOM      9  C   UNL     1       2.686  -6.893   0.556  0.00  0.00    +0.194 C 
ATOM     10  O   UNL     1       2.678  -8.327   0.700  0.00  0.00    -0.311 OA
ATOM     11  P   UNL     1       2.204  -9.226  -0.570  0.00  0.00    +0.318 P 
ATOM     12  O   UNL     1       3.319  -9.384  -1.530  0.00  0.00    -0.266 OA
ATOM     13  N   UNL     1       0.962  -8.387  -1.270  0.00  0.00    -0.175 NA
ATOM     14  N   UNL     1       1.122  -7.018  -1.337  0.00  0.00    -0.225 NA
ATOM     15  C   UNL     1      -0.060  -6.426  -1.981  0.00  0.00    +0.108 C 
ATOM     16  C   UNL     1       0.216  -4.974  -2.324  0.00  0.00    +0.052 C 
ATOM     17  H   UNL     1       0.176  -8.837  -1.619  0.00  0.00    +0.151 HD
ENDROOT
BRANCH   1  22
ATOM     18  C   UNL     1      -0.017   1.376   0.010  0.00  0.00    +0.001 A 
ATOM     19  C   UNL     1       1.169   2.089   0.002  0.00  0.00    +0.004 A 
ATOM     20  C   UNL     1       2.382   1.426  -0.013  0.00  0.00    +0.046 A 
ATOM     21  C   UNL     1       2.415   0.041  -0.021  0.00  0.00    +0.125 A 
ATOM     22  C   UNL     1       1.219  -0.683  -0.013  0.00  0.00    +0.026 A 
ATOM     23  C   UNL     1       0.002  -0.004   0.002  0.00  0.00    +0.012 A 
BRANCH  21  24
ATOM     24  O   UNL     1       3.606  -0.613  -0.036  0.00  0.00    -0.506 OA
ATOM     25  H   UNL     1       3.960  -0.806   0.843  0.00  0.00    +0.292 HD
ENDBRANCH  21  24
ENDBRANCH   1  22
BRANCH  11  26
ATOM     26  C   UNL     1       1.627 -10.851  -0.007  0.00  0.00    +0.094 A 
ATOM     27  C   UNL     1       0.296 -11.041   0.311  0.00  0.00    +0.018 A 
ATOM     28  C   UNL     1      -0.143 -12.279   0.740  0.00  0.00    +0.001 A 
ATOM     29  C   UNL     1       0.747 -13.331   0.852  0.00  0.00    +0.004 A 
ATOM     30  C   UNL     1       2.079 -13.147   0.534  0.00  0.00    +0.046 A 
ATOM     31  C   UNL     1       2.522 -11.906   0.098  0.00  0.00    +0.131 A 
BRANCH  31  32
ATOM     32  O   UNL     1       3.830 -11.724  -0.220  0.00  0.00    -0.506 OA
ATOM     33  H   UNL     1       4.380 -11.442   0.523  0.00  0.00    +0.292 HD
ENDBRANCH  31  32
ENDBRANCH  11  26
TORSDOF 4
