REMARK  Name = ZINC67375862
REMARK  3 active torsions:
REMARK  status: ('A' for Active; 'I' for Inactive)
REMARK    1  A    between atoms: C_8  and  C_13
REMARK    2  A    between atoms: C_13  and  N_14
REMARK    3  A    between atoms: C_18  and  C_20
REMARK                            x       y       z     vdW  Elec       q    Type
REMARK                         _______ _______ _______ _____ _____    ______ ____
ROOT
ATOM      1  C   UNL     1       2.086  -4.257   0.675  0.00  0.00    +0.158 C 
ENDROOT
BRANCH   1   9
ATOM      2  C   UNL     1      -0.017   1.377   0.010  0.00  0.00    +0.002 A 
ATOM      3  C   UNL     1       1.167   2.091   0.002  0.00  0.00    +0.002 A 
ATOM      4  C   UNL     1       2.380   1.423  -0.012  0.00  0.00    +0.031 A 
ATOM      5  C   UNL     1       2.401   0.047  -0.019  0.00  0.00    +0.134 A 
ATOM      6  C   UNL     1       1.216  -0.680  -0.014  0.00  0.00    +0.059 A 
ATOM      7  C   UNL     1       0.002  -0.004   0.002  0.00  0.00    +0.025 A 
ATOM      8  N   UNL     1       1.252  -2.072  -0.030  0.00  0.00    -0.299 N 
ATOM      9  C   UNL     1       2.333  -2.816   0.308  0.00  0.00    +0.135 C 
ATOM     10  N   UNL     1       3.547  -2.405   0.345  0.00  0.00    -0.117 NA
ATOM     11  S   UNL     1       3.929  -0.836  -0.034  0.00  0.00    +0.102 S 
ATOM     12  O   UNL     1       4.389  -0.838  -1.379  0.00  0.00    -0.146 OA
ATOM     13  O   UNL     1       4.707  -0.331   1.042  0.00  0.00    -0.146 OA
ATOM     14  H   UNL     1       0.447  -2.541  -0.302  0.00  0.00    +0.153 HD
ENDBRANCH   1   9
BRANCH   1  15
ATOM     15  N   UNL     1       3.361  -4.903   1.011  0.00  0.00    -0.286 NA
ATOM     16  C   UNL     1       3.906  -4.374   2.280  0.00  0.00    +0.085 C 
ATOM     17  C   UNL     1       4.628  -5.578   2.933  0.00  0.00    +0.017 C 
ATOM     18  C   UNL     1       3.686  -6.751   2.554  0.00  0.00    +0.028 C 
ATOM     19  C   UNL     1       3.196  -6.362   1.143  0.00  0.00    +0.126 C 
BRANCH  19  20
ATOM     20  C   UNL     1       1.744  -6.730   0.985  0.00  0.00    +0.155 A 
ATOM     21  N   UNL     1       0.727  -6.118   1.534  0.00  0.00    -0.132 NA
ATOM     22  N   UNL     1      -0.375  -6.689   1.192  0.00  0.00    -0.129 NA
ATOM     23  C   UNL     1      -0.114  -7.711   0.394  0.00  0.00    +0.161 A 
ATOM     24  N   UNL     1       1.250  -7.756   0.239  0.00  0.00    -0.285 N 
ATOM     25  C   UNL     1       1.826  -8.712  -0.544  0.00  0.00    +0.094 A 
ATOM     26  C   UNL     1       1.064  -9.626  -1.181  0.00  0.00    +0.018 A 
ATOM     27  C   UNL     1      -0.335  -9.604  -1.045  0.00  0.00    +0.005 A 
ATOM     28  C   UNL     1      -0.921  -8.661  -0.260  0.00  0.00    +0.048 A 
ENDBRANCH  19  20
ENDBRANCH   1  15
TORSDOF 3
