REMARK  Name = ZINC19651314
REMARK  8 active torsions:
REMARK  status: ('A' for Active; 'I' for Inactive)
REMARK    1  A    between atoms: C_1  and  C_2
REMARK    2  A    between atoms: C_2  and  C_4
REMARK    3  A    between atoms: C_2  and  N_13
REMARK    4  A    between atoms: N_6  and  C_7
REMARK    5  A    between atoms: C_24  and  C_28
REMARK    6  A    between atoms: C_28  and  C_29
REMARK    7  A    between atoms: C_28  and  C_30
REMARK    8  A    between atoms: C_28  and  C_31
REMARK                            x       y       z     vdW  Elec       q    Type
REMARK                         _______ _______ _______ _____ _____    ______ ____
ROOT
ATOM      1  N   UNL     1       1.587  -6.328   0.673  0.00  0.00    -0.199 N 
ATOM      2  C   UNL     1       1.263  -5.059   1.020  0.00  0.00    +0.279 A 
ATOM      3  O   UNL     1       0.986  -4.750   2.167  0.00  0.00    -0.265 OA
ATOM      4  C   UNL     1       1.267  -4.101  -0.051  0.00  0.00    +0.079 A 
ATOM      5  C   UNL     1       0.959  -2.688   0.053  0.00  0.00    -0.023 A 
ATOM      6  C   UNL     1       1.024  -1.965  -1.092  0.00  0.00    -0.004 A 
ATOM      7  S   UNL     1       1.496  -3.128  -2.347  0.00  0.00    -0.071 S 
ATOM      8  C   UNL     1       1.603  -4.573  -1.339  0.00  0.00    +0.138 A 
ATOM      9  N   UNL     1       1.913  -5.836  -1.616  0.00  0.00    -0.123 NA
ATOM     10  N   UNL     1       1.904  -6.688  -0.638  0.00  0.00    -0.061 NA
ATOM     11  C   UNL     1       0.753  -0.502  -1.258  0.00  0.00    +0.046 C 
ATOM     12  C   UNL     1       0.026   0.003  -0.004  0.00  0.00    -0.000 C 
ATOM     13  C   UNL     1       0.770  -0.508   1.233  0.00  0.00    +0.009 C 
ATOM     14  C   UNL     1       0.576  -2.018   1.370  0.00  0.00    +0.037 C 
ENDROOT
BRANCH  12  15
ATOM     15  C   UNL     1       0.012   1.533   0.001  0.00  0.00    -0.035 C 
ATOM     16  C   UNL     1       1.449   2.056  -0.019  0.00  0.00    +0.011 C 
ATOM     17  C   UNL     1      -0.733   2.040  -1.236  0.00  0.00    +0.011 C 
ATOM     18  C   UNL     1      -0.696   2.032   1.262  0.00  0.00    +0.011 C 
ENDBRANCH  12  15
BRANCH   1  20
ATOM     19  C   UNL     1       0.598  -8.458   1.357  0.00  0.00    +0.043 C 
ATOM     20  C   UNL     1       1.604  -7.361   1.712  0.00  0.00    +0.195 C 
BRANCH  20  21
ATOM     21  C   UNL     1       2.985  -7.957   1.804  0.00  0.00    +0.242 C 
ATOM     22  O   UNL     1       3.868  -7.558   1.075  0.00  0.00    -0.273 OA
ATOM     23  N   UNL     1       3.240  -8.933   2.698  0.00  0.00    -0.284 N 
ATOM     24  H   UNL     1       2.461  -9.242   3.411  0.00  0.00    +0.155 HD
BRANCH  23  25
ATOM     25  C   UNL     1       4.494  -9.553   2.719  0.00  0.00    +0.033 A 
ATOM     26  C   UNL     1       4.597 -10.903   3.029  0.00  0.00    +0.023 A 
ATOM     27  C   UNL     1       5.836 -11.514   3.043  0.00  0.00    +0.002 A 
ATOM     28  C   UNL     1       6.973 -10.780   2.760  0.00  0.00    +0.000 A 
ATOM     29  C   UNL     1       6.874  -9.434   2.457  0.00  0.00    +0.002 A 
ATOM     30  C   UNL     1       5.638  -8.819   2.436  0.00  0.00    +0.023 A 
ENDBRANCH  23  25
ENDBRANCH  20  21
ENDBRANCH   1  20
TORSDOF 4
