REMARK  Name = ZINC20236579
REMARK  5 active torsions:
REMARK  status: ('A' for Active; 'I' for Inactive)
REMARK    1  A    between atoms: C_1  and  C_2
REMARK    2  A    between atoms: C_9  and  C_10
REMARK    3  A    between atoms: C_13  and  O_16
REMARK    4  A    between atoms: O_16  and  C_17
REMARK    5  A    between atoms: C_17  and  C_19
REMARK                            x       y       z     vdW  Elec       q    Type
REMARK                         _______ _______ _______ _____ _____    ______ ____
ROOT
ATOM      1  C   UNL     1       0.634  -6.802   1.129  0.00  0.00    -0.024 A 
ATOM      2  C   UNL     1      -0.755  -6.885   0.958  0.00  0.00    +0.011 A 
ATOM      3  C   UNL     1      -1.417  -8.036   1.296  0.00  0.00    +0.047 A 
ATOM      4  C   UNL     1      -0.714  -9.122   1.808  0.00  0.00    +0.132 A 
ATOM      5  C   UNL     1       0.664  -9.046   1.981  0.00  0.00    +0.047 A 
ATOM      6  C   UNL     1       1.338  -7.902   1.641  0.00  0.00    +0.011 A 
ENDROOT
BRANCH   1  15
ATOM      7  C   UNL     1       8.248  -3.543   1.694  0.00  0.00    +0.089 C 
ATOM      8  C   UNL     1       6.814  -3.990   1.816  0.00  0.00    +0.134 C 
ATOM      9  C   UNL     1       6.335  -4.831   2.759  0.00  0.00    +0.091 C 
ATOM     10  C   UNL     1       4.960  -4.996   2.547  0.00  0.00    +0.168 C 
ATOM     11  N   UNL     1       4.087  -5.762   3.200  0.00  0.00    -0.156 NA
ATOM     12  C   UNL     1       2.814  -5.829   2.784  0.00  0.00    +0.273 C 
ATOM     13  O   UNL     1       1.978  -6.426   3.444  0.00  0.00    -0.268 OA
ATOM     14  C   UNL     1       2.435  -5.168   1.510  0.00  0.00    +0.082 C 
ATOM     15  C   UNL     1       1.348  -5.574   0.770  0.00  0.00    +0.024 C 
ATOM     16  C   UNL     1       3.310  -4.033   1.083  0.00  0.00    +0.156 C 
ATOM     17  N   UNL     1       2.879  -3.006   0.399  0.00  0.00    -0.382 N 
ATOM     18  N   UNL     1       4.628  -4.186   1.490  0.00  0.00    -0.144 N 
ATOM     19  O   UNL     1       5.811  -3.612   1.007  0.00  0.00    -0.375 OA
ATOM     20  H   UNL     1       1.945  -2.952   0.141  0.00  0.00    +0.157 HD
ATOM     21  H   UNL     1       3.493  -2.298   0.149  0.00  0.00    +0.157 HD
ENDBRANCH   1  15
BRANCH   4  22
ATOM     22  O   UNL     1      -1.375 -10.259   2.141  0.00  0.00    -0.422 OA
BRANCH  22  23
ATOM     23  C   UNL     1      -1.758 -11.083   1.145  0.00  0.00    +0.344 C 
ATOM     24  O   UNL     1      -1.589 -10.756  -0.013  0.00  0.00    -0.245 OA
BRANCH  23  25
ATOM     25  C   UNL     1      -2.382 -12.382   1.462  0.00  0.00    +0.060 A 
ATOM     26  C   UNL     1      -2.583 -12.758   2.792  0.00  0.00    +0.018 A 
ATOM     27  C   UNL     1      -3.167 -13.973   3.081  0.00  0.00    +0.039 A 
ATOM     28  C   UNL     1      -3.554 -14.821   2.055  0.00  0.00    +0.123 A 
ATOM     29  C   UNL     1      -3.357 -14.453   0.733  0.00  0.00    +0.039 A 
ATOM     30  C   UNL     1      -2.780 -13.238   0.431  0.00  0.00    +0.018 A 
ATOM     31  F   UNL     1      -4.125 -16.011   2.345  0.00  0.00    -0.205 F 
ENDBRANCH  23  25
ENDBRANCH  22  23
ENDBRANCH   4  22
TORSDOF 4
