REMARK  Name = ZINC22170622
REMARK  6 active torsions:
REMARK  status: ('A' for Active; 'I' for Inactive)
REMARK    1  A    between atoms: C_1  and  C_2
REMARK    2  A    between atoms: C_5  and  C_7
REMARK    3  A    between atoms: C_5  and  O_14
REMARK    4  A    between atoms: C_15  and  C_17
REMARK    5  A    between atoms: C_17  and  C_18
REMARK    6  A    between atoms: C_21  and  N_24
REMARK                            x       y       z     vdW  Elec       q    Type
REMARK                         _______ _______ _______ _____ _____    ______ ____
ROOT
ATOM      1  C   UNL     1       7.090  -1.524  -0.418  0.00  0.00    +0.062 C 
ATOM      2  C   UNL     1       5.981  -0.905  -1.230  0.00  0.00    +0.039 C 
ATOM      3  N   UNL     1       4.959  -0.327  -0.748  0.00  0.00    -0.184 NA
ATOM      4  N   UNL     1       4.069   0.164  -1.702  0.00  0.00    -0.157 N 
ATOM      5  C   UNL     1       4.602  -0.134  -3.042  0.00  0.00    +0.187 C 
ATOM      6  C   UNL     1       5.922  -0.873  -2.741  0.00  0.00    +0.114 C 
ATOM      7  C   UNL     1       2.915   0.809  -1.442  0.00  0.00    +0.242 C 
ATOM      8  O   UNL     1       2.219   1.199  -2.355  0.00  0.00    -0.273 OA
ENDROOT
BRANCH   5   9
ATOM      9  C   UNL     1       3.656  -1.026  -3.804  0.00  0.00    +0.004 A 
ATOM     10  C   UNL     1       3.680  -1.038  -5.186  0.00  0.00    +0.009 A 
ATOM     11  C   UNL     1       2.817  -1.860  -5.886  0.00  0.00    +0.020 A 
ATOM     12  C   UNL     1       1.921  -2.662  -5.203  0.00  0.00    +0.041 A 
ATOM     13  C   UNL     1       1.893  -2.646  -3.820  0.00  0.00    +0.020 A 
ATOM     14  C   UNL     1       2.761  -1.828  -3.121  0.00  0.00    +0.009 A 
ATOM     15 CL   UNL     1       0.831  -3.689  -6.081  0.00  0.00    -0.084 Cl
ENDBRANCH   5   9
BRANCH   5  16
ATOM     16  O   UNL     1       4.853   1.072  -3.765  0.00  0.00    -0.366 OA
ATOM     17  H   UNL     1       5.255   1.027  -4.788  0.00  0.00    +0.212 HD
ENDBRANCH   5  16
BRANCH   7  18
ATOM     18  C   UNL     1       2.490   1.048  -0.016  0.00  0.00    +0.133 C 
BRANCH  18  19
ATOM     19  C   UNL     1       1.175   1.783   0.000  0.00  0.00    -0.038 A 
ATOM     20  C   UNL     1      -0.013   1.076   0.008  0.00  0.00    +0.006 A 
ATOM     21  C   UNL     1      -1.219   1.751   0.017  0.00  0.00    +0.033 A 
ATOM     22  C   UNL     1      -1.238   3.133   0.029  0.00  0.00    +0.126 A 
ATOM     23  C   UNL     1      -0.050   3.840   0.022  0.00  0.00    +0.033 A 
ATOM     24  C   UNL     1       1.156   3.165   0.008  0.00  0.00    +0.006 A 
BRANCH  22  25
ATOM     25  N   UNL     1      -2.529   3.855   0.044  0.00  0.00    +0.056 N 
ATOM     26  O   UNL     1      -2.546   5.073   0.050  0.00  0.00    -0.126 OA
ATOM     27  O   UNL     1      -3.576   3.232   0.050  0.00  0.00    -0.126 OA
ENDBRANCH  22  25
ENDBRANCH  18  19
ENDBRANCH   7  18
TORSDOF 5
