REMARK  Name = ZINC43570043
REMARK  3 active torsions:
REMARK  status: ('A' for Active; 'I' for Inactive)
REMARK    1  A    between atoms: C_1  and  C_2
REMARK    2  A    between atoms: C_4  and  N_9
REMARK    3  A    between atoms: C_7  and  N_8
REMARK                            x       y       z     vdW  Elec       q    Type
REMARK                         _______ _______ _______ _____ _____    ______ ____
ROOT
ATOM      1  N   UNL     1       0.028  -2.771  -2.425  0.00  0.00    -0.202 N 
ATOM      2  C   UNL     1       0.020  -2.184  -3.635  0.00  0.00    +0.258 C 
ATOM      3  O   UNL     1       0.009  -0.987  -3.843  0.00  0.00    -0.269 OA
ATOM      4  C   UNL     1       0.028  -3.238  -4.670  0.00  0.00    +0.050 A 
ATOM      5  C   UNL     1       0.025  -3.234  -6.056  0.00  0.00    +0.015 A 
ATOM      6  C   UNL     1       0.034  -4.435  -6.747  0.00  0.00    +0.016 A 
ATOM      7  C   UNL     1       0.046  -5.637  -6.063  0.00  0.00    +0.019 A 
ATOM      8  C   UNL     1       0.049  -5.657  -4.676  0.00  0.00    +0.029 A 
ATOM      9  C   UNL     1       0.040  -4.463  -3.973  0.00  0.00    +0.051 A 
ATOM     10  C   UNL     1       0.046  -4.111  -2.537  0.00  0.00    +0.258 C 
ATOM     11  O   UNL     1       0.061  -4.900  -1.613  0.00  0.00    -0.269 OA
ATOM     12 BR   UNL     1       0.058  -7.265  -7.025  0.00  0.00    -0.050 Br
ENDROOT
BRANCH   1  16
ATOM     13  C   UNL     1      -0.018   1.503   0.010  0.00  0.00    +0.046 C 
ATOM     14  C   UNL     1       0.002  -0.004   0.002  0.00  0.00    -0.028 A 
ATOM     15  C   UNL     1       0.006  -0.688  -1.198  0.00  0.00    +0.029 A 
ATOM     16  C   UNL     1       0.025  -2.076  -1.205  0.00  0.00    +0.045 A 
ATOM     17  C   UNL     1       0.039  -2.777  -0.007  0.00  0.00    +0.026 A 
ATOM     18  C   UNL     1       0.035  -2.094   1.193  0.00  0.00    +0.025 A 
ATOM     19  C   UNL     1       0.023  -0.705   1.201  0.00  0.00    +0.028 A 
BRANCH  19  20
ATOM     20  N   UNL     1       0.026  -0.012   2.416  0.00  0.00    -0.358 N 
ATOM     21  H   UNL     1       0.013   0.958   2.421  0.00  0.00    +0.142 HD
ATOM     22  H   UNL     1       0.040  -0.502   3.253  0.00  0.00    +0.142 HD
ENDBRANCH  19  20
ENDBRANCH   1  16
TORSDOF 2
