REMARK  Name = ZINC21523542
REMARK  9 active torsions:
REMARK  status: ('A' for Active; 'I' for Inactive)
REMARK    1  A    between atoms: C_1  and  C_2
REMARK    2  A    between atoms: C_4  and  C_32
REMARK    3  A    between atoms: C_11  and  C_13
REMARK    4  A    between atoms: C_14  and  C_20
REMARK    5  A    between atoms: C_23  and  O_28
REMARK    6  A    between atoms: C_24  and  O_26
REMARK    7  A    between atoms: O_26  and  C_27
REMARK    8  A    between atoms: O_28  and  C_29
REMARK    9  A    between atoms: C_29  and  C_30
REMARK                            x       y       z     vdW  Elec       q    Type
REMARK                         _______ _______ _______ _____ _____    ______ ____
ROOT
ATOM      1  C   UNL     1      -5.781  -4.045   1.543  0.00  0.00    +0.066 C 
ATOM      2  C   UNL     1      -4.616  -4.106   2.498  0.00  0.00    +0.044 A 
ATOM      3  C   UNL     1      -4.801  -4.534   3.804  0.00  0.00    +0.046 A 
ATOM      4  C   UNL     1      -3.702  -4.575   4.648  0.00  0.00    +0.044 A 
ATOM      5  N   UNL     1      -2.519  -4.207   4.186  0.00  0.00    -0.216 NA
ATOM      6  C   UNL     1      -2.378  -3.803   2.933  0.00  0.00    +0.253 A 
ATOM      7  N   UNL     1      -3.406  -3.748   2.102  0.00  0.00    -0.216 NA
ATOM      8  N   UNL     1      -1.116  -3.422   2.480  0.00  0.00    -0.183 N 
ATOM      9  C   UNL     1      -0.812  -2.990   1.237  0.00  0.00    +0.136 A 
ATOM     10  C   UNL     1       0.528  -2.710   1.213  0.00  0.00    +0.023 A 
ATOM     11  C   UNL     1       1.047  -2.991   2.469  0.00  0.00    +0.066 A 
ATOM     12  N   UNL     1       0.070  -3.417   3.233  0.00  0.00    -0.167 NA
ATOM     13  C   UNL     1       2.487  -2.832   2.885  0.00  0.00    +0.068 C 
ATOM     14  C   UNL     1       1.222  -2.189  -0.020  0.00  0.00    +0.063 C 
ATOM     15  C   UNL     1       0.470  -2.706  -1.251  0.00  0.00    +0.109 C 
ATOM     16  C   UNL     1      -1.017  -2.586  -1.072  0.00  0.00    +0.219 C 
ATOM     17  O   UNL     1      -1.699  -2.259  -2.021  0.00  0.00    -0.275 OA
ATOM     18  N   UNL     1      -1.619  -2.830   0.112  0.00  0.00    -0.270 N 
ATOM     19  C   UNL     1      -3.854  -5.033   6.076  0.00  0.00    +0.066 C 
ATOM     20  H   UNL     1      -2.712  -2.905   0.204  0.00  0.00    +0.156 HD
ENDROOT
BRANCH  14  21
ATOM     21  C   UNL     1       1.207  -0.682  -0.013  0.00  0.00    -0.036 A 
ATOM     22  C   UNL     1       0.002  -0.004   0.002  0.00  0.00    +0.008 A 
ATOM     23  C   UNL     1      -0.017   1.378   0.010  0.00  0.00    +0.050 A 
ATOM     24  C   UNL     1       1.174   2.087   0.002  0.00  0.00    +0.163 A 
ATOM     25  C   UNL     1       2.386   1.405  -0.013  0.00  0.00    +0.162 A 
ATOM     26  C   UNL     1       2.398   0.019  -0.020  0.00  0.00    +0.053 A 
BRANCH  25  27
ATOM     27  O   UNL     1       3.558   2.096  -0.019  0.00  0.00    -0.491 OA
ATOM     28  C   UNL     1       4.763   1.330  -0.034  0.00  0.00    +0.277 C 
ENDBRANCH  25  27
BRANCH  24  29
ATOM     29  O   UNL     1       1.157   3.447   0.009  0.00  0.00    -0.476 OA
BRANCH  29  30
ATOM     30  C   UNL     1      -0.124   4.080   0.025  0.00  0.00    +0.317 C 
BRANCH  30  31
ATOM     31  C   UNL     1       0.051   5.542   0.031  0.00  0.00    -0.065 C 
ATOM     32  C   UNL     1       0.191   6.707   0.036  0.00  0.00    +0.007 C 
ENDBRANCH  30  31
ENDBRANCH  29  30
ENDBRANCH  24  29
ENDBRANCH  14  21
TORSDOF 5
