REMARK  Name = ZINC52687273
REMARK  4 active torsions:
REMARK  status: ('A' for Active; 'I' for Inactive)
REMARK    1  A    between atoms: C_11  and  C_15
REMARK    2  A    between atoms: C_15  and  S_16
REMARK    3  A    between atoms: S_16  and  C_17
REMARK    4  A    between atoms: N_21  and  C_22
REMARK                            x       y       z     vdW  Elec       q    Type
REMARK                         _______ _______ _______ _____ _____    ______ ____
ROOT
ATOM      1  C   UNL     1      -0.019   1.524   0.010  0.00  0.00    +0.005 C 
ATOM      2  C   UNL     1       1.415   2.064  -0.000  0.00  0.00    +0.005 C 
ATOM      3  C   UNL     1       2.060   1.770   1.361  0.00  0.00    +0.043 C 
ATOM      4  C   UNL     1       1.796   0.339   1.712  0.00  0.00    -0.004 A 
ATOM      5  C   UNL     1       0.894  -0.493   1.140  0.00  0.00    -0.023 A 
ATOM      6  C   UNL     1       0.832  -1.845   1.664  0.00  0.00    +0.075 A 
ATOM      7  C   UNL     1      -0.037  -2.900   1.223  0.00  0.00    +0.260 A 
ATOM      8  O   UNL     1      -0.842  -2.742   0.322  0.00  0.00    -0.267 OA
ATOM      9  N   UNL     1       0.096  -4.080   1.873  0.00  0.00    -0.310 N 
ATOM     10  H   UNL     1      -0.472  -4.821   1.607  0.00  0.00    +0.170 HD
ATOM     11  C   UNL     1       0.984  -4.277   2.876  0.00  0.00    +0.121 A 
ATOM     12  N   UNL     1       1.796  -3.337   3.308  0.00  0.00    -0.226 NA
ATOM     13  C   UNL     1       1.723  -2.147   2.718  0.00  0.00    +0.116 A 
ATOM     14  S   UNL     1       2.596  -0.633   2.964  0.00  0.00    -0.073 S 
ATOM     15  C   UNL     1       0.002  -0.004   0.002  0.00  0.00    +0.037 C 
ENDROOT
BRANCH  11  16
ATOM     16  C   UNL     1       1.046  -5.634   3.527  0.00  0.00    +0.151 C 
BRANCH  16  17
ATOM     17  S   UNL     1       2.309  -5.624   4.829  0.00  0.00    -0.077 S 
BRANCH  17  18
ATOM     18  C   UNL     1       2.259  -7.259   5.484  0.00  0.00    +0.210 A 
ATOM     19  N   UNL     1       1.474  -8.236   5.087  0.00  0.00    -0.101 NA
ATOM     20  N   UNL     1       1.693  -9.298   5.776  0.00  0.00    -0.022 NA
ATOM     21  N   UNL     1       2.617  -9.083   6.649  0.00  0.00    -0.043 NA
ATOM     22  N   UNL     1       3.026  -7.747   6.488  0.00  0.00    -0.217 N 
BRANCH  22  23
ATOM     23  C   UNL     1       4.058  -7.035   7.246  0.00  0.00    +0.112 C 
ATOM     24  C   UNL     1       5.405  -7.778   7.131  0.00  0.00    +0.027 C 
ATOM     25  C   UNL     1       6.048  -7.618   8.531  0.00  0.00    +0.002 C 
ATOM     26  C   UNL     1       4.832  -7.745   9.482  0.00  0.00    +0.002 C 
ATOM     27  C   UNL     1       3.693  -7.014   8.741  0.00  0.00    +0.027 C 
ENDBRANCH  22  23
ENDBRANCH  17  18
ENDBRANCH  16  17
ENDBRANCH  11  16
TORSDOF 4
