REMARK  Name = ZINC04737306
REMARK  3 active torsions:
REMARK  status: ('A' for Active; 'I' for Inactive)
REMARK    1  A    between atoms: C_4  and  C_7
REMARK    2  A    between atoms: C_7  and  C_22
REMARK    3  A    between atoms: N_15  and  N_16
REMARK                            x       y       z     vdW  Elec       q    Type
REMARK                         _______ _______ _______ _____ _____    ______ ____
ROOT
ATOM      1  C   UNL     1       3.413  -0.552   0.189  0.00  0.00    +0.110 C 
ATOM      2  C   UNL     1       2.753  -1.878   0.479  0.00  0.00    -0.016 A 
ATOM      3  C   UNL     1       1.606  -2.464  -0.014  0.00  0.00    +0.006 A 
ATOM      4  C   UNL     1       1.220  -3.716   0.433  0.00  0.00    +0.000 A 
ATOM      5  C   UNL     1       1.982  -4.382   1.376  0.00  0.00    +0.001 A 
ATOM      6  C   UNL     1       3.130  -3.805   1.875  0.00  0.00    +0.010 A 
ATOM      7  C   UNL     1       3.527  -2.541   1.429  0.00  0.00    +0.010 A 
ATOM      8  C   UNL     1       4.692  -1.703   1.789  0.00  0.00    +0.135 C 
ATOM      9  N   UNL     1       5.630  -2.033   2.663  0.00  0.00    -0.168 NA
ATOM     10  C   UNL     1       4.648  -0.498   1.057  0.00  0.00    +0.203 C 
ATOM     11  O   UNL     1       5.452   0.411   1.113  0.00  0.00    -0.289 OA
ENDROOT
BRANCH   9  12
ATOM     12  N   UNL     1       5.755  -3.260   3.043  0.00  0.00    -0.248 N 
ATOM     13  C   UNL     1       6.620  -3.574   4.005  0.00  0.00    +0.187 C 
ATOM     14  N   UNL     1       7.373  -2.600   4.589  0.00  0.00    -0.370 N 
ATOM     15  N   UNL     1       6.752  -4.869   4.406  0.00  0.00    -0.370 N 
ATOM     16  H   UNL     1       7.279  -1.677   4.303  0.00  0.00    +0.159 HD
ATOM     17  H   UNL     1       8.003  -2.828   5.290  0.00  0.00    +0.159 HD
ATOM     18  H   UNL     1       6.216  -5.562   3.991  0.00  0.00    +0.159 HD
ATOM     19  H   UNL     1       7.382  -5.098   5.107  0.00  0.00    +0.159 HD
ATOM     20  H   UNL     1       5.219  -3.953   2.628  0.00  0.00    +0.192 HD
ENDBRANCH   9  12
BRANCH   1  24
ATOM     21  C   UNL     1       0.774   2.655   1.189  0.00  0.00    +0.000 A 
ATOM     22  C   UNL     1       1.914   2.439   1.940  0.00  0.00    +0.000 A 
ATOM     23  C   UNL     1       2.768   1.401   1.616  0.00  0.00    +0.005 A 
ATOM     24  C   UNL     1       2.481   0.579   0.542  0.00  0.00    -0.025 A 
ATOM     25  C   UNL     1       1.340   0.794  -0.207  0.00  0.00    +0.005 A 
ATOM     26  C   UNL     1       0.487   1.833   0.115  0.00  0.00    +0.000 A 
ENDBRANCH   1  24
BRANCH   1  27
ATOM     27  C   UNL     1       3.797  -0.470  -1.266  0.00  0.00    -0.025 A 
ATOM     28  C   UNL     1       3.588  -1.554  -2.098  0.00  0.00    +0.005 A 
ATOM     29  C   UNL     1       3.941  -1.480  -3.432  0.00  0.00    +0.000 A 
ATOM     30  C   UNL     1       4.502  -0.321  -3.935  0.00  0.00    +0.000 A 
ATOM     31  C   UNL     1       4.711   0.763  -3.103  0.00  0.00    +0.000 A 
ATOM     32  C   UNL     1       4.354   0.690  -1.770  0.00  0.00    +0.005 A 
ENDBRANCH   1  27
TORSDOF 3
