REMARK  Name = ZINC57681383
REMARK  3 active torsions:
REMARK  status: ('A' for Active; 'I' for Inactive)
REMARK    1  A    between atoms: C_5  and  C_7
REMARK    2  A    between atoms: C_13  and  S_20
REMARK    3  A    between atoms: S_20  and  N_23
REMARK                            x       y       z     vdW  Elec       q    Type
REMARK                         _______ _______ _______ _____ _____    ______ ____
ROOT
ATOM      1  C   UNL     1       1.229  -2.186  -0.022  0.00  0.00    +0.192 C 
ATOM      2  N   UNL     1       2.366  -2.665   0.760  0.00  0.00    -0.322 N 
ATOM      3  C   UNL     1       2.446  -2.550   2.145  0.00  0.00    +0.057 A 
ATOM      4  C   UNL     1       3.700  -2.598   2.752  0.00  0.00    +0.047 A 
ATOM      5  C   UNL     1       3.811  -2.504   4.124  0.00  0.00    +0.069 A 
ATOM      6  C   UNL     1       2.678  -2.361   4.908  0.00  0.00    +0.125 A 
ATOM      7  C   UNL     1       1.432  -2.306   4.311  0.00  0.00    +0.060 A 
ATOM      8  C   UNL     1       1.318  -2.393   2.939  0.00  0.00    +0.128 A 
ATOM      9  S   UNL     1      -0.274  -2.282   2.180  0.00  0.00    +0.062 S 
ATOM     10  O   UNL     1      -0.646  -0.911   2.193  0.00  0.00    -0.153 OA
ATOM     11  O   UNL     1      -1.080  -3.303   2.753  0.00  0.00    -0.153 OA
ATOM     12  N   UNL     1      -0.016  -2.702   0.583  0.00  0.00    -0.166 NA
ATOM     13 CL   UNL     1       5.377  -2.563   4.871  0.00  0.00    -0.081 Cl
ATOM     14  H   UNL     1       3.103  -3.086   0.290  0.00  0.00    +0.148 HD
ATOM     15  H   UNL     1      -0.642  -3.251   0.085  0.00  0.00    +0.150 HD
ENDROOT
BRANCH   1  20
ATOM     16  C   UNL     1      -0.017   1.378   0.010  0.00  0.00    +0.000 A 
ATOM     17  C   UNL     1       1.171   2.086   0.002  0.00  0.00    +0.001 A 
ATOM     18  C   UNL     1       2.377   1.412  -0.013  0.00  0.00    +0.020 A 
ATOM     19  C   UNL     1       2.397   0.029  -0.021  0.00  0.00    +0.047 A 
ATOM     20  C   UNL     1       1.208  -0.679  -0.013  0.00  0.00    +0.007 A 
ATOM     21  C   UNL     1       0.002  -0.004   0.002  0.00  0.00    +0.008 A 
ATOM     22 CL   UNL     1       3.912  -0.818  -0.041  0.00  0.00    -0.083 Cl
ENDBRANCH   1  20
BRANCH   6  23
ATOM     23  S   UNL     1       2.825  -2.251   6.660  0.00  0.00    +0.057 S 
ATOM     24  O   UNL     1       3.828  -1.280   6.924  0.00  0.00    -0.153 OA
ATOM     25  O   UNL     1       1.504  -2.140   7.172  0.00  0.00    -0.153 OA
BRANCH  23  26
ATOM     26  N   UNL     1       3.419  -3.702   7.194  0.00  0.00    -0.203 NA
ATOM     27  H   UNL     1       3.613  -4.410   6.559  0.00  0.00    +0.144 HD
ATOM     28  H   UNL     1       3.572  -3.844   8.141  0.00  0.00    +0.144 HD
ENDBRANCH  23  26
ENDBRANCH   6  23
TORSDOF 3
