REMARK  Name = ZINC39421916
REMARK  9 active torsions:
REMARK  status: ('A' for Active; 'I' for Inactive)
REMARK    1  A    between atoms: C_1  and  C_2
REMARK    2  A    between atoms: C_2  and  C_3
REMARK    3  A    between atoms: C_8  and  C_12
REMARK    4  A    between atoms: C_12  and  C_14
REMARK    5  A    between atoms: C_14  and  C_16
REMARK    6  A    between atoms: C_14  and  S_22
REMARK    7  A    between atoms: S_22  and  C_23
REMARK    8  A    between atoms: C_27  and  C_31
REMARK    9  A    between atoms: N_29  and  C_30
REMARK                            x       y       z     vdW  Elec       q    Type
REMARK                         _______ _______ _______ _____ _____    ______ ____
ROOT
ATOM      1  C   UNL     1       6.734  -2.429  -2.942  0.00  0.00    +0.147 C 
ENDROOT
BRANCH   1   2
ATOM      2  C   UNL     1       7.134  -3.847  -2.623  0.00  0.00    -0.027 A 
ATOM      3  C   UNL     1       6.866  -4.861  -3.524  0.00  0.00    +0.005 A 
ATOM      4  C   UNL     1       7.233  -6.161  -3.231  0.00  0.00    +0.000 A 
ATOM      5  C   UNL     1       7.869  -6.447  -2.037  0.00  0.00    +0.000 A 
ATOM      6  C   UNL     1       8.137  -5.433  -1.137  0.00  0.00    +0.000 A 
ATOM      7  C   UNL     1       7.774  -4.133  -1.432  0.00  0.00    +0.005 A 
ENDBRANCH   1   2
BRANCH   1   8
ATOM      8  C   UNL     1       5.239  -2.357  -3.115  0.00  0.00    +0.179 C 
ATOM      9  O   UNL     1       4.751  -2.437  -4.224  0.00  0.00    -0.291 OA
BRANCH   8  15
ATOM     10  C   UNL     1       1.131  -1.833  -0.322  0.00  0.00    -0.024 A 
ATOM     11  C   UNL     1       0.280  -1.886  -1.370  0.00  0.00    +0.005 A 
ATOM     12  C   UNL     1       0.735  -2.043  -2.689  0.00  0.00    +0.001 A 
ATOM     13  C   UNL     1       2.047  -2.152  -2.996  0.00  0.00    +0.010 A 
ATOM     14  C   UNL     1       3.025  -2.110  -1.974  0.00  0.00    +0.006 A 
ATOM     15  C   UNL     1       4.405  -2.194  -1.988  0.00  0.00    +0.025 C 
ATOM     16  C   UNL     1       4.834  -2.078  -0.542  0.00  0.00    +0.152 C 
ATOM     17  N   UNL     1       3.601  -1.927   0.237  0.00  0.00    -0.380 N 
ATOM     18  C   UNL     1       2.578  -1.938  -0.570  0.00  0.00    +0.046 A 
ATOM     19  H   UNL     1       3.555  -1.829   1.200  0.00  0.00    +0.160 HD
BRANCH  10  21
ATOM     20  C   UNL     1       0.624  -0.180   1.455  0.00  0.00    +0.009 C 
ATOM     21  C   UNL     1       0.605  -1.664   1.080  0.00  0.00    +0.034 C 
ENDBRANCH  10  21
ENDBRANCH   8  15
ENDBRANCH   1   8
BRANCH   1  22
ATOM     22  S   UNL     1       7.546  -1.903  -4.476  0.00  0.00    -0.144 S 
BRANCH  22  23
ATOM     23  C   UNL     1       9.303  -1.810  -4.033  0.00  0.00    +0.078 C 
ATOM     24  N   UNL     1       9.918  -3.163  -4.057  0.00  0.00    -0.262 NA
ATOM     25  N   UNL     1      11.345  -2.876  -4.266  0.00  0.00    -0.267 NA
ATOM     26  C   UNL     1      11.359  -1.732  -5.206  0.00  0.00    +0.050 C 
ATOM     27  N   UNL     1      10.056  -1.048  -5.056  0.00  0.00    +0.409 N 
ATOM     28  C   UNL     1       9.329  -1.062  -6.332  0.00  0.00    -0.090 C 
ATOM     29  H   UNL     1       9.546  -3.716  -4.814  0.00  0.00    +0.140 HD
ATOM     30  H   UNL     1      11.821  -3.674  -4.660  0.00  0.00    +0.139 HD
ATOM     31  H   UNL     1      10.195  -0.097  -4.746  0.00  0.00    -0.076 HD
BRANCH  26  32
ATOM     32  C   UNL     1      12.480  -0.788  -4.855  0.00  0.00    -0.028 A 
ATOM     33  C   UNL     1      13.655  -1.270  -4.298  0.00  0.00    +0.006 A 
ATOM     34  C   UNL     1      14.660  -0.365  -3.992  0.00  0.00    +0.020 A 
ATOM     35  C   UNL     1      14.458   0.978  -4.249  0.00  0.00    +0.111 A 
ATOM     36  N   UNL     1      13.327   1.401  -4.779  0.00  0.00    -0.263 NA
ATOM     37  C   UNL     1      12.352   0.568  -5.089  0.00  0.00    +0.114 A 
ENDBRANCH  26  32
ENDBRANCH  22  23
ENDBRANCH   1  22
TORSDOF 7
