REMARK  Name = ZINC19394844
REMARK  2 active torsions:
REMARK  status: ('A' for Active; 'I' for Inactive)
REMARK    1  A    between atoms: C_6  and  N_7
REMARK    2  A    between atoms: N_7  and  C_8
REMARK                            x       y       z     vdW  Elec       q    Type
REMARK                         _______ _______ _______ _____ _____    ______ ____
ROOT
ATOM      1  C   UNL     1       2.883  -1.650   1.680  0.00  0.00    +0.027 A 
ATOM      2  C   UNL     1       1.616  -1.553   1.136  0.00  0.00    +0.051 A 
ATOM      3  C   UNL     1       1.184  -0.356   0.590  0.00  0.00    +0.173 A 
ATOM      4  C   UNL     1       2.029   0.752   0.587  0.00  0.00    +0.174 A 
ATOM      5  C   UNL     1       3.298   0.654   1.132  0.00  0.00    +0.072 A 
ATOM      6  C   UNL     1       3.727  -0.548   1.679  0.00  0.00    +0.031 A 
ATOM      7  O   UNL     1       1.376   1.797  -0.001  0.00  0.00    -0.395 OA
ATOM      8  C   UNL     1      -0.017   1.436   0.010  0.00  0.00    +0.589 C 
ATOM      9  O   UNL     1       0.002  -0.004   0.002  0.00  0.00    -0.395 OA
ATOM     10  F   UNL     1      -0.661   1.925  -1.132  0.00  0.00    -0.125 F 
ATOM     11  F   UNL     1      -0.639   1.912   1.169  0.00  0.00    -0.125 F 
ENDROOT
BRANCH   6  12
ATOM     12  N   UNL     1       5.009  -0.648   2.230  0.00  0.00    -0.339 N 
ATOM     13  H   UNL     1       5.678   0.225   2.229  0.00  0.00    +0.146 HD
BRANCH  12  14
ATOM     14  C   UNL     1       5.462  -1.916   2.807  0.00  0.00    +0.093 C 
ATOM     15  C   UNL     1       6.997  -1.988   2.764  0.00  0.00    +0.046 C 
ATOM     16  C   UNL     1       7.496  -3.157   3.648  0.00  0.00    +0.168 C 
ATOM     17  S   UNL     1       6.172  -3.296   4.918  0.00  0.00    -0.029 S 
ATOM     18  O   UNL     1       5.552  -4.569   4.802  0.00  0.00    -0.174 OA
ATOM     19  O   UNL     1       6.692  -2.883   6.175  0.00  0.00    -0.174 OA
ATOM     20  C   UNL     1       5.014  -2.006   4.294  0.00  0.00    +0.188 C 
ENDBRANCH  12  14
ENDBRANCH   6  12
TORSDOF 2
