REMARK  Name = ZINC66409196
REMARK  7 active torsions:
REMARK  status: ('A' for Active; 'I' for Inactive)
REMARK    1  A    between atoms: C_1  and  C_2
REMARK    2  A    between atoms: C_2  and  C_4
REMARK    3  A    between atoms: C_2  and  S_14
REMARK    4  A    between atoms: S_14  and  C_15
REMARK    5  A    between atoms: C_16  and  C_24
REMARK    6  A    between atoms: C_18  and  C_22
REMARK    7  A    between atoms: C_19  and  N_21
REMARK                            x       y       z     vdW  Elec       q    Type
REMARK                         _______ _______ _______ _____ _____    ______ ____
ROOT
ATOM      1  S   UNL     1       0.931  -0.748   1.371  0.00  0.00    -0.097 S 
ENDROOT
BRANCH   1   2
ATOM      2  C   UNL     1       2.577  -0.163   1.136  0.00  0.00    +0.117 A 
ATOM      3  C   UNL     1       3.590  -0.556   2.034  0.00  0.00    +0.085 A 
ATOM      4  C   UNL     1       4.891  -0.086   1.838  0.00  0.00    +0.043 A 
ATOM      5  C   UNL     1       5.134   0.760   0.753  0.00  0.00    +0.092 A 
ATOM      6  C   UNL     1       4.066   1.106  -0.099  0.00  0.00    +0.135 A 
ATOM      7  N   UNL     1       2.848   0.636   0.116  0.00  0.00    -0.224 NA
BRANCH   6   8
ATOM      8  N   UNL     1       4.296   1.941  -1.173  0.00  0.00    -0.342 N 
ATOM      9  H   UNL     1       5.187   2.286  -1.338  0.00  0.00    +0.144 HD
ATOM     10  H   UNL     1       3.565   2.183  -1.764  0.00  0.00    +0.144 HD
ENDBRANCH   6   8
BRANCH   5  11
ATOM     11  C   UNL     1       6.450   1.268   0.510  0.00  0.00    +0.103 C 
ATOM     12  N   UNL     1       7.495   1.672   0.318  0.00  0.00    -0.191 NA
ENDBRANCH   5  11
BRANCH   3  13
ATOM     13  C   UNL     1       3.290  -1.425   3.132  0.00  0.00    +0.102 C 
ATOM     14  N   UNL     1       3.052  -2.114   4.003  0.00  0.00    -0.191 NA
ENDBRANCH   3  13
ENDBRANCH   1   2
BRANCH   1  16
ATOM     15  C   UNL     1      -0.014   1.517   0.164  0.00  0.00    +0.024 C 
ATOM     16  C   UNL     1       0.002  -0.004   0.002  0.00  0.00    +0.080 C 
BRANCH  16  17
ATOM     17  C   UNL     1      -1.412  -0.526   0.013  0.00  0.00    -0.027 A 
ATOM     18  C   UNL     1      -1.972  -0.960   1.175  0.00  0.00    +0.005 A 
ATOM     19  C   UNL     1      -3.277  -1.446   1.204  0.00  0.00    +0.001 A 
ATOM     20  C   UNL     1      -4.031  -1.500   0.072  0.00  0.00    +0.008 A 
ATOM     21  C   UNL     1      -3.487  -1.060  -1.147  0.00  0.00    -0.018 A 
ATOM     22  C   UNL     1      -2.161  -0.560  -1.176  0.00  0.00    -0.014 A 
ATOM     23  C   UNL     1      -1.619  -0.115  -2.393  0.00  0.00    +0.009 A 
ATOM     24  C   UNL     1      -2.374  -0.164  -3.524  0.00  0.00    +0.001 A 
ATOM     25  C   UNL     1      -3.680  -0.649  -3.495  0.00  0.00    +0.001 A 
ATOM     26  C   UNL     1      -4.234  -1.101  -2.337  0.00  0.00    +0.008 A 
ENDBRANCH  16  17
ENDBRANCH   1  16
TORSDOF 6
