REMARK  Name = ZINC39711122
REMARK  14 active torsions:
REMARK  status: ('A' for Active; 'I' for Inactive)
REMARK    1  A    between atoms: C_1  and  C_2
REMARK    2  A    between atoms: C_2  and  C_3
REMARK    3  A    between atoms: C_3  and  C_4
REMARK    4  A    between atoms: C_3  and  C_5
REMARK    5  A    between atoms: C_3  and  N_6
REMARK    6  A    between atoms: C_7  and  C_12
REMARK    7  A    between atoms: C_12  and  C_14
REMARK    8  A    between atoms: C_12  and  N_28
REMARK    9  A    between atoms: C_18  and  C_27
REMARK   10  A    between atoms: C_21  and  C_26
REMARK   11  A    between atoms: N_28  and  C_29
REMARK   12  A    between atoms: N_28  and  C_36
REMARK   13  A    between atoms: C_29  and  C_30
REMARK   14  A    between atoms: C_36  and  C_37
REMARK                            x       y       z     vdW  Elec       q    Type
REMARK                         _______ _______ _______ _____ _____    ______ ____
ROOT
ATOM      1  C   UNL     1      -3.370  -3.515  -1.055  0.00  0.00    -0.010 C 
ENDROOT
BRANCH   1   2
ATOM      2  C   UNL     1      -4.049  -2.144  -1.095  0.00  0.00    +0.088 C 
ATOM      3  C   UNL     1      -4.514  -1.814   0.309  0.00  0.00    -0.006 C 
ATOM      4  C   UNL     1      -5.844  -1.572   0.486  0.00  0.00    -0.004 A 
ATOM      5  C   UNL     1      -6.378  -1.246   1.809  0.00  0.00    -0.042 A 
ATOM      6  C   UNL     1      -7.710  -1.012   1.938  0.00  0.00    +0.004 A 
ATOM      7  C   UNL     1      -8.569  -1.078   0.841  0.00  0.00    +0.005 A 
ATOM      8  C   UNL     1      -8.136  -1.375  -0.412  0.00  0.00    -0.029 A 
ATOM      9  C   UNL     1      -6.774  -1.633  -0.654  0.00  0.00    +0.043 A 
ATOM     10  N   UNL     1      -6.360  -1.923  -1.888  0.00  0.00    -0.284 N 
ATOM     11  C   UNL     1      -5.098  -2.178  -2.184  0.00  0.00    +0.223 C 
ATOM     12  O   UNL     1      -4.780  -2.437  -3.330  0.00  0.00    -0.275 OA
ATOM     13  C   UNL     1      -9.121  -1.429  -1.551  0.00  0.00    +0.045 C 
ATOM     14  C   UNL     1      -5.467  -1.172   3.007  0.00  0.00    +0.044 C 
ATOM     15  H   UNL     1      -7.017  -1.949  -2.602  0.00  0.00    +0.155 HD
ENDBRANCH   1   2
BRANCH   1  17
ATOM     16  N   UNL     1      -1.455  -4.708  -0.044  0.00  0.00    -0.211 N 
ATOM     17  C   UNL     1      -2.355  -3.548   0.089  0.00  0.00    +0.183 C 
ATOM     18  N   UNL     1      -3.025  -3.798   1.380  0.00  0.00    -0.229 N 
ATOM     19  N   UNL     1      -2.496  -5.002   1.859  0.00  0.00    -0.064 NA
ATOM     20  N   UNL     1      -1.664  -5.489   1.099  0.00  0.00    -0.061 NA
ATOM     21  H   UNL     1      -3.695  -3.242   1.808  0.00  0.00    +0.172 HD
BRANCH  16  22
ATOM     22  C   UNL     1      -0.535  -4.989  -1.149  0.00  0.00    +0.050 C 
ATOM     23  C   UNL     1       0.567  -3.928  -1.179  0.00  0.00    +0.033 C 
ATOM     24  C   UNL     1      -1.304  -4.963  -2.472  0.00  0.00    +0.033 C 
BRANCH  22  26
ATOM     25  C   UNL     1       1.141  -6.615  -2.039  0.00  0.00    +0.006 C 
ATOM     26  C   UNL     1       0.093  -6.371  -0.952  0.00  0.00    +0.023 C 
ENDBRANCH  22  26
ENDBRANCH  16  22
ENDBRANCH   1  17
BRANCH   1  27
ATOM     27  N   UNL     1      -4.383  -4.557  -0.841  0.00  0.00    +0.390 N 
ATOM     28  H   UNL     1      -3.933  -5.403  -0.524  0.00  0.00    -0.080 HD
BRANCH  27  29
ATOM     29  C   UNL     1      -5.345  -4.104   0.173  0.00  0.00    -0.042 C 
BRANCH  29  30
ATOM     30  C   UNL     1      -6.231  -5.255   0.574  0.00  0.00    -0.064 A 
ATOM     31  C   UNL     1      -7.408  -5.493  -0.110  0.00  0.00    +0.002 A 
ATOM     32  C   UNL     1      -8.220  -6.549   0.258  0.00  0.00    +0.000 A 
ATOM     33  C   UNL     1      -7.855  -7.368   1.311  0.00  0.00    +0.000 A 
ATOM     34  C   UNL     1      -6.678  -7.130   1.995  0.00  0.00    +0.000 A 
ATOM     35  C   UNL     1      -5.863  -6.077   1.624  0.00  0.00    +0.002 A 
ENDBRANCH  29  30
ENDBRANCH  27  29
BRANCH  27  36
ATOM     36  C   UNL     1      -5.088  -4.820  -2.102  0.00  0.00    -0.035 C 
BRANCH  36  37
ATOM     37  C   UNL     1      -4.118  -5.369  -3.116  0.00  0.00    -0.027 A 
ATOM     38  C   UNL     1      -3.700  -6.646  -3.293  0.00  0.00    +0.009 A 
ATOM     39  C   UNL     1      -2.793  -6.921  -4.300  0.00  0.00    +0.008 A 
ATOM     40  C   UNL     1      -2.349  -5.906  -5.080  0.00  0.00    +0.045 A 
ATOM     41  S   UNL     1      -3.225  -4.507  -4.400  0.00  0.00    -0.103 S 
ENDBRANCH  36  37
ENDBRANCH  27  36
ENDBRANCH   1  27
TORSDOF 9
