REMARK  Name = ZINC65305826
REMARK  9 active torsions:
REMARK  status: ('A' for Active; 'I' for Inactive)
REMARK    1  A    between atoms: C_1  and  C_2
REMARK    2  A    between atoms: C_2  and  C_3
REMARK    3  A    between atoms: C_2  and  C_4
REMARK    4  A    between atoms: C_4  and  C_5
REMARK    5  A    between atoms: C_5  and  C_7
REMARK    6  A    between atoms: C_5  and  N_19
REMARK    7  A    between atoms: N_9  and  C_10
REMARK    8  A    between atoms: C_20  and  C_22
REMARK    9  A    between atoms: C_22  and  C_23
REMARK                            x       y       z     vdW  Elec       q    Type
REMARK                         _______ _______ _______ _____ _____    ______ ____
ROOT
ATOM      1  C   UNL     1      -1.830  -1.399  -0.842  0.00  0.00    +0.159 C 
ENDROOT
BRANCH   1   2
ATOM      2  C   UNL     1      -3.286  -1.577  -1.188  0.00  0.00    +0.236 C 
ATOM      3  O   UNL     1      -3.861  -2.600  -0.882  0.00  0.00    -0.274 OA
ATOM      4  N   UNL     1      -3.949  -0.600  -1.837  0.00  0.00    -0.277 N 
ATOM      5  H   UNL     1      -3.489   0.218  -2.082  0.00  0.00    +0.152 HD
BRANCH   4   6
ATOM      6  C   UNL     1      -5.364  -0.773  -2.174  0.00  0.00    +0.269 C 
ATOM      7  N   UNL     1      -6.197  -0.542  -0.986  0.00  0.00    -0.348 N 
ATOM      8  C   UNL     1      -6.985   0.460  -1.251  0.00  0.00    +0.061 A 
ATOM      9  C   UNL     1      -8.025   1.145  -0.472  0.00  0.00    +0.027 A 
ATOM     10  C   UNL     1      -8.694   2.179  -1.021  0.00  0.00    +0.002 A 
ATOM     11  C   UNL     1      -8.441   2.640  -2.325  0.00  0.00    +0.002 A 
ATOM     12  C   UNL     1      -7.509   2.082  -3.124  0.00  0.00    +0.027 A 
ATOM     13  C   UNL     1      -6.716   0.947  -2.632  0.00  0.00    +0.061 A 
ATOM     14  N   UNL     1      -5.773   0.228  -3.167  0.00  0.00    -0.348 N 
ATOM     15  H   UNL     1      -6.165  -1.044  -0.157  0.00  0.00    +0.163 HD
ATOM     16  H   UNL     1      -5.406   0.334  -4.059  0.00  0.00    +0.163 HD
ENDBRANCH   4   6
ENDBRANCH   1   2
BRANCH   1  17
ATOM     17  N   UNL     1      -1.333  -2.609  -0.183  0.00  0.00    -0.304 N 
ATOM     18  C   UNL     1      -0.018  -2.902  -0.216  0.00  0.00    +0.218 C 
ATOM     19  O   UNL     1       0.765  -2.120  -0.712  0.00  0.00    -0.275 OA
ATOM     20  H   UNL     1      -1.950  -3.200   0.276  0.00  0.00    +0.149 HD
BRANCH  18  21
ATOM     21  C   UNL     1       0.480  -4.200   0.365  0.00  0.00    +0.133 C 
BRANCH  21  22
ATOM     22  C   UNL     1       1.976  -4.283   0.203  0.00  0.00    -0.003 A 
ATOM     23  C   UNL     1       2.518  -4.937  -0.887  0.00  0.00    +0.007 A 
ATOM     24  C   UNL     1       3.890  -5.013  -1.036  0.00  0.00    +0.000 A 
ATOM     25  C   UNL     1       4.722  -4.434  -0.095  0.00  0.00    +0.003 A 
ATOM     26  C   UNL     1       4.182  -3.779   0.995  0.00  0.00    +0.038 A 
ATOM     27  C   UNL     1       2.807  -3.698   1.143  0.00  0.00    +0.127 A 
ATOM     28  F   UNL     1       2.278  -3.053   2.205  0.00  0.00    -0.205 F 
ENDBRANCH  21  22
ENDBRANCH  18  21
ENDBRANCH   1  17
BRANCH   1  29
ATOM     29  C   UNL     1      -1.673  -0.204   0.101  0.00  0.00    +0.034 C 
BRANCH  29  31
ATOM     30  C   UNL     1      -2.016   0.578   2.449  0.00  0.00    +0.007 C 
ATOM     31  C   UNL     1      -2.366  -0.508   1.430  0.00  0.00    -0.015 C 
ATOM     32  C   UNL     1      -3.881  -0.541   1.220  0.00  0.00    +0.007 C 
ENDBRANCH  29  31
ENDBRANCH   1  29
TORSDOF 7
