REMARK  Name = ZINC36954829
REMARK  8 active torsions:
REMARK  status: ('A' for Active; 'I' for Inactive)
REMARK    1  A    between atoms: C_1  and  C_2
REMARK    2  A    between atoms: C_7  and  C_24
REMARK    3  A    between atoms: C_9  and  N_10
REMARK    4  A    between atoms: N_10  and  C_11
REMARK    5  A    between atoms: C_11  and  C_13
REMARK    6  A    between atoms: C_11  and  C_14
REMARK    7  A    between atoms: C_17  and  S_20
REMARK    8  A    between atoms: S_20  and  N_23
REMARK                            x       y       z     vdW  Elec       q    Type
REMARK                         _______ _______ _______ _____ _____    ______ ____
ROOT
ATOM      1  C   UNL     1       2.534  -0.828   2.924  0.00  0.00    -0.044 C 
ATOM      2  C   UNL     1       2.509  -2.343   2.712  0.00  0.00    -0.009 C 
ENDROOT
BRANCH   1   3
ATOM      3  C   UNL     1       3.876  -0.421   3.478  0.00  0.00    -0.062 A 
ATOM      4  C   UNL     1       4.959  -0.281   2.631  0.00  0.00    +0.004 A 
ATOM      5  C   UNL     1       6.189   0.093   3.138  0.00  0.00    +0.029 A 
ATOM      6  C   UNL     1       6.336   0.326   4.493  0.00  0.00    +0.105 A 
ATOM      7  C   UNL     1       5.253   0.187   5.340  0.00  0.00    +0.029 A 
ATOM      8  C   UNL     1       4.021  -0.182   4.831  0.00  0.00    +0.004 A 
BRANCH   6   9
ATOM      9  S   UNL     1       7.905   0.801   5.140  0.00  0.00    +0.056 S 
ATOM     10  O   UNL     1       7.908   0.430   6.511  0.00  0.00    -0.153 OA
ATOM     11  O   UNL     1       8.882   0.331   4.221  0.00  0.00    -0.153 OA
BRANCH   9  12
ATOM     12  N   UNL     1       7.972   2.455   5.097  0.00  0.00    -0.204 NA
ATOM     13  H   UNL     1       8.496   2.937   5.756  0.00  0.00    +0.144 HD
ATOM     14  H   UNL     1       7.487   2.943   4.413  0.00  0.00    +0.144 HD
ENDBRANCH   9  12
ENDBRANCH   6   9
ENDBRANCH   1   3
BRANCH   1  15
ATOM     15  N   UNL     1       2.308  -0.150   1.641  0.00  0.00    +0.386 N 
ATOM     16  H   UNL     1       2.978  -0.481   0.963  0.00  0.00    -0.085 HD
ATOM     17  H   UNL     1       2.416   0.846   1.763  0.00  0.00    -0.085 HD
BRANCH  15  24
ATOM     18  C   UNL     1       0.011   0.470   3.296  0.00  0.00    +0.006 C 
ATOM     19  C   UNL     1      -0.029   0.570   1.770  0.00  0.00    -0.028 C 
ATOM     20  C   UNL     1      -1.445   0.267   1.276  0.00  0.00    +0.002 C 
ATOM     21  C   UNL     1      -1.486   0.366  -0.250  0.00  0.00    +0.000 C 
ATOM     22  C   UNL     1      -0.508  -0.644  -0.853  0.00  0.00    +0.002 C 
ATOM     23  C   UNL     1       0.908  -0.341  -0.359  0.00  0.00    -0.028 C 
ATOM     24  C   UNL     1       0.948  -0.441   1.167  0.00  0.00    -0.065 C 
ATOM     25  C   UNL     1       1.886  -1.352  -0.963  0.00  0.00    +0.006 C 
ENDBRANCH  15  24
ENDBRANCH   1  15
TORSDOF 5
