REMARK  Name = ZINC19832540
REMARK  7 active torsions:
REMARK  status: ('A' for Active; 'I' for Inactive)
REMARK    1  A    between atoms: C_1  and  C_2
REMARK    2  A    between atoms: C_2  and  O_3
REMARK    3  A    between atoms: O_3  and  C_4
REMARK    4  A    between atoms: C_6  and  C_11
REMARK    5  A    between atoms: C_9  and  O_10
REMARK    6  A    between atoms: C_13  and  C_20
REMARK    7  A    between atoms: C_16  and  C_17
REMARK                            x       y       z     vdW  Elec       q    Type
REMARK                         _______ _______ _______ _____ _____    ______ ____
ROOT
ATOM      1  C   UNL     1       0.625  -4.952  -0.032  0.00  0.00    +0.005 A 
ATOM      2  C   UNL     1       0.747  -5.998   0.881  0.00  0.00    +0.038 A 
ATOM      3  C   UNL     1       1.870  -6.817   0.832  0.00  0.00    +0.074 A 
ATOM      4  N   UNL     1       2.831  -6.612  -0.062  0.00  0.00    -0.231 NA
ATOM      5  C   UNL     1       2.767  -5.631  -0.946  0.00  0.00    +0.135 A 
ATOM      6  C   UNL     1       1.664  -4.760  -0.969  0.00  0.00    +0.099 A 
ATOM      7  N   UNL     1       3.795  -5.460  -1.857  0.00  0.00    -0.342 N 
ATOM      8  H   UNL     1       3.747  -4.645  -2.594  0.00  0.00    +0.144 HD
ATOM      9  H   UNL     1       4.661  -6.138  -1.843  0.00  0.00    +0.144 HD
ENDROOT
BRANCH   3  10
ATOM     10  C   UNL     1       2.000  -7.935   1.797  0.00  0.00    +0.000 A 
ATOM     11  C   UNL     1       1.002  -8.160   2.745  0.00  0.00    +0.011 A 
ATOM     12  C   UNL     1       1.126  -9.205   3.638  0.00  0.00    +0.016 A 
ATOM     13  C   UNL     1       2.243 -10.022   3.600  0.00  0.00    +0.018 A 
ATOM     14  C   UNL     1       3.238  -9.800   2.664  0.00  0.00    +0.016 A 
ATOM     15  C   UNL     1       3.123  -8.761   1.764  0.00  0.00    +0.011 A 
ATOM     16 BR   UNL     1       2.409 -11.447   4.832  0.00  0.00    -0.050 Br
ENDBRANCH   3  10
BRANCH   1  19
ATOM     17  C   UNL     1      -1.498  -1.849   0.006  0.00  0.00    +0.162 A 
ATOM     18  C   UNL     1      -0.391  -2.676  -0.014  0.00  0.00    +0.058 A 
ATOM     19  C   UNL     1      -0.558  -4.062  -0.015  0.00  0.00    -0.013 A 
ATOM     20  C   UNL     1      -1.842  -4.606  -0.006  0.00  0.00    +0.012 A 
ATOM     21  C   UNL     1      -2.944  -3.777   0.009  0.00  0.00    +0.050 A 
ATOM     22  C   UNL     1      -2.778  -2.399   0.016  0.00  0.00    +0.158 A 
BRANCH  22  23
ATOM     23  O   UNL     1      -3.866  -1.585   0.030  0.00  0.00    -0.503 OA
ATOM     24  H   UNL     1      -4.878  -2.018   0.038  0.00  0.00    +0.292 HD
ENDBRANCH  22  23
BRANCH  17  25
ATOM     25  O   UNL     1      -1.339  -0.499   0.012  0.00  0.00    -0.489 OA
BRANCH  25  27
ATOM     26  C   UNL     1      -0.019   1.526   0.010  0.00  0.00    +0.048 C 
ATOM     27  C   UNL     1       0.002  -0.004   0.002  0.00  0.00    +0.226 C 
ENDBRANCH  25  27
ENDBRANCH  17  25
ENDBRANCH   1  19
BRANCH   6  28
ATOM     28  C   UNL     1       1.594  -3.697  -1.926  0.00  0.00    +0.103 C 
ATOM     29  N   UNL     1       1.540  -2.853  -2.685  0.00  0.00    -0.191 NA
ENDBRANCH   6  28
TORSDOF 6
