REMARK  Name = ZINC16650172
REMARK  6 active torsions:
REMARK  status: ('A' for Active; 'I' for Inactive)
REMARK    1  A    between atoms: C_1  and  C_2
REMARK    2  A    between atoms: C_16  and  C_19
REMARK    3  A    between atoms: C_21  and  O_28
REMARK    4  A    between atoms: C_22  and  O_26
REMARK    5  A    between atoms: O_26  and  C_27
REMARK    6  A    between atoms: O_28  and  C_29
REMARK                            x       y       z     vdW  Elec       q    Type
REMARK                         _______ _______ _______ _____ _____    ______ ____
ROOT
ATOM      1  C   UNL     1      -4.616   0.226   1.888  0.00  0.00    +0.044 C 
ATOM      2  C   UNL     1      -3.591  -0.478   1.037  0.00  0.00    -0.050 A 
ATOM      3  C   UNL     1      -3.922  -1.654   0.388  0.00  0.00    +0.005 A 
ATOM      4  C   UNL     1      -2.984  -2.297  -0.394  0.00  0.00    +0.023 A 
ATOM      5  C   UNL     1      -1.706  -1.766  -0.530  0.00  0.00    +0.033 A 
ATOM      6  C   UNL     1      -1.374  -0.589   0.127  0.00  0.00    +0.003 A 
ATOM      7  C   UNL     1      -2.321   0.052   0.906  0.00  0.00    +0.011 A 
ATOM      8  C   UNL     1       0.002  -0.004   0.002  0.00  0.00    +0.155 C 
ATOM      9  C   UNL     1       0.664  -0.489  -1.289  0.00  0.00    +0.047 C 
ATOM     10  C   UNL     1       2.099   0.037  -1.332  0.00  0.00    +0.011 C 
ATOM     11  C   UNL     1       2.051   1.569  -1.255  0.00  0.00    +0.028 C 
ATOM     12  C   UNL     1       1.292   2.001   0.001  0.00  0.00    +0.160 C 
ATOM     13  O   UNL     1      -0.017   1.420   0.010  0.00  0.00    -0.372 OA
ATOM     14  C   UNL     1       0.636  -2.019  -1.306  0.00  0.00    +0.107 C 
ATOM     15  N   UNL     1      -0.775  -2.432  -1.335  0.00  0.00    -0.336 N 
ATOM     16  H   UNL     1      -1.059  -3.162  -1.907  0.00  0.00    +0.147 HD
ENDROOT
BRANCH  14  17
ATOM     17  C   UNL     1       1.303  -2.557  -0.067  0.00  0.00    -0.022 A 
ATOM     18  C   UNL     1       2.608  -3.011  -0.128  0.00  0.00    +0.055 A 
ATOM     19  C   UNL     1       3.224  -3.505   1.011  0.00  0.00    +0.163 A 
ATOM     20  C   UNL     1       2.526  -3.545   2.214  0.00  0.00    +0.180 A 
ATOM     21  C   UNL     1       1.218  -3.090   2.268  0.00  0.00    +0.086 A 
ATOM     22  C   UNL     1       0.611  -2.591   1.129  0.00  0.00    +0.029 A 
ATOM     23 CL   UNL     1       0.344  -3.138   3.767  0.00  0.00    -0.080 Cl
BRANCH  20  24
ATOM     24  O   UNL     1       3.127  -4.030   3.334  0.00  0.00    -0.490 OA
ATOM     25  C   UNL     1       3.831  -3.092   4.150  0.00  0.00    +0.277 C 
ENDBRANCH  20  24
BRANCH  19  26
ATOM     26  O   UNL     1       4.507  -3.952   0.952  0.00  0.00    -0.491 OA
ATOM     27  C   UNL     1       5.161  -3.881  -0.316  0.00  0.00    +0.277 C 
ENDBRANCH  19  26
ENDBRANCH  14  17
TORSDOF 3
