REMARK  Name = ZINC20386620
REMARK  11 active torsions:
REMARK  status: ('A' for Active; 'I' for Inactive)
REMARK    1  A    between atoms: C_1  and  C_2
REMARK    2  A    between atoms: C_4  and  N_9
REMARK    3  A    between atoms: N_12  and  C_13
REMARK    4  A    between atoms: C_13  and  C_15
REMARK    5  A    between atoms: C_13  and  C_20
REMARK    6  A    between atoms: C_15  and  C_16
REMARK    7  A    between atoms: C_16  and  C_17
REMARK    8  A    between atoms: C_17  and  C_18
REMARK    9  A    between atoms: C_17  and  C_19
REMARK   10  A    between atoms: C_24  and  N_25
REMARK   11  A    between atoms: N_31  and  C_34
REMARK                            x       y       z     vdW  Elec       q    Type
REMARK                         _______ _______ _______ _____ _____    ______ ____
ROOT
ATOM      1  C   UNL     1      -0.654   1.804   2.349  0.00  0.00    +0.108 C 
ENDROOT
BRANCH   1   2
ATOM      2  C   UNL     1       0.400   0.953   3.008  0.00  0.00    +0.007 A 
ATOM      3  C   UNL     1       0.042   0.031   3.987  0.00  0.00    -0.034 A 
ATOM      4  C   UNL     1       1.050  -0.703   4.535  0.00  0.00    -0.021 A 
ATOM      5  S   UNL     1       2.501  -0.116   3.707  0.00  0.00    -0.077 S 
ATOM      6  C   UNL     1       1.706   1.088   2.652  0.00  0.00    +0.090 A 
ATOM      7  C   UNL     1       0.924  -1.749   5.594  0.00  0.00    -0.036 C 
ATOM      8  N   UNL     1      -0.415  -1.630   6.202  0.00  0.00    +0.381 N 
ATOM      9  C   UNL     1      -1.452  -1.558   5.163  0.00  0.00    -0.074 C 
ATOM     10  C   UNL     1      -1.394  -0.205   4.450  0.00  0.00    +0.018 C 
ATOM     11  C   UNL     1      -0.673  -2.740   7.128  0.00  0.00    -0.096 C 
ATOM     12  H   UNL     1      -0.450  -0.697   6.783  0.00  0.00    -0.082 HD
BRANCH   6  13
ATOM     13  N   UNL     1       2.278   1.946   1.706  0.00  0.00    -0.317 N 
ATOM     14  C   UNL     1       1.591   2.751   0.843  0.00  0.00    +0.092 A 
ATOM     15  C   UNL     1       2.487   3.426   0.093  0.00  0.00    +0.019 A 
ATOM     16  C   UNL     1       3.773   3.019   0.501  0.00  0.00    +0.019 A 
ATOM     17  C   UNL     1       3.616   2.113   1.489  0.00  0.00    +0.092 A 
ENDBRANCH   6  13
ENDBRANCH   1   2
BRANCH   1  21
ATOM     18  N   UNL     1      -0.730   5.478   2.224  0.00  0.00    -0.269 N 
ATOM     19  C   UNL     1      -1.130   4.191   2.229  0.00  0.00    +0.304 C 
ATOM     20  O   UNL     1      -2.311   3.921   2.131  0.00  0.00    -0.252 OA
ATOM     21  N   UNL     1      -0.220   3.203   2.343  0.00  0.00    -0.292 N 
ATOM     22  H   UNL     1       0.324   5.728   2.417  0.00  0.00    +0.156 HD
ATOM     23  H   UNL     1       0.849   3.448   2.432  0.00  0.00    +0.151 HD
BRANCH  18  27
ATOM     24  C   UNL     1      -2.254  10.091   2.982  0.00  0.00    +0.045 C 
ATOM     25  C   UNL     1      -2.418   8.743   2.328  0.00  0.00    -0.035 A 
ATOM     26  C   UNL     1      -1.503   7.739   2.576  0.00  0.00    +0.027 A 
ATOM     27  C   UNL     1      -1.656   6.498   1.974  0.00  0.00    +0.035 A 
ATOM     28  C   UNL     1      -2.725   6.271   1.118  0.00  0.00    +0.024 A 
ATOM     29  C   UNL     1      -3.641   7.277   0.877  0.00  0.00    +0.017 A 
ATOM     30  C   UNL     1      -3.486   8.513   1.479  0.00  0.00    +0.021 A 
ATOM     31 BR   UNL     1      -4.737   9.890   1.141  0.00  0.00    -0.050 Br
ENDBRANCH  18  27
ENDBRANCH   1  21
BRANCH   1  32
ATOM     32  C   UNL     1      -0.866   1.330   0.910  0.00  0.00    +0.027 C 
BRANCH  32  33
ATOM     33  C   UNL     1      -2.022   2.111   0.280  0.00  0.00    +0.005 C 
BRANCH  33  34
ATOM     34  C   UNL     1      -2.234   1.637  -1.159  0.00  0.00    -0.017 C 
ATOM     35  C   UNL     1      -2.688   0.176  -1.153  0.00  0.00    +0.007 C 
ATOM     36  C   UNL     1      -3.304   2.501  -1.828  0.00  0.00    +0.007 C 
ENDBRANCH  33  34
ENDBRANCH  32  33
ENDBRANCH   1  32
TORSDOF 7
