REMARK  Name = ZINC21223060
REMARK  13 active torsions:
REMARK  status: ('A' for Active; 'I' for Inactive)
REMARK    1  A    between atoms: C_1  and  C_2
REMARK    2  A    between atoms: C_2  and  O_3
REMARK    3  A    between atoms: O_3  and  C_4
REMARK    4  A    between atoms: C_7  and  C_12
REMARK    5  A    between atoms: C_9  and  O_10
REMARK    6  A    between atoms: O_10  and  C_11
REMARK    7  A    between atoms: C_17  and  C_22
REMARK    8  A    between atoms: C_24  and  O_32
REMARK    9  A    between atoms: C_25  and  O_30
REMARK   10  A    between atoms: C_26  and  O_28
REMARK   11  A    between atoms: O_28  and  C_29
REMARK   12  A    between atoms: O_30  and  C_31
REMARK   13  A    between atoms: O_32  and  C_33
REMARK                            x       y       z     vdW  Elec       q    Type
REMARK                         _______ _______ _______ _____ _____    ______ ____
ROOT
ATOM      1  C   UNL     1       0.429   5.727  -0.672  0.00  0.00    +0.136 C 
ATOM      2  C   UNL     1       0.426   4.221  -0.543  0.00  0.00    +0.036 C 
ATOM      3  C   UNL     1      -0.506   3.391  -1.036  0.00  0.00    +0.017 C 
ATOM      4  C   UNL     1      -0.354   1.887  -0.873  0.00  0.00    +0.059 C 
ATOM      5  C   UNL     1       0.334   1.576   0.455  0.00  0.00    +0.032 C 
ATOM      6  C   UNL     1       1.714   2.244   0.433  0.00  0.00    +0.088 C 
ATOM      7  C   UNL     1       1.534   3.709   0.172  0.00  0.00    +0.163 C 
ATOM      8  O   UNL     1       2.370   4.485   0.591  0.00  0.00    -0.292 OA
ATOM      9  N   UNL     1      -1.621   3.774  -1.710  0.00  0.00    -0.316 N 
ATOM     10  C   UNL     1      -1.639   4.698  -2.751  0.00  0.00    +0.052 A 
ATOM     11  C   UNL     1      -2.011   4.355  -4.038  0.00  0.00    +0.025 A 
ATOM     12  C   UNL     1      -2.052   5.335  -5.016  0.00  0.00    +0.002 A 
ATOM     13  C   UNL     1      -1.726   6.643  -4.705  0.00  0.00    +0.002 A 
ATOM     14  C   UNL     1      -1.337   6.982  -3.421  0.00  0.00    +0.025 A 
ATOM     15  C   UNL     1      -1.273   6.000  -2.445  0.00  0.00    +0.049 A 
ATOM     16  N   UNL     1      -0.814   6.284  -1.161  0.00  0.00    -0.331 N 
ATOM     17  H   UNL     1      -2.599   3.346  -1.444  0.00  0.00    +0.152 HD
ATOM     18  H   UNL     1      -1.413   6.943  -0.516  0.00  0.00    +0.147 HD
ENDROOT
BRANCH   1  22
ATOM     19  C   UNL     1       3.568   6.853  -3.350  0.00  0.00    +0.162 A 
ATOM     20  C   UNL     1       2.508   6.084  -3.804  0.00  0.00    +0.050 A 
ATOM     21  C   UNL     1       1.495   5.722  -2.936  0.00  0.00    +0.009 A 
ATOM     22  C   UNL     1       1.536   6.125  -1.615  0.00  0.00    -0.019 A 
ATOM     23  C   UNL     1       2.588   6.896  -1.156  0.00  0.00    +0.055 A 
ATOM     24  C   UNL     1       3.609   7.259  -2.020  0.00  0.00    +0.162 A 
BRANCH  24  25
ATOM     25  O   UNL     1       4.647   8.013  -1.569  0.00  0.00    -0.491 OA
ATOM     26  C   UNL     1       4.623   8.393  -0.192  0.00  0.00    +0.277 C 
ENDBRANCH  24  25
BRANCH  19  27
ATOM     27  O   UNL     1       4.565   7.210  -4.203  0.00  0.00    -0.489 OA
BRANCH  27  29
ATOM     28  C   UNL     1       5.660   7.255  -6.357  0.00  0.00    +0.048 C 
ATOM     29  C   UNL     1       4.456   6.759  -5.554  0.00  0.00    +0.226 C 
ENDBRANCH  27  29
ENDBRANCH  19  27
ENDBRANCH   1  22
BRANCH   5  30
ATOM     30  C   UNL     1       0.490   0.086   0.613  0.00  0.00    -0.036 A 
ATOM     31  C   UNL     1       1.187  -0.639  -0.336  0.00  0.00    +0.053 A 
ATOM     32  C   UNL     1       1.338  -2.010  -0.191  0.00  0.00    +0.165 A 
ATOM     33  C   UNL     1       0.777  -2.657   0.903  0.00  0.00    +0.204 A 
ATOM     34  C   UNL     1       0.071  -1.926   1.852  0.00  0.00    +0.165 A 
ATOM     35  C   UNL     1      -0.070  -0.554   1.703  0.00  0.00    +0.053 A 
BRANCH  34  36
ATOM     36  O   UNL     1      -0.479  -2.554   2.925  0.00  0.00    -0.491 OA
ATOM     37  C   UNL     1      -1.189  -1.740   3.860  0.00  0.00    +0.277 C 
ENDBRANCH  34  36
BRANCH  33  38
ATOM     38  O   UNL     1       0.917  -4.003   1.046  0.00  0.00    -0.488 OA
ATOM     39  C   UNL     1      -0.090  -4.827   0.456  0.00  0.00    +0.277 C 
ENDBRANCH  33  38
BRANCH  32  40
ATOM     40  O   UNL     1       2.028  -2.721  -1.122  0.00  0.00    -0.491 OA
ATOM     41  C   UNL     1       2.578  -1.990  -2.220  0.00  0.00    +0.277 C 
ENDBRANCH  32  40
ENDBRANCH   5  30
TORSDOF 8
