REMARK  Name = ZINC39926568
REMARK  8 active torsions:
REMARK  status: ('A' for Active; 'I' for Inactive)
REMARK    1  A    between atoms: C_1  and  O_2
REMARK    2  A    between atoms: O_2  and  C_3
REMARK    3  A    between atoms: C_6  and  N_9
REMARK    4  A    between atoms: C_10  and  S_21
REMARK    5  A    between atoms: S_21  and  C_22
REMARK    6  A    between atoms: C_22  and  C_23
REMARK    7  A    between atoms: N_25  and  N_26
REMARK    8  A    between atoms: C_27  and  C_28
REMARK                            x       y       z     vdW  Elec       q    Type
REMARK                         _______ _______ _______ _____ _____    ______ ____
ROOT
ATOM      1  N   UNL     1       2.541  -2.503   4.230  0.00  0.00    -0.239 N 
ATOM      2  C   UNL     1       2.508  -3.963   4.327  0.00  0.00    +0.227 C 
ATOM      3  N   UNL     1       2.497  -4.380   5.734  0.00  0.00    -0.317 N 
ATOM      4  C   UNL     1       3.346  -3.738   6.629  0.00  0.00    +0.041 A 
ATOM      5  C   UNL     1       3.841  -4.380   7.752  0.00  0.00    +0.024 A 
ATOM      6  C   UNL     1       4.674  -3.698   8.618  0.00  0.00    +0.002 A 
ATOM      7  C   UNL     1       5.016  -2.377   8.373  0.00  0.00    +0.001 A 
ATOM      8  C   UNL     1       4.536  -1.725   7.257  0.00  0.00    +0.015 A 
ATOM      9  C   UNL     1       3.700  -2.402   6.372  0.00  0.00    +0.058 A 
ATOM     10  C   UNL     1       3.185  -1.757   5.150  0.00  0.00    +0.255 C 
ATOM     11  O   UNL     1       3.335  -0.563   4.976  0.00  0.00    -0.269 OA
ATOM     12  H   UNL     1       1.908  -5.089   6.035  0.00  0.00    +0.149 HD
ENDROOT
BRANCH   1  16
ATOM     13  C   UNL     1       0.625  -0.620   1.042  0.00  0.00    +0.120 A 
ATOM     14  C   UNL     1       1.959  -0.983   0.932  0.00  0.00    +0.047 A 
ATOM     15  C   UNL     1       2.594  -1.607   1.988  0.00  0.00    +0.027 A 
ATOM     16  C   UNL     1       1.897  -1.870   3.160  0.00  0.00    +0.039 A 
ATOM     17  C   UNL     1       0.562  -1.506   3.269  0.00  0.00    +0.027 A 
ATOM     18  C   UNL     1      -0.071  -0.878   2.215  0.00  0.00    +0.047 A 
BRANCH  13  20
ATOM     19  C   UNL     1       0.776   0.228  -1.174  0.00  0.00    +0.277 C 
ATOM     20  O   UNL     1      -0.001  -0.006   0.002  0.00  0.00    -0.495 OA
ENDBRANCH  13  20
ENDBRANCH   1  16
BRANCH   2  21
ATOM     21  S   UNL     1       3.974  -4.652   3.512  0.00  0.00    -0.110 S 
BRANCH  21  22
ATOM     22  C   UNL     1       5.365  -3.936   4.431  0.00  0.00    +0.170 C 
BRANCH  22  23
ATOM     23  C   UNL     1       6.662  -4.434   3.848  0.00  0.00    +0.242 C 
ATOM     24  O   UNL     1       6.650  -5.197   2.905  0.00  0.00    -0.273 OA
ATOM     25  N   UNL     1       7.836  -4.031   4.374  0.00  0.00    -0.206 N 
ATOM     26  H   UNL     1       7.845  -3.421   5.128  0.00  0.00    +0.177 HD
BRANCH  25  27
ATOM     27  N   UNL     1       9.042  -4.494   3.832  0.00  0.00    -0.188 NA
ATOM     28  C   UNL     1      10.182  -4.103   4.343  0.00  0.00    +0.136 C 
BRANCH  28  29
ATOM     29  C   UNL     1      11.389  -4.567   3.800  0.00  0.00    +0.000 C 
ATOM     30  C   UNL     1      12.678  -4.255   4.226  0.00  0.00    +0.004 A 
ATOM     31  C   UNL     1      13.168  -3.433   5.264  0.00  0.00    +0.010 A 
ATOM     32  C   UNL     1      14.506  -3.312   5.453  0.00  0.00    +0.001 A 
ATOM     33  C   UNL     1      15.424  -3.984   4.641  0.00  0.00    +0.002 A 
ATOM     34  C   UNL     1      15.027  -4.790   3.627  0.00  0.00    +0.026 A 
ATOM     35  C   UNL     1      13.642  -4.967   3.367  0.00  0.00    +0.043 A 
ATOM     36  N   UNL     1      13.010  -5.680   2.460  0.00  0.00    -0.380 N 
ATOM     37  C   UNL     1      11.563  -5.515   2.635  0.00  0.00    +0.150 C 
ATOM     38  H   UNL     1      13.434  -6.232   1.784  0.00  0.00    +0.160 HD
ENDBRANCH  28  29
ENDBRANCH  25  27
ENDBRANCH  22  23
ENDBRANCH  21  22
ENDBRANCH   2  21
TORSDOF 7
