REMARK  Name = ZINC10891396
REMARK  5 active torsions:
REMARK  status: ('A' for Active; 'I' for Inactive)
REMARK    1  A    between atoms: C_6  and  S_7
REMARK    2  A    between atoms: S_7  and  N_10
REMARK    3  A    between atoms: C_14  and  C_16
REMARK    4  A    between atoms: N_18  and  N_19
REMARK    5  A    between atoms: C_20  and  C_22
REMARK                            x       y       z     vdW  Elec       q    Type
REMARK                         _______ _______ _______ _____ _____    ______ ____
ROOT
ATOM      1  N   UNL     1       2.232   1.129   0.218  0.00  0.00    -0.165 NA
ATOM      2  C   UNL     1       3.029   1.754  -0.848  0.00  0.00    +0.110 C 
ATOM      3  C   UNL     1       2.395   3.128  -1.149  0.00  0.00    +0.019 C 
ATOM      4  C   UNL     1       0.942   2.961  -0.632  0.00  0.00    +0.031 C 
ATOM      5  C   UNL     1       1.155   2.057   0.608  0.00  0.00    +0.167 C 
ENDROOT
BRANCH   5   6
ATOM      6  C   UNL     1      -0.106   1.294   0.924  0.00  0.00    +0.248 C 
ATOM      7  O   UNL     1      -0.389   0.301   0.288  0.00  0.00    -0.273 OA
ATOM      8  N   UNL     1      -0.921   1.719   1.909  0.00  0.00    -0.233 N 
ATOM      9  H   UNL     1      -0.695   2.514   2.418  0.00  0.00    +0.173 HD
BRANCH   8  10
ATOM     10  N   UNL     1      -2.096   1.013   2.199  0.00  0.00    -0.230 N 
ATOM     11  C   UNL     1      -2.912   1.438   3.185  0.00  0.00    +0.267 C 
ATOM     12  O   UNL     1      -2.628   2.434   3.823  0.00  0.00    -0.268 OA
ATOM     13  H   UNL     1      -2.323   0.218   1.691  0.00  0.00    +0.173 HD
BRANCH  11  14
ATOM     14  C   UNL     1      -4.141   0.699   3.488  0.00  0.00    +0.076 A 
ATOM     15  C   UNL     1      -5.097   0.958   4.448  0.00  0.00    +0.024 A 
ATOM     16  C   UNL     1      -6.193   0.099   4.536  0.00  0.00    -0.036 A 
ATOM     17  C   UNL     1      -6.222  -0.946   3.666  0.00  0.00    -0.006 A 
ATOM     18  S   UNL     1      -4.787  -0.774   2.719  0.00  0.00    -0.088 S 
ATOM     19  C   UNL     1      -7.439  -1.807   3.863  0.00  0.00    +0.043 C 
ATOM     20  C   UNL     1      -7.967  -1.422   5.262  0.00  0.00    +0.010 C 
ATOM     21  C   UNL     1      -7.444   0.019   5.415  0.00  0.00    +0.036 C 
ENDBRANCH  11  14
ENDBRANCH   8  10
ENDBRANCH   5   6
BRANCH   1  22
ATOM     22  S   UNL     1       2.501  -0.368   0.874  0.00  0.00    +0.062 S 
ATOM     23  O   UNL     1       1.310  -0.731   1.558  0.00  0.00    -0.153 OA
ATOM     24  O   UNL     1       3.060  -1.168  -0.159  0.00  0.00    -0.153 OA
BRANCH  22  30
ATOM     25  C   UNL     1       3.408   0.207   3.382  0.00  0.00    +0.032 A 
ATOM     26  C   UNL     1       4.386   0.354   4.348  0.00  0.00    +0.051 A 
ATOM     27  C   UNL     1       5.715   0.113   4.033  0.00  0.00    +0.162 A 
ATOM     28  C   UNL     1       6.059  -0.281   2.745  0.00  0.00    +0.164 A 
ATOM     29  C   UNL     1       5.073  -0.432   1.783  0.00  0.00    +0.078 A 
ATOM     30  C   UNL     1       3.751  -0.182   2.101  0.00  0.00    +0.109 A 
ATOM     31  O   UNL     1       7.357  -0.531   2.417  0.00  0.00    -0.485 OA
ATOM     32  C   UNL     1       8.355  -0.011   3.302  0.00  0.00    +0.270 C 
ATOM     33  C   UNL     1       7.939  -0.339   4.742  0.00  0.00    +0.270 C 
ATOM     34  O   UNL     1       6.668   0.270   4.992  0.00  0.00    -0.485 OA
ENDBRANCH  22  30
ENDBRANCH   1  22
TORSDOF 5
