REMARK  Name = ZINC39459803
REMARK  5 active torsions:
REMARK  status: ('A' for Active; 'I' for Inactive)
REMARK    1  A    between atoms: C_1  and  C_2
REMARK    2  A    between atoms: C_2  and  O_3
REMARK    3  A    between atoms: O_3  and  C_4
REMARK    4  A    between atoms: C_6  and  C_14
REMARK    5  A    between atoms: C_19  and  O_20
REMARK                            x       y       z     vdW  Elec       q    Type
REMARK                         _______ _______ _______ _____ _____    ______ ____
ROOT
ATOM      1  C   UNL     1       0.802  -1.820   1.305  0.00  0.00    +0.202 A 
ATOM      2  C   UNL     1       0.269  -2.640   0.368  0.00  0.00    +0.074 A 
ATOM      3  C   UNL     1       0.376  -4.041   0.509  0.00  0.00    -0.006 A 
ATOM      4  C   UNL     1       1.029  -4.564   1.611  0.00  0.00    +0.055 A 
ATOM      5  C   UNL     1       1.572  -3.688   2.567  0.00  0.00    +0.142 A 
ATOM      6  N   UNL     1       1.453  -2.331   2.394  0.00  0.00    -0.257 N 
ATOM      7  C   UNL     1       2.074  -1.737   3.464  0.00  0.00    +0.112 A 
ATOM      8  C   UNL     1       2.553  -2.726   4.248  0.00  0.00    +0.147 A 
ATOM      9  N   UNL     1       2.235  -3.901   3.696  0.00  0.00    -0.235 NA
ATOM     10 BR   UNL     1       2.229   0.121   3.780  0.00  0.00    -0.029 Br
ENDROOT
BRANCH   3  11
ATOM     11  C   UNL     1      -0.206  -4.943  -0.513  0.00  0.00    +0.024 A 
ATOM     12  C   UNL     1      -1.585  -5.134  -0.574  0.00  0.00    +0.012 A 
ATOM     13  C   UNL     1      -2.122  -5.975  -1.527  0.00  0.00    +0.001 A 
ATOM     14  C   UNL     1      -1.296  -6.629  -2.424  0.00  0.00    +0.004 A 
ATOM     15  C   UNL     1       0.073  -6.447  -2.373  0.00  0.00    +0.046 A 
ATOM     16  C   UNL     1       0.626  -5.601  -1.425  0.00  0.00    +0.125 A 
BRANCH  16  17
ATOM     17  O   UNL     1       1.971  -5.417  -1.377  0.00  0.00    -0.506 OA
ATOM     18  H   UNL     1       2.434  -6.044  -0.804  0.00  0.00    +0.292 HD
ENDBRANCH  16  17
ENDBRANCH   3  11
BRANCH   1  19
ATOM     19  O   UNL     1       0.693  -0.477   1.160  0.00  0.00    -0.477 OA
BRANCH  19  21
ATOM     20  C   UNL     1      -0.019   1.526   0.010  0.00  0.00    +0.048 C 
ATOM     21  C   UNL     1       0.002  -0.004   0.002  0.00  0.00    +0.227 C 
ENDBRANCH  19  21
ENDBRANCH   1  19
TORSDOF 4
