REMARK  Name = ZINC22635186
REMARK  8 active torsions:
REMARK  status: ('A' for Active; 'I' for Inactive)
REMARK    1  A    between atoms: C_1  and  C_2
REMARK    2  A    between atoms: C_2  and  C_3
REMARK    3  A    between atoms: C_2  and  N_4
REMARK    4  A    between atoms: C_12  and  O_28
REMARK    5  A    between atoms: C_14  and  C_17
REMARK    6  A    between atoms: C_20  and  O_26
REMARK    7  A    between atoms: C_21  and  N_23
REMARK    8  A    between atoms: O_26  and  C_27
REMARK                            x       y       z     vdW  Elec       q    Type
REMARK                         _______ _______ _______ _____ _____    ______ ____
ROOT
ATOM      1  N   UNL     1       3.422  -0.121   6.862  0.00  0.00    +0.384 N 
ATOM      2  C   UNL     1       3.391   1.307   6.515  0.00  0.00    -0.073 C 
ATOM      3  C   UNL     1       3.939   1.517   5.101  0.00  0.00    +0.018 C 
ATOM      4  C   UNL     1       3.202   0.572   4.159  0.00  0.00    -0.027 A 
ATOM      5  C   UNL     1       2.521  -0.487   4.660  0.00  0.00    -0.021 A 
ATOM      6  S   UNL     1       1.831  -1.296   3.243  0.00  0.00    -0.080 S 
ATOM      7  C   UNL     1       2.436  -0.259   2.024  0.00  0.00    +0.080 A 
ATOM      8  C   UNL     1       3.165   0.717   2.716  0.00  0.00    +0.067 A 
ATOM      9  C   UNL     1       3.812   1.782   1.909  0.00  0.00    +0.220 C 
ATOM     10  N   UNL     1       3.501   1.861   0.646  0.00  0.00    -0.223 NA
ATOM     11  C   UNL     1       2.490   1.045  -0.015  0.00  0.00    +0.224 C 
ATOM     12  N   UNL     1       2.318  -0.257   0.655  0.00  0.00    -0.313 N 
ATOM     13  C   UNL     1       2.399  -0.864   6.103  0.00  0.00    -0.035 C 
ATOM     14  H   UNL     1       2.109  -1.158   0.060  0.00  0.00    +0.149 HD
ATOM     15  H   UNL     1       4.412  -0.516   6.589  0.00  0.00    -0.081 HD
ENDROOT
BRANCH  11  16
ATOM     16  C   UNL     1       1.176   1.783   0.000  0.00  0.00    -0.003 A 
ATOM     17  C   UNL     1      -0.013   1.076   0.008  0.00  0.00    +0.011 A 
ATOM     18  C   UNL     1      -1.218   1.750   0.017  0.00  0.00    +0.048 A 
ATOM     19  C   UNL     1      -1.236   3.137   0.030  0.00  0.00    +0.150 A 
ATOM     20  C   UNL     1      -0.043   3.844   0.022  0.00  0.00    +0.168 A 
ATOM     21  C   UNL     1       1.160   3.165   0.007  0.00  0.00    +0.043 A 
BRANCH  20  22
ATOM     22  N   UNL     1      -0.059   5.324   0.029  0.00  0.00    +0.060 N 
ATOM     23  O   UNL     1       0.990   5.944   0.022  0.00  0.00    -0.126 OA
ATOM     24  O   UNL     1      -1.120   5.921   0.042  0.00  0.00    -0.126 OA
ENDBRANCH  20  22
BRANCH  19  25
ATOM     25  O   UNL     1      -2.421   3.802   0.044  0.00  0.00    -0.493 OA
ATOM     26  C   UNL     1      -3.610   3.009   0.051  0.00  0.00    +0.277 C 
ENDBRANCH  19  25
ENDBRANCH  11  16
BRANCH   1  28
ATOM     27  C   UNL     1       1.876   0.211   8.732  0.00  0.00    -0.014 C 
ATOM     28  C   UNL     1       3.249  -0.315   8.308  0.00  0.00    -0.074 C 
ATOM     29  C   UNL     1       3.349  -1.806   8.638  0.00  0.00    -0.014 C 
ENDBRANCH   1  28
BRANCH   9  30
ATOM     30  O   UNL     1       4.696   2.643   2.466  0.00  0.00    -0.492 OA
ATOM     31  H   UNL     1       5.164   3.425   1.851  0.00  0.00    +0.294 HD
ENDBRANCH   9  30
TORSDOF 5
