REMARK  Name = ZINC12799185
REMARK  5 active torsions:
REMARK  status: ('A' for Active; 'I' for Inactive)
REMARK    1  A    between atoms: C_4  and  C_7
REMARK    2  A    between atoms: C_7  and  S_8
REMARK    3  A    between atoms: S_8  and  N_11
REMARK    4  A    between atoms: N_14  and  C_17
REMARK    5  A    between atoms: C_17  and  N_18
REMARK                            x       y       z     vdW  Elec       q    Type
REMARK                         _______ _______ _______ _____ _____    ______ ____
ROOT
ATOM      1  N   UNL     1       0.002  -0.004   0.002  0.00  0.00    -0.178 NA
ATOM      2  C   UNL     1       1.154  -0.746   0.535  0.00  0.00    +0.124 C 
ATOM      3  C   UNL     1       0.634  -1.790   1.536  0.00  0.00    +0.103 C 
ATOM      4  N   UNL     1      -0.390  -2.618   0.884  0.00  0.00    -0.284 NA
ATOM      5  C   UNL     1      -1.555  -1.814   0.492  0.00  0.00    +0.103 C 
ATOM      6  C   UNL     1      -1.127  -0.771  -0.545  0.00  0.00    +0.124 C 
ENDROOT
BRANCH   1   7
ATOM      7  S   UNL     1      -0.020   1.652   0.011  0.00  0.00    +0.036 S 
ATOM      8  O   UNL     1       1.349   2.033   0.000  0.00  0.00    -0.158 OA
ATOM      9  O   UNL     1      -0.880   2.009  -1.062  0.00  0.00    -0.158 OA
BRANCH   7  10
ATOM     10  C   UNL     1      -0.781   2.099   1.596  0.00  0.00    +0.220 C 
BRANCH  10  14
ATOM     11  C   UNL     1      -0.985   6.353   1.928  0.00  0.00    +0.000 A 
ATOM     12  C   UNL     1      -2.033   5.653   1.359  0.00  0.00    +0.000 A 
ATOM     13  C   UNL     1      -1.967   4.276   1.252  0.00  0.00    +0.005 A 
ATOM     14  C   UNL     1      -0.853   3.600   1.713  0.00  0.00    -0.025 A 
ATOM     15  C   UNL     1       0.192   4.299   2.287  0.00  0.00    +0.005 A 
ATOM     16  C   UNL     1       0.128   5.676   2.390  0.00  0.00    +0.000 A 
ENDBRANCH  10  14
ENDBRANCH   7  10
ENDBRANCH   1   7
BRANCH   4  17
ATOM     17  C   UNL     1      -0.788  -3.739   1.746  0.00  0.00    +0.205 C 
BRANCH  17  18
ATOM     18  N   UNL     1       0.347  -4.142   2.579  0.00  0.00    -0.211 N 
ATOM     19  C   UNL     1       0.612  -3.630   3.796  0.00  0.00    +0.248 C 
ATOM     20  O   UNL     1      -0.020  -2.779   4.384  0.00  0.00    -0.273 OA
ATOM     21  C   UNL     1       1.865  -4.338   4.281  0.00  0.00    +0.113 C 
ATOM     22  C   UNL     1       1.480  -5.204   5.502  0.00  0.00    +0.035 C 
ATOM     23  C   UNL     1       2.477  -6.320   5.638  0.00  0.00    +0.003 C 
ATOM     24  C   UNL     1       3.626  -5.976   6.606  0.00  0.00    +0.000 C 
ATOM     25  C   UNL     1       4.141  -4.534   6.434  0.00  0.00    +0.000 C 
ATOM     26  C   UNL     1       4.250  -4.135   4.987  0.00  0.00    +0.003 C 
ATOM     27  C   UNL     1       2.951  -3.413   4.581  0.00  0.00    +0.035 C 
ATOM     28  N   UNL     1       2.190  -5.251   3.166  0.00  0.00    -0.285 N 
ATOM     29  C   UNL     1       1.246  -5.068   2.227  0.00  0.00    +0.310 C 
ATOM     30  O   UNL     1       1.214  -5.674   1.174  0.00  0.00    -0.252 OA
ATOM     31  H   UNL     1       3.073  -5.904   3.229  0.00  0.00    +0.151 HD
ENDBRANCH  17  18
ENDBRANCH   4  17
TORSDOF 5
