REMARK  Name = ZINC08933234
REMARK  10 active torsions:
REMARK  status: ('A' for Active; 'I' for Inactive)
REMARK    1  A    between atoms: C_1  and  C_2
REMARK    2  A    between atoms: C_5  and  C_36
REMARK    3  A    between atoms: C_6  and  C_8
REMARK    4  A    between atoms: C_8  and  N_9
REMARK    5  A    between atoms: N_20  and  C_23
REMARK    6  A    between atoms: C_23  and  C_24
REMARK    7  A    between atoms: N_26  and  C_27
REMARK    8  A    between atoms: C_27  and  C_28
REMARK    9  A    between atoms: C_28  and  N_71
REMARK   10  A    between atoms: C_33  and  C_35
REMARK                            x       y       z     vdW  Elec       q    Type
REMARK                         _______ _______ _______ _____ _____    ______ ____
ROOT
ATOM      1  N   UNL     1       5.199  10.591   3.003  0.00  0.00    -0.331 N 
ATOM      2  C   UNL     1       5.023  11.572   2.050  0.00  0.00    +0.051 A 
ATOM      3  C   UNL     1       4.912  12.958   2.134  0.00  0.00    +0.026 A 
ATOM      4  C   UNL     1       4.738  13.703   0.989  0.00  0.00    +0.002 A 
ATOM      5  C   UNL     1       4.671  13.086  -0.253  0.00  0.00    +0.001 A 
ATOM      6  C   UNL     1       4.778  11.727  -0.357  0.00  0.00    +0.010 A 
ATOM      7  C   UNL     1       4.955  10.954   0.790  0.00  0.00    +0.009 A 
ATOM      8  C   UNL     1       5.102   9.511   1.029  0.00  0.00    +0.033 A 
ATOM      9  C   UNL     1       5.248   9.350   2.406  0.00  0.00    +0.119 A 
ATOM     10  C   UNL     1       5.410   8.041   2.920  0.00  0.00    +0.292 A 
ATOM     11  O   UNL     1       5.540   7.861   4.120  0.00  0.00    -0.264 OA
ATOM     12  N   UNL     1       5.418   6.995   2.069  0.00  0.00    -0.219 N 
ATOM     13  N   UNL     1       5.274   7.187   0.692  0.00  0.00    -0.175 NA
ATOM     14  C   UNL     1       5.117   8.379   0.187  0.00  0.00    +0.143 A 
ENDROOT
BRANCH   1  15
ATOM     15  C   UNL     1       5.316  10.833   4.443  0.00  0.00    +0.158 C 
BRANCH  15  21
ATOM     16  C   UNL     1       9.394   8.216   5.695  0.00  0.00    +0.044 C 
ATOM     17  C   UNL     1       8.720   9.539   5.441  0.00  0.00    -0.050 A 
ATOM     18  C   UNL     1       9.434  10.716   5.575  0.00  0.00    +0.003 A 
ATOM     19  C   UNL     1       8.815  11.930   5.342  0.00  0.00    +0.004 A 
ATOM     20  C   UNL     1       7.484  11.967   4.971  0.00  0.00    -0.046 A 
ATOM     21  C   UNL     1       6.769  10.791   4.842  0.00  0.00    -0.025 A 
ATOM     22  C   UNL     1       7.388   9.577   5.075  0.00  0.00    +0.009 A 
ATOM     23  C   UNL     1       6.811  13.290   4.710  0.00  0.00    +0.044 C 
ENDBRANCH  15  21
ENDBRANCH   1  15
BRANCH  12  24
ATOM     24  C   UNL     1       5.585   5.638   2.596  0.00  0.00    +0.243 C 
BRANCH  24  25
ATOM     25  C   UNL     1       4.233   5.051   2.912  0.00  0.00    +0.235 C 
ATOM     26  O   UNL     1       3.229   5.703   2.717  0.00  0.00    -0.274 OA
ATOM     27  N   UNL     1       4.140   3.803   3.412  0.00  0.00    -0.316 N 
ATOM     28  H   UNL     1       4.943   3.282   3.568  0.00  0.00    +0.149 HD
BRANCH  27  29
ATOM     29  C   UNL     1       2.826   3.233   3.720  0.00  0.00    +0.086 C 
BRANCH  29  30
ATOM     30  C   UNL     1       3.001   1.816   4.269  0.00  0.00    -0.059 C 
BRANCH  30  37
ATOM     31  C   UNL     1       0.735   1.486   3.483  0.00  0.00    -0.078 C 
ATOM     32  C   UNL     1      -0.658   1.008   3.898  0.00  0.00    -0.019 C 
ATOM     33  C   UNL     1      -0.602  -0.485   4.229  0.00  0.00    -0.003 C 
ATOM     34  C   UNL     1       0.427  -0.716   5.338  0.00  0.00    -0.016 C 
ATOM     35  C   UNL     1       1.789  -0.188   4.881  0.00  0.00    -0.072 C 
ATOM     36  C   UNL     1       2.817  -0.399   5.995  0.00  0.00    -0.013 C 
ATOM     37  N   UNL     1       1.674   1.259   4.602  0.00  0.00    +0.382 N 
ATOM     38  H   UNL     1       1.314   1.732   5.440  0.00  0.00    -0.081 HD
ENDBRANCH  30  37
ENDBRANCH  29  30
ENDBRANCH  27  29
ENDBRANCH  24  25
ENDBRANCH  12  24
TORSDOF 7
