REMARK  Name = ZINC21487635
REMARK  5 active torsions:
REMARK  status: ('A' for Active; 'I' for Inactive)
REMARK    1  A    between atoms: C_11  and  C_27
REMARK    2  A    between atoms: C_14  and  C_16
REMARK    3  A    between atoms: C_16  and  S_17
REMARK    4  A    between atoms: S_17  and  C_18
REMARK    5  A    between atoms: N_23  and  C_24
REMARK                            x       y       z     vdW  Elec       q    Type
REMARK                         _______ _______ _______ _____ _____    ______ ____
ROOT
ATOM      1  C   UNL     1      -0.013   1.076   0.008  0.00  0.00    +0.002 A 
ATOM      2  C   UNL     1      -1.221   1.748   0.017  0.00  0.00    +0.002 A 
ATOM      3  C   UNL     1      -1.249   3.131   0.020  0.00  0.00    +0.025 A 
ATOM      4  C   UNL     1      -0.062   3.845  -0.002  0.00  0.00    +0.058 A 
ATOM      5  C   UNL     1       1.157   3.166  -0.000  0.00  0.00    +0.055 A 
ATOM      6  C   UNL     1       1.177   1.781   0.000  0.00  0.00    +0.025 A 
ATOM      7  N   UNL     1       2.347   3.902   0.025  0.00  0.00    -0.284 N 
ATOM      8  C   UNL     1       2.540   4.924  -0.837  0.00  0.00    +0.219 C 
ATOM      9  O   UNL     1       3.541   5.604  -0.751  0.00  0.00    -0.275 OA
ATOM     10  C   UNL     1       1.522   5.225  -1.905  0.00  0.00    +0.128 C 
ATOM     11  C   UNL     1       0.304   5.916  -1.290  0.00  0.00    +0.194 C 
ATOM     12  N   UNL     1      -0.071   5.246  -0.043  0.00  0.00    -0.257 N 
ATOM     13  C   UNL     1      -0.418   5.963   1.044  0.00  0.00    +0.231 C 
ATOM     14  O   UNL     1      -0.422   7.175   0.995  0.00  0.00    -0.274 OA
ATOM     15  H   UNL     1       3.134   3.650   0.751  0.00  0.00    +0.155 HD
ENDROOT
BRANCH  11  16
ATOM     16  C   UNL     1      -0.868   5.851  -2.272  0.00  0.00    +0.409 C 
ATOM     17  F   UNL     1      -1.176   4.513  -2.542  0.00  0.00    -0.169 F 
ATOM     18  F   UNL     1      -1.982   6.483  -1.711  0.00  0.00    -0.169 F 
ATOM     19  F   UNL     1      -0.515   6.497  -3.462  0.00  0.00    -0.169 F 
ENDBRANCH  11  16
BRANCH  13  20
ATOM     20  C   UNL     1      -0.801   5.259   2.320  0.00  0.00    +0.172 C 
BRANCH  20  21
ATOM     21  S   UNL     1      -1.212   6.489   3.589  0.00  0.00    -0.088 S 
BRANCH  21  22
ATOM     22  C   UNL     1      -1.633   5.521   5.000  0.00  0.00    +0.160 A 
ATOM     23  N   UNL     1      -1.661   4.209   5.136  0.00  0.00    -0.133 NA
ATOM     24  N   UNL     1      -2.019   3.653   6.342  0.00  0.00    -0.125 NA
ATOM     25  C   UNL     1      -2.344   4.434   7.354  0.00  0.00    +0.183 A 
ATOM     26  S   UNL     1      -2.144   6.053   6.627  0.00  0.00    -0.025 S 
ATOM     27  N   UNL     1      -2.737   4.089   8.642  0.00  0.00    -0.319 N 
ATOM     28  H   UNL     1      -2.975   4.876   9.373  0.00  0.00    +0.148 HD
BRANCH  27  29
ATOM     29  C   UNL     1      -2.833   2.679   9.025  0.00  0.00    +0.072 C 
ATOM     30  C   UNL     1      -4.059   2.249   9.834  0.00  0.00    +0.024 C 
ATOM     31  C   UNL     1      -2.689   2.339  10.510  0.00  0.00    +0.024 C 
ENDBRANCH  27  29
ENDBRANCH  21  22
ENDBRANCH  20  21
ENDBRANCH  13  20
TORSDOF 5
