REMARK  Name = ZINC48353911
REMARK  4 active torsions:
REMARK  status: ('A' for Active; 'I' for Inactive)
REMARK    1  A    between atoms: C_4  and  C_7
REMARK    2  A    between atoms: C_7  and  C_8
REMARK    3  A    between atoms: C_14  and  C_17
REMARK    4  A    between atoms: N_19  and  N_20
REMARK                            x       y       z     vdW  Elec       q    Type
REMARK                         _______ _______ _______ _____ _____    ______ ____
ROOT
ATOM      1  C   UNL     1       7.730  -1.698   4.503  0.00  0.00    +0.234 C 
ATOM      2  O   UNL     1       8.727  -2.381   4.599  0.00  0.00    -0.274 OA
ATOM      3  N   UNL     1       7.096  -1.272   5.614  0.00  0.00    -0.223 N 
ATOM      4  H   UNL     1       6.298  -0.725   5.537  0.00  0.00    +0.174 HD
ENDROOT
BRANCH   3   5
ATOM      5  N   UNL     1       7.588  -1.619   6.878  0.00  0.00    -0.137 N 
ATOM      6  C   UNL     1       7.034  -2.553   7.678  0.00  0.00    +0.263 C 
ATOM      7  O   UNL     1       6.052  -3.226   7.449  0.00  0.00    -0.271 OA
ATOM      8  C   UNL     1       7.895  -2.583   8.920  0.00  0.00    +0.114 C 
ATOM      9  C   UNL     1       7.073  -2.202  10.146  0.00  0.00    +0.035 C 
ATOM     10  C   UNL     1       7.969  -2.210  11.387  0.00  0.00    +0.003 C 
ATOM     11  C   UNL     1       8.573  -3.604  11.570  0.00  0.00    +0.000 C 
ATOM     12  C   UNL     1       9.414  -3.962  10.343  0.00  0.00    +0.003 C 
ATOM     13  C   UNL     1       8.523  -3.961   9.098  0.00  0.00    +0.035 C 
ATOM     14  N   UNL     1       8.930  -1.575   8.661  0.00  0.00    -0.284 N 
ATOM     15  C   UNL     1       8.672  -1.068   7.441  0.00  0.00    +0.326 C 
ATOM     16  O   UNL     1       9.344  -0.206   6.910  0.00  0.00    -0.251 OA
ATOM     17  H   UNL     1       9.659  -1.326   9.251  0.00  0.00    +0.151 HD
ENDBRANCH   3   5
BRANCH   1  24
ATOM     18  C   UNL     1       4.164  -0.959   1.377  0.00  0.00    +0.220 C 
ATOM     19  O   UNL     1       3.486  -0.579   2.308  0.00  0.00    -0.275 OA
ATOM     20  N   UNL     1       5.323  -1.607   1.608  0.00  0.00    -0.300 N 
ATOM     21  C   UNL     1       6.159  -2.069   0.491  0.00  0.00    +0.108 C 
ATOM     22  C   UNL     1       7.578  -1.525   0.679  0.00  0.00    +0.020 C 
ATOM     23  C   UNL     1       8.097  -1.931   2.061  0.00  0.00    +0.016 C 
ATOM     24  C   UNL     1       7.200  -1.325   3.143  0.00  0.00    +0.094 C 
ATOM     25  C   UNL     1       5.779  -1.861   2.982  0.00  0.00    +0.120 C 
BRANCH  18  26
ATOM     26  C   UNL     1       3.711  -0.707  -0.038  0.00  0.00    +0.131 C 
BRANCH  26  30
ATOM     27  C   UNL     1      -0.017   1.378   0.010  0.00  0.00    +0.000 A 
ATOM     28  C   UNL     1       1.171   2.086   0.002  0.00  0.00    +0.000 A 
ATOM     29  C   UNL     1       2.377   1.411  -0.013  0.00  0.00    +0.004 A 
ATOM     30  C   UNL     1       2.396   0.029  -0.020  0.00  0.00    -0.039 A 
ATOM     31  C   UNL     1       1.208  -0.679  -0.012  0.00  0.00    +0.004 A 
ATOM     32  C   UNL     1       0.002  -0.004   0.002  0.00  0.00    +0.000 A 
ENDBRANCH  26  30
ENDBRANCH  18  26
ENDBRANCH   1  24
TORSDOF 4
