REMARK  Name = ZINC13770811
REMARK  8 active torsions:
REMARK  status: ('A' for Active; 'I' for Inactive)
REMARK    1  A    between atoms: C_1  and  C_2
REMARK    2  A    between atoms: N_5  and  C_7
REMARK    3  A    between atoms: N_18  and  C_21
REMARK    4  A    between atoms: C_21  and  C_22
REMARK    5  A    between atoms: C_22  and  N_23
REMARK    6  A    between atoms: C_29  and  C_31
REMARK    7  A    between atoms: C_34  and  O_37
REMARK    8  A    between atoms: O_37  and  C_38
REMARK                            x       y       z     vdW  Elec       q    Type
REMARK                         _______ _______ _______ _____ _____    ______ ____
ROOT
ATOM      1  C   UNL     1       1.806  -1.847  -0.026  0.00  0.00    +0.068 C 
ATOM      2  C   UNL     1       1.327  -0.418  -0.014  0.00  0.00    +0.068 A 
ATOM      3  C   UNL     1       0.002  -0.004   0.002  0.00  0.00    +0.049 A 
ATOM      4  C   UNL     1      -0.017   1.363   0.009  0.00  0.00    +0.230 A 
ATOM      5  N   UNL     1       1.267   1.786  -0.000  0.00  0.00    -0.200 N 
ATOM      6  N   UNL     1       2.091   0.649  -0.015  0.00  0.00    -0.168 NA
ATOM      7  O   UNL     1      -1.166   2.077   0.019  0.00  0.00    -0.419 OA
ATOM      8  C   UNL     1      -2.323   1.433  -0.274  0.00  0.00    +0.231 A 
ATOM      9  C   UNL     1      -2.425   0.076  -0.298  0.00  0.00    +0.066 A 
ATOM     10  C   UNL     1      -3.672  -0.511  -0.623  0.00  0.00    +0.115 A 
ATOM     11  N   UNL     1      -3.812  -1.820  -0.658  0.00  0.00    -0.384 N 
ATOM     12  N   UNL     1      -4.737   0.321  -0.904  0.00  0.00    -0.317 N 
ATOM     13  C   UNL     1      -4.558   1.665  -0.858  0.00  0.00    +0.204 A 
ATOM     14  N   UNL     1      -3.405   2.187  -0.557  0.00  0.00    -0.202 NA
ATOM     15  C   UNL     1      -1.258  -0.829   0.011  0.00  0.00    +0.095 C 
ATOM     16  H   UNL     1      -4.786  -2.263  -0.912  0.00  0.00    +0.157 HD
ATOM     17  H   UNL     1      -2.954  -2.471  -0.432  0.00  0.00    +0.157 HD
ENDROOT
BRANCH   5  18
ATOM     18  C   UNL     1       1.698   3.119   0.003  0.00  0.00    +0.069 A 
ATOM     19  C   UNL     1       0.971   4.087  -0.679  0.00  0.00    +0.028 A 
ATOM     20  C   UNL     1       1.396   5.401  -0.670  0.00  0.00    +0.002 A 
ATOM     21  C   UNL     1       2.548   5.752   0.009  0.00  0.00    +0.000 A 
ATOM     22  C   UNL     1       3.277   4.790   0.684  0.00  0.00    +0.002 A 
ATOM     23  C   UNL     1       2.855   3.475   0.683  0.00  0.00    +0.028 A 
ENDBRANCH   5  18
BRANCH  15  24
ATOM     24  C   UNL     1      -1.443  -1.456   1.368  0.00  0.00    -0.035 A 
ATOM     25  C   UNL     1      -1.557  -0.655   2.489  0.00  0.00    +0.008 A 
ATOM     26  C   UNL     1      -1.732  -1.228   3.734  0.00  0.00    +0.046 A 
ATOM     27  C   UNL     1      -1.782  -2.608   3.860  0.00  0.00    +0.120 A 
ATOM     28  C   UNL     1      -1.661  -3.410   2.735  0.00  0.00    +0.046 A 
ATOM     29  C   UNL     1      -1.492  -2.833   1.491  0.00  0.00    +0.008 A 
BRANCH  27  30
ATOM     30  O   UNL     1      -1.948  -3.174   5.085  0.00  0.00    -0.495 OA
ATOM     31  C   UNL     1      -2.065  -2.287   6.199  0.00  0.00    +0.277 C 
ENDBRANCH  27  30
ENDBRANCH  15  24
BRANCH  12  32
ATOM     32  C   UNL     1      -6.046  -0.241  -1.246  0.00  0.00    +0.140 C 
BRANCH  32  33
ATOM     33  C   UNL     1      -6.819  -0.550   0.037  0.00  0.00    +0.106 C 
BRANCH  33  34
ATOM     34  N   UNL     1      -8.132  -1.114  -0.306  0.00  0.00    -0.296 NA
ATOM     35  C   UNL     1      -8.974  -0.115  -0.981  0.00  0.00    +0.112 C 
ATOM     36  C   UNL     1     -10.306  -0.760  -1.374  0.00  0.00    +0.175 C 
ATOM     37  O   UNL     1     -10.933  -1.295  -0.205  0.00  0.00    -0.377 OA
ATOM     38  C   UNL     1     -10.141  -2.271   0.477  0.00  0.00    +0.175 C 
ATOM     39  C   UNL     1      -8.807  -1.642   0.888  0.00  0.00    +0.112 C 
ENDBRANCH  33  34
ENDBRANCH  32  33
ENDBRANCH  12  32
TORSDOF 6
