REMARK  Name = ZINC43729610
REMARK  4 active torsions:
REMARK  status: ('A' for Active; 'I' for Inactive)
REMARK    1  A    between atoms: C_4  and  C_7
REMARK    2  A    between atoms: C_16  and  C_18
REMARK    3  A    between atoms: C_18  and  C_20
REMARK    4  A    between atoms: C_24  and  N_26
REMARK                            x       y       z     vdW  Elec       q    Type
REMARK                         _______ _______ _______ _____ _____    ______ ____
ROOT
ATOM      1  C   UNL     1       3.876  -0.819   0.044  0.00  0.00    +0.050 C 
ATOM      2  C   UNL     1       3.987  -1.803   1.224  0.00  0.00    +0.077 C 
ATOM      3  C   UNL     1       2.561  -2.076   1.781  0.00  0.00    +0.090 C 
ATOM      4  S   UNL     1       2.888  -3.725   2.552  0.00  0.00    -0.144 S 
ATOM      5  C   UNL     1       4.180  -4.286   1.364  0.00  0.00    +0.155 C 
ATOM      6  N   UNL     1       4.582  -3.032   0.671  0.00  0.00    -0.271 NA
ATOM      7  C   UNL     1       4.201  -3.110  -0.745  0.00  0.00    +0.137 C 
ATOM      8  C   UNL     1       3.747  -1.718  -1.202  0.00  0.00    +0.103 C 
ATOM      9  C   UNL     1       3.110  -4.127  -0.956  0.00  0.00    +0.004 A 
ATOM     10  C   UNL     1       1.827  -4.248  -0.471  0.00  0.00    +0.008 A 
ATOM     11  C   UNL     1       1.041  -5.320  -0.855  0.00  0.00    +0.000 A 
ATOM     12  C   UNL     1       1.547  -6.267  -1.726  0.00  0.00    +0.002 A 
ATOM     13  C   UNL     1       2.832  -6.149  -2.214  0.00  0.00    +0.023 A 
ATOM     14  C   UNL     1       3.630  -5.073  -1.832  0.00  0.00    +0.039 A 
ATOM     15  N   UNL     1       4.940  -4.738  -2.182  0.00  0.00    -0.283 N 
ATOM     16  C   UNL     1       5.350  -3.602  -1.589  0.00  0.00    +0.243 C 
ATOM     17  O   UNL     1       6.435  -3.075  -1.709  0.00  0.00    -0.273 OA
ATOM     18  H   UNL     1       5.490  -5.263  -2.784  0.00  0.00    +0.155 HD
ENDROOT
BRANCH   1  22
ATOM     19  C   UNL     1       0.408   1.637   0.477  0.00  0.00    +0.000 A 
ATOM     20  C   UNL     1       0.294   0.371  -0.064  0.00  0.00    +0.000 A 
ATOM     21  C   UNL     1       1.417  -0.424  -0.205  0.00  0.00    +0.004 A 
ATOM     22  C   UNL     1       2.653   0.048   0.196  0.00  0.00    -0.042 A 
ATOM     23  C   UNL     1       2.766   1.315   0.737  0.00  0.00    +0.004 A 
ATOM     24  C   UNL     1       1.644   2.109   0.879  0.00  0.00    +0.000 A 
ENDBRANCH   1  22
BRANCH   8  25
ATOM     25  C   UNL     1       4.640  -1.211  -2.305  0.00  0.00    +0.169 C 
ATOM     26  O   UNL     1       5.637  -0.576  -2.035  0.00  0.00    -0.292 OA
BRANCH  25  27
ATOM     27  C   UNL     1       4.302  -1.488  -3.711  0.00  0.00    +0.020 A 
ATOM     28  C   UNL     1       3.150  -2.215  -4.027  0.00  0.00    +0.011 A 
ATOM     29  C   UNL     1       2.840  -2.470  -5.346  0.00  0.00    +0.003 A 
ATOM     30  C   UNL     1       3.666  -2.008  -6.356  0.00  0.00    +0.033 A 
ATOM     31  C   UNL     1       4.807  -1.287  -6.051  0.00  0.00    +0.127 A 
ATOM     32  C   UNL     1       5.128  -1.019  -4.737  0.00  0.00    +0.044 A 
BRANCH  31  33
ATOM     33  N   UNL     1       5.683  -0.798  -7.139  0.00  0.00    +0.056 N 
ATOM     34  O   UNL     1       5.401  -1.028  -8.292  0.00  0.00    -0.126 OA
ATOM     35  O   UNL     1       6.681  -0.168  -6.875  0.00  0.00    -0.126 OA
ENDBRANCH  31  33
ENDBRANCH  25  27
ENDBRANCH   8  25
TORSDOF 4
