REMARK  Name = ZINC19581512
REMARK  8 active torsions:
REMARK  status: ('A' for Active; 'I' for Inactive)
REMARK    1  A    between atoms: C_1  and  N_2
REMARK    2  A    between atoms: N_2  and  C_3
REMARK    3  A    between atoms: N_2  and  C_4
REMARK    4  A    between atoms: C_4  and  C_6
REMARK    5  A    between atoms: C_4  and  C_13
REMARK    6  A    between atoms: C_24  and  C_26
REMARK    7  A    between atoms: C_29  and  O_32
REMARK    8  A    between atoms: O_32  and  C_33
REMARK                            x       y       z     vdW  Elec       q    Type
REMARK                         _______ _______ _______ _____ _____    ______ ____
ROOT
ATOM      1  C   UNL     1      -1.594  -0.165  -1.703  0.00  0.00    +0.238 C 
ATOM      2  O   UNL     1      -1.255   0.725  -2.454  0.00  0.00    -0.273 OA
ATOM      3  N   UNL     1      -2.540  -1.046  -2.086  0.00  0.00    -0.287 N 
ATOM      4  C   UNL     1      -2.968  -2.128  -1.187  0.00  0.00    +0.115 C 
ATOM      5  C   UNL     1      -4.444  -1.922  -0.822  0.00  0.00    +0.074 C 
ATOM      6  C   UNL     1      -5.210  -1.581  -2.073  0.00  0.00    +0.042 A 
ATOM      7  C   UNL     1      -4.654  -1.144  -3.223  0.00  0.00    +0.087 A 
ATOM      8  N   UNL     1      -5.634  -0.941  -4.107  0.00  0.00    -0.238 NA
ATOM      9  C   UNL     1      -6.780  -1.237  -3.551  0.00  0.00    +0.197 A 
ATOM     10  N   UNL     1      -6.555  -1.642  -2.280  0.00  0.00    -0.348 N 
ATOM     11  H   UNL     1      -7.226  -1.923  -1.637  0.00  0.00    +0.166 HD
ATOM     12  C   UNL     1      -3.174  -0.944  -3.412  0.00  0.00    +0.157 C 
ENDROOT
BRANCH  12  13
ATOM     13  C   UNL     1      -2.628  -2.012  -4.325  0.00  0.00    -0.021 A 
ATOM     14  C   UNL     1      -1.908  -1.657  -5.450  0.00  0.00    +0.009 A 
ATOM     15  C   UNL     1      -1.408  -2.635  -6.288  0.00  0.00    +0.046 A 
ATOM     16  C   UNL     1      -1.628  -3.974  -6.000  0.00  0.00    +0.120 A 
ATOM     17  C   UNL     1      -2.351  -4.327  -4.869  0.00  0.00    +0.046 A 
ATOM     18  C   UNL     1      -2.845  -3.346  -4.032  0.00  0.00    +0.009 A 
BRANCH  16  19
ATOM     19  O   UNL     1      -1.137  -4.937  -6.823  0.00  0.00    -0.495 OA
ATOM     20  C   UNL     1      -1.402  -6.295  -6.463  0.00  0.00    +0.277 C 
ENDBRANCH  16  19
ENDBRANCH  12  13
BRANCH   1  21
ATOM     21  C   UNL     1      -0.958  -0.286  -0.342  0.00  0.00    +0.173 C 
BRANCH  21  22
ATOM     22  C   UNL     1      -1.876   0.306   0.696  0.00  0.00    -0.021 A 
ATOM     23  C   UNL     1      -2.536  -0.520   1.586  0.00  0.00    +0.007 A 
ATOM     24  C   UNL     1      -3.378   0.022   2.539  0.00  0.00    +0.020 A 
ATOM     25  C   UNL     1      -3.560   1.392   2.601  0.00  0.00    +0.041 A 
ATOM     26  C   UNL     1      -2.899   2.218   1.710  0.00  0.00    +0.020 A 
ATOM     27  C   UNL     1      -2.053   1.675   0.761  0.00  0.00    +0.007 A 
ATOM     28 CL   UNL     1      -4.618   2.074   3.796  0.00  0.00    -0.084 Cl
ENDBRANCH  21  22
BRANCH  21  30
ATOM     29  C   UNL     1       0.887   0.488   1.021  0.00  0.00    +0.105 C 
ATOM     30  N   UNL     1       0.322   0.436  -0.334  0.00  0.00    -0.294 NA
ATOM     31  C   UNL     1       1.272  -0.166  -1.278  0.00  0.00    +0.105 C 
ENDBRANCH  21  30
ENDBRANCH   1  21
TORSDOF 5
