REMARK  Name = ZINC39360826
REMARK  8 active torsions:
REMARK  status: ('A' for Active; 'I' for Inactive)
REMARK    1  A    between atoms: C_1  and  C_2
REMARK    2  A    between atoms: C_4  and  C_26
REMARK    3  A    between atoms: C_10  and  S_14
REMARK    4  A    between atoms: S_14  and  C_15
REMARK    5  A    between atoms: C_15  and  C_16
REMARK    6  A    between atoms: C_19  and  N_22
REMARK    7  A    between atoms: C_32  and  O_34
REMARK    8  A    between atoms: O_34  and  C_35
REMARK                            x       y       z     vdW  Elec       q    Type
REMARK                         _______ _______ _______ _____ _____    ______ ____
ROOT
ATOM      1  C   UNL     1      -0.018   1.503   0.010  0.00  0.00    +0.066 C 
ATOM      2  C   UNL     1       0.002  -0.004   0.002  0.00  0.00    +0.051 C 
ATOM      3  C   UNL     1      -1.196  -0.704   0.004  0.00  0.00    +0.066 C 
ATOM      4  C   UNL     1      -1.179  -2.214  -0.068  0.00  0.00    +0.078 C 
ATOM      5  C   UNL     1       0.044  -2.723   0.685  0.00  0.00    +0.157 C 
ATOM      6  C   UNL     1       1.244  -1.940   0.195  0.00  0.00    +0.145 C 
ATOM      7  N   UNL     1       2.340  -2.627  -0.084  0.00  0.00    -0.208 NA
ATOM      8  C   UNL     1       2.361  -3.956  -0.024  0.00  0.00    +0.182 C 
ATOM      9  N   UNL     1       1.307  -4.730   0.193  0.00  0.00    -0.154 NA
ATOM     10  C   UNL     1       0.114  -4.229   0.553  0.00  0.00    +0.250 C 
ATOM     11  O   UNL     1      -0.856  -4.935   0.753  0.00  0.00    -0.273 OA
ATOM     12  N   UNL     1       1.162  -0.640  -0.013  0.00  0.00    -0.236 NA
ATOM     13  C   UNL     1      -2.397  -0.025   0.072  0.00  0.00    +0.337 C 
ATOM     14  O   UNL     1      -2.408   1.320   0.137  0.00  0.00    -0.245 OA
ENDROOT
BRANCH   4  15
ATOM     15  C   UNL     1      -2.432  -2.765   0.562  0.00  0.00    -0.020 A 
ATOM     16  C   UNL     1      -3.307  -3.544  -0.179  0.00  0.00    +0.007 A 
ATOM     17  C   UNL     1      -4.447  -4.029   0.442  0.00  0.00    +0.020 A 
ATOM     18  C   UNL     1      -4.672  -3.723   1.771  0.00  0.00    +0.111 A 
ATOM     19  N   UNL     1      -3.818  -2.979   2.446  0.00  0.00    -0.263 NA
ATOM     20  C   UNL     1      -2.720  -2.505   1.889  0.00  0.00    +0.115 A 
ENDBRANCH   4  15
BRANCH  13  21
ATOM     21  O   UNL     1      -3.558  -0.709   0.074  0.00  0.00    -0.465 OA
ATOM     22  C   UNL     1      -4.762   0.058   0.146  0.00  0.00    +0.280 C 
ENDBRANCH  13  21
BRANCH   8  23
ATOM     23  S   UNL     1       3.916  -4.752  -0.252  0.00  0.00    -0.084 S 
BRANCH  23  24
ATOM     24  C   UNL     1       3.532  -6.518  -0.101  0.00  0.00    +0.112 C 
BRANCH  24  25
ATOM     25  C   UNL     1       4.793  -7.324  -0.278  0.00  0.00    -0.037 A 
ATOM     26  C   UNL     1       5.173  -7.745  -1.539  0.00  0.00    +0.007 A 
ATOM     27  C   UNL     1       6.330  -8.484  -1.701  0.00  0.00    +0.033 A 
ATOM     28  C   UNL     1       7.107  -8.802  -0.603  0.00  0.00    +0.126 A 
ATOM     29  C   UNL     1       6.728  -8.380   0.657  0.00  0.00    +0.033 A 
ATOM     30  C   UNL     1       5.573  -7.637   0.819  0.00  0.00    +0.007 A 
BRANCH  28  31
ATOM     31  N   UNL     1       8.345  -9.594  -0.777  0.00  0.00    +0.056 N 
ATOM     32  O   UNL     1       8.677  -9.963  -1.879  0.00  0.00    -0.126 OA
ATOM     33  O   UNL     1       9.025  -9.871   0.183  0.00  0.00    -0.126 OA
ENDBRANCH  28  31
ENDBRANCH  24  25
ENDBRANCH  23  24
ENDBRANCH   8  23
TORSDOF 6
