REMARK  Name = ZINC15733777
REMARK  8 active torsions:
REMARK  status: ('A' for Active; 'I' for Inactive)
REMARK    1  A    between atoms: C_1  and  C_2
REMARK    2  A    between atoms: C_7  and  S_8
REMARK    3  A    between atoms: S_8  and  N_11
REMARK    4  A    between atoms: N_11  and  C_12
REMARK    5  A    between atoms: C_12  and  C_13
REMARK    6  A    between atoms: C_13  and  N_64
REMARK    7  A    between atoms: C_30  and  C_32
REMARK    8  A    between atoms: C_30  and  C_33
REMARK                            x       y       z     vdW  Elec       q    Type
REMARK                         _______ _______ _______ _____ _____    ______ ____
ROOT
ATOM      1  C   UNL     1      -1.479   1.860   0.659  0.00  0.00    +0.046 C 
ATOM      2  C   UNL     1      -0.304   1.051   0.173  0.00  0.00    -0.023 A 
ATOM      3  C   UNL     1      -0.450  -0.298  -0.063  0.00  0.00    +0.016 A 
ATOM      4  C   UNL     1       0.635  -1.044  -0.517  0.00  0.00    +0.011 A 
ATOM      5  C   UNL     1       1.876  -0.416  -0.733  0.00  0.00    +0.049 A 
ATOM      6  C   UNL     1       2.002   0.946  -0.489  0.00  0.00    +0.055 A 
ATOM      7  C   UNL     1       0.919   1.670  -0.039  0.00  0.00    +0.110 A 
ATOM      8  N   UNL     1       2.765  -1.379  -1.175  0.00  0.00    -0.357 N 
ATOM      9  H   UNL     1       3.694  -1.210  -1.400  0.00  0.00    +0.166 HD
ATOM     10  C   UNL     1       2.169  -2.575  -1.251  0.00  0.00    +0.028 A 
ATOM     11  C   UNL     1       0.843  -2.451  -0.863  0.00  0.00    +0.046 A 
ATOM     12  C   UNL     1      -0.054  -3.547  -0.844  0.00  0.00    +0.166 C 
ATOM     13  O   UNL     1      -1.200  -3.415  -0.465  0.00  0.00    -0.292 OA
ATOM     14  C   UNL     1       0.468  -4.888  -1.312  0.00  0.00    +0.086 C 
ATOM     15  C   UNL     1       1.955  -5.015  -0.981  0.00  0.00    -0.023 C 
ATOM     16  C   UNL     1       2.756  -3.903  -1.669  0.00  0.00    +0.060 C 
ATOM     17  C   UNL     1       2.146  -4.912   0.533  0.00  0.00    +0.011 C 
ATOM     18  C   UNL     1       2.465  -6.375  -1.462  0.00  0.00    +0.011 C 
ENDROOT
BRANCH   7  19
ATOM     19  S   UNL     1       1.089   3.397   0.267  0.00  0.00    +0.059 S 
ATOM     20  O   UNL     1       2.453   3.719   0.031  0.00  0.00    -0.153 OA
ATOM     21  O   UNL     1       0.025   4.038  -0.422  0.00  0.00    -0.153 OA
BRANCH  19  22
ATOM     22  N   UNL     1       0.819   3.637   1.883  0.00  0.00    -0.192 NA
ATOM     23  H   UNL     1       0.041   4.138   2.175  0.00  0.00    +0.148 HD
BRANCH  22  24
ATOM     24  C   UNL     1       1.753   3.092   2.871  0.00  0.00    +0.087 C 
BRANCH  24  25
ATOM     25  C   UNL     1       1.480   3.728   4.236  0.00  0.00    -0.061 C 
BRANCH  25  35
ATOM     26  C   UNL     1       2.348   3.934   6.489  0.00  0.00    -0.074 C 
ATOM     27  C   UNL     1       3.048   3.120   7.578  0.00  0.00    +0.017 C 
ATOM     28  C   UNL     1       4.411   2.688   7.102  0.00  0.00    -0.048 A 
ATOM     29  C   UNL     1       5.333   2.254   8.043  0.00  0.00    +0.004 A 
ATOM     30  C   UNL     1       6.591   1.845   7.649  0.00  0.00    +0.000 A 
ATOM     31  C   UNL     1       6.934   1.870   6.310  0.00  0.00    +0.000 A 
ATOM     32  C   UNL     1       6.018   2.304   5.373  0.00  0.00    +0.002 A 
ATOM     33  C   UNL     1       4.753   2.716   5.767  0.00  0.00    -0.061 A 
ATOM     34  C   UNL     1       3.790   3.185   4.709  0.00  0.00    -0.043 C 
ATOM     35  N   UNL     1       2.414   3.159   5.234  0.00  0.00    +0.383 N 
ATOM     36  H   UNL     1       2.147   2.187   5.426  0.00  0.00    -0.081 HD
ENDBRANCH  25  35
ENDBRANCH  24  25
ENDBRANCH  22  24
ENDBRANCH  19  22
ENDBRANCH   7  19
TORSDOF 5
