REMARK  Name = ZINC21882423
REMARK  7 active torsions:
REMARK  status: ('A' for Active; 'I' for Inactive)
REMARK    1  A    between atoms: C_1  and  C_2
REMARK    2  A    between atoms: C_15  and  C_17
REMARK    3  A    between atoms: C_17  and  C_18
REMARK    4  A    between atoms: C_18  and  C_19
REMARK    5  A    between atoms: N_21  and  C_22
REMARK    6  A    between atoms: C_22  and  C_23
REMARK    7  A    between atoms: C_23  and  C_24
REMARK                            x       y       z     vdW  Elec       q    Type
REMARK                         _______ _______ _______ _____ _____    ______ ____
ROOT
ATOM      1  C   UNL     1       4.756  -2.305 -13.695  0.00  0.00    +0.008 C 
ATOM      2  C   UNL     1       3.676  -1.914 -12.685  0.00  0.00    -0.009 C 
ATOM      3  C   UNL     1       3.131  -0.525 -13.028  0.00  0.00    +0.008 C 
ATOM      4  C   UNL     1       1.888  -0.232 -12.186  0.00  0.00    +0.037 C 
ATOM      5  C   UNL     1       2.224  -0.463 -10.715  0.00  0.00    -0.023 A 
ATOM      6  C   UNL     1       3.298  -1.200 -10.361  0.00  0.00    -0.004 A 
ATOM      7  S   UNL     1       3.293  -1.195  -8.588  0.00  0.00    -0.073 S 
ATOM      8  C   UNL     1       1.845  -0.201  -8.329  0.00  0.00    +0.116 A 
ATOM      9  C   UNL     1       1.414   0.093  -9.632  0.00  0.00    +0.075 A 
ATOM     10  C   UNL     1       0.235   0.903  -9.728  0.00  0.00    +0.260 A 
ATOM     11  O   UNL     1      -0.218   1.211 -10.816  0.00  0.00    -0.267 OA
ATOM     12  N   UNL     1      -0.366   1.312  -8.595  0.00  0.00    -0.310 N 
ATOM     13  H   UNL     1      -1.277   1.927  -8.647  0.00  0.00    +0.170 HD
ATOM     14  C   UNL     1       0.127   0.981  -7.374  0.00  0.00    +0.111 A 
ATOM     15  N   UNL     1       1.200   0.244  -7.255  0.00  0.00    -0.227 NA
ATOM     16  C   UNL     1       4.278  -1.873 -11.273  0.00  0.00    +0.046 C 
ENDROOT
BRANCH  14  17
ATOM     17  C   UNL     1      -0.578   1.467  -6.134  0.00  0.00    +0.083 C 
BRANCH  17  18
ATOM     18  C   UNL     1       0.162   0.960  -4.895  0.00  0.00    +0.103 C 
BRANCH  18  19
ATOM     19  C   UNL     1      -0.543   1.446  -3.655  0.00  0.00    +0.213 C 
ATOM     20  O   UNL     1      -1.540   2.130  -3.753  0.00  0.00    -0.276 OA
ATOM     21  N   UNL     1      -0.067   1.120  -2.437  0.00  0.00    -0.315 N 
ATOM     22  H   UNL     1       0.837   0.499  -2.348  0.00  0.00    +0.149 HD
BRANCH  21  23
ATOM     23  C   UNL     1      -0.753   1.593  -1.232  0.00  0.00    +0.109 C 
BRANCH  23  24
ATOM     24  C   UNL     1      -0.013   1.086   0.008  0.00  0.00    +0.054 C 
BRANCH  24  25
ATOM     25  C   UNL     1      -0.718   1.572   1.248  0.00  0.00    -0.046 A 
ATOM     26  C   UNL     1      -0.360   2.779   1.818  0.00  0.00    +0.005 A 
ATOM     27  C   UNL     1      -1.010   3.228   2.952  0.00  0.00    +0.020 A 
ATOM     28  C   UNL     1      -2.012   2.464   3.523  0.00  0.00    +0.041 A 
ATOM     29  C   UNL     1      -2.367   1.253   2.955  0.00  0.00    +0.020 A 
ATOM     30  C   UNL     1      -1.719   0.808   1.817  0.00  0.00    +0.005 A 
ATOM     31 CL   UNL     1      -2.825   3.024   4.951  0.00  0.00    -0.084 Cl
ENDBRANCH  24  25
ENDBRANCH  23  24
ENDBRANCH  21  23
ENDBRANCH  18  19
ENDBRANCH  17  18
ENDBRANCH  14  17
TORSDOF 6
