REMARK  Name = ZINC40685928
REMARK  9 active torsions:
REMARK  status: ('A' for Active; 'I' for Inactive)
REMARK    1  A    between atoms: C_1  and  C_2
REMARK    2  A    between atoms: C_2  and  C_3
REMARK    3  A    between atoms: C_7  and  C_29
REMARK    4  A    between atoms: C_8  and  N_9
REMARK    5  A    between atoms: C_10  and  C_12
REMARK    6  A    between atoms: C_12  and  C_14
REMARK    7  A    between atoms: C_12  and  N_15
REMARK    8  A    between atoms: C_18  and  C_26
REMARK    9  A    between atoms: C_29  and  C_30
REMARK                            x       y       z     vdW  Elec       q    Type
REMARK                         _______ _______ _______ _____ _____    ______ ____
ROOT
ATOM      1  C   UNL     1      -4.197   4.016  -1.336  0.00  0.00    +0.164 C 
ATOM      2  C   UNL     1      -3.166   4.904  -0.637  0.00  0.00    +0.038 C 
ENDROOT
BRANCH   1   3
ATOM      3  N   UNL     1      -4.382   4.474  -2.715  0.00  0.00    -0.254 N 
ATOM      4  C   UNL     1      -5.641   4.904  -3.160  0.00  0.00    +0.080 A 
ATOM      5  C   UNL     1      -6.639   5.208  -2.257  0.00  0.00    +0.042 A 
ATOM      6  C   UNL     1      -7.889   5.634  -2.723  0.00  0.00    +0.065 A 
ATOM      7  C   UNL     1      -8.117   5.748  -4.098  0.00  0.00    +0.019 A 
ATOM      8  C   UNL     1      -7.115   5.443  -4.993  0.00  0.00    +0.048 A 
ATOM      9  C   UNL     1      -5.876   5.021  -4.532  0.00  0.00    +0.143 A 
ATOM     10  O   UNL     1      -4.881   4.721  -5.407  0.00  0.00    -0.481 OA
ATOM     11  C   UNL     1      -3.545   5.000  -4.982  0.00  0.00    +0.325 C 
ATOM     12  C   UNL     1      -3.341   4.495  -3.576  0.00  0.00    +0.258 C 
ATOM     13  O   UNL     1      -2.249   4.106  -3.221  0.00  0.00    -0.271 OA
BRANCH   6  14
ATOM     14  C   UNL     1      -8.960   5.960  -1.767  0.00  0.00    +0.387 C 
ATOM     15  O   UNL     1      -8.759   5.859  -0.564  0.00  0.00    -0.241 OA
ATOM     16  O   UNL     1     -10.052   6.333  -2.175  0.00  0.00    -0.241 OA
ENDBRANCH   6  14
ENDBRANCH   1   3
BRANCH   1  18
ATOM     17  N   UNL     1      -3.469   1.955  -0.177  0.00  0.00    -0.283 N 
ATOM     18  C   UNL     1      -3.709   2.590  -1.341  0.00  0.00    +0.238 C 
ATOM     19  O   UNL     1      -3.534   2.013  -2.394  0.00  0.00    -0.273 OA
ATOM     20  H   UNL     1      -3.689   2.385   0.664  0.00  0.00    +0.155 HD
BRANCH  17  26
ATOM     21  C   UNL     1      -1.567   0.506   0.165  0.00  0.00    -0.026 A 
ATOM     22  C   UNL     1      -1.012  -0.759   0.165  0.00  0.00    +0.005 A 
ATOM     23  C   UNL     1      -1.781  -1.854  -0.184  0.00  0.00    +0.001 A 
ATOM     24  C   UNL     1      -3.108  -1.686  -0.535  0.00  0.00    +0.005 A 
ATOM     25  C   UNL     1      -3.669  -0.425  -0.537  0.00  0.00    -0.026 A 
ATOM     26  C   UNL     1      -2.901   0.676  -0.181  0.00  0.00    +0.040 A 
BRANCH  21  28
ATOM     27  C   UNL     1      -0.922   2.005   2.031  0.00  0.00    +0.009 C 
ATOM     28  C   UNL     1      -0.728   1.698   0.545  0.00  0.00    +0.033 C 
ENDBRANCH  21  28
BRANCH  25  29
ATOM     29  C   UNL     1      -5.116  -0.243  -0.920  0.00  0.00    +0.033 C 
ATOM     30  C   UNL     1      -5.698  -1.587  -1.363  0.00  0.00    +0.009 C 
ENDBRANCH  25  29
ENDBRANCH  17  26
ENDBRANCH   1  18
TORSDOF 6
