REMARK  Name = ZINC20086667
REMARK  9 active torsions:
REMARK  status: ('A' for Active; 'I' for Inactive)
REMARK    1  A    between atoms: C_1  and  O_2
REMARK    2  A    between atoms: O_2  and  C_3
REMARK    3  A    between atoms: C_5  and  C_13
REMARK    4  A    between atoms: C_6  and  O_11
REMARK    5  A    between atoms: C_8  and  O_9
REMARK    6  A    between atoms: O_9  and  C_10
REMARK    7  A    between atoms: O_11  and  C_12
REMARK    8  A    between atoms: C_15  and  C_31
REMARK    9  A    between atoms: C_16  and  N_30
REMARK                            x       y       z     vdW  Elec       q    Type
REMARK                         _______ _______ _______ _____ _____    ______ ____
ROOT
ATOM      1  C   UNL     1       2.462   0.338   4.203  0.00  0.00    +0.105 C 
ATOM      2  C   UNL     1       1.403   1.175   4.863  0.00  0.00    +0.098 C 
ATOM      3  C   UNL     1       1.289   2.496   4.579  0.00  0.00    +0.199 C 
ATOM      4  O   UNL     1       2.114   3.094   3.704  0.00  0.00    -0.437 OA
ATOM      5  C   UNL     1       3.305   2.532   3.398  0.00  0.00    +0.185 C 
ATOM      6  C   UNL     1       3.530   1.224   3.613  0.00  0.00    +0.059 C 
ATOM      7  C   UNL     1       4.830   0.627   3.275  0.00  0.00    +0.194 C 
ATOM      8  O   UNL     1       5.023  -0.556   3.475  0.00  0.00    -0.287 OA
ATOM      9  C   UNL     1       5.904   1.459   2.691  0.00  0.00    +0.033 A 
ATOM     10  C   UNL     1       7.135   0.907   2.363  0.00  0.00    +0.012 A 
ATOM     11  C   UNL     1       8.126   1.709   1.816  0.00  0.00    +0.001 A 
ATOM     12  C   UNL     1       7.896   3.053   1.594  0.00  0.00    +0.001 A 
ATOM     13  C   UNL     1       6.672   3.618   1.916  0.00  0.00    +0.012 A 
ATOM     14  C   UNL     1       5.670   2.827   2.466  0.00  0.00    +0.036 A 
ATOM     15  C   UNL     1       4.364   3.396   2.817  0.00  0.00    +0.229 C 
ATOM     16  O   UNL     1       4.151   4.576   2.628  0.00  0.00    -0.283 OA
ENDROOT
BRANCH   1  19
ATOM     17  C   UNL     1       0.627  -0.619   1.043  0.00  0.00    +0.162 A 
ATOM     18  C   UNL     1       1.202   0.137   2.051  0.00  0.00    +0.057 A 
ATOM     19  C   UNL     1       1.837  -0.487   3.108  0.00  0.00    +0.011 A 
ATOM     20  C   UNL     1       1.899  -1.871   3.163  0.00  0.00    +0.128 A 
ATOM     21  C   UNL     1       1.324  -2.632   2.156  0.00  0.00    +0.095 A 
ATOM     22  C   UNL     1       0.683  -2.008   1.098  0.00  0.00    +0.165 A 
BRANCH  17  24
ATOM     23  C   UNL     1      -0.017   1.425   0.010  0.00  0.00    +0.277 C 
ATOM     24  O   UNL     1       0.002  -0.004   0.002  0.00  0.00    -0.491 OA
ENDBRANCH  17  24
BRANCH  22  25
ATOM     25  O   UNL     1       0.113  -2.752   0.113  0.00  0.00    -0.491 OA
ATOM     26  C   UNL     1       0.209  -4.173   0.235  0.00  0.00    +0.277 C 
ENDBRANCH  22  25
BRANCH  20  27
ATOM     27  O   UNL     1       2.524  -2.483   4.204  0.00  0.00    -0.495 OA
ATOM     28  C   UNL     1       2.550  -3.912   4.196  0.00  0.00    +0.277 C 
ENDBRANCH  20  27
ENDBRANCH   1  19
BRANCH   3  29
ATOM     29  N   UNL     1       0.312   3.236   5.198  0.00  0.00    -0.328 N 
ATOM     30  H   UNL     1      -0.289   2.814   5.831  0.00  0.00    +0.145 HD
ATOM     31  H   UNL     1       0.223   4.182   5.001  0.00  0.00    +0.145 HD
ENDBRANCH   3  29
BRANCH   2  32
ATOM     32  C   UNL     1       0.504   0.572   5.801  0.00  0.00    +0.101 C 
ATOM     33  N   UNL     1      -0.208   0.093   6.545  0.00  0.00    -0.191 NA
ENDBRANCH   2  32
TORSDOF 6
