REMARK  Name = ZINC37424194
REMARK  9 active torsions:
REMARK  status: ('A' for Active; 'I' for Inactive)
REMARK    1  A    between atoms: C_1  and  C_2
REMARK    2  A    between atoms: C_7  and  C_8
REMARK    3  A    between atoms: C_11  and  C_35
REMARK    4  A    between atoms: N_13  and  C_28
REMARK    5  A    between atoms: N_15  and  C_20
REMARK    6  A    between atoms: C_20  and  C_21
REMARK    7  A    between atoms: C_35  and  C_36
REMARK    8  A    between atoms: C_35  and  C_37
REMARK    9  A    between atoms: C_35  and  C_38
REMARK                            x       y       z     vdW  Elec       q    Type
REMARK                         _______ _______ _______ _____ _____    ______ ____
ROOT
ATOM      1  C   UNL     1      -0.320  -2.009   0.679  0.00  0.00    +0.112 C 
ATOM      2  C   UNL     1       0.155  -0.855   1.524  0.00  0.00    +0.034 A 
ATOM      3  C   UNL     1       1.473  -0.451   1.739  0.00  0.00    +0.075 A 
ATOM      4  N   UNL     1       1.458   0.595   2.530  0.00  0.00    -0.169 NA
ATOM      5  N   UNL     1       0.123   0.893   2.846  0.00  0.00    -0.218 N 
ATOM      6  C   UNL     1      -0.654  -0.018   2.215  0.00  0.00    +0.136 A 
ATOM      7  N   UNL     1      -2.053  -0.129   2.240  0.00  0.00    -0.246 N 
ATOM      8  C   UNL     1      -2.594  -1.327   2.485  0.00  0.00    +0.231 C 
ATOM      9  O   UNL     1      -3.759  -1.529   2.218  0.00  0.00    -0.274 OA
ATOM     10  C   UNL     1      -1.764  -2.421   3.086  0.00  0.00    +0.166 C 
ATOM     11  S   UNL     1      -0.886  -3.352   1.784  0.00  0.00    -0.138 S 
ENDROOT
BRANCH   1  18
ATOM     12  C   UNL     1       0.241  -0.728  -1.849  0.00  0.00    +0.044 C 
ATOM     13  C   UNL     1       1.081  -1.893  -1.391  0.00  0.00    -0.046 A 
ATOM     14  C   UNL     1       2.124  -2.345  -2.179  0.00  0.00    +0.003 A 
ATOM     15  C   UNL     1       2.894  -3.413  -1.760  0.00  0.00    +0.000 A 
ATOM     16  C   UNL     1       2.622  -4.029  -0.552  0.00  0.00    +0.000 A 
ATOM     17  C   UNL     1       1.580  -3.577   0.235  0.00  0.00    +0.005 A 
ATOM     18  C   UNL     1       0.812  -2.506  -0.182  0.00  0.00    -0.027 A 
ENDBRANCH   1  18
BRANCH   5  19
ATOM     19  C   UNL     1      -0.324   1.940   3.665  0.00  0.00    +0.068 A 
ATOM     20  C   UNL     1      -1.407   1.748   4.511  0.00  0.00    +0.030 A 
ATOM     21  C   UNL     1      -1.845   2.780   5.316  0.00  0.00    +0.040 A 
ATOM     22  C   UNL     1      -1.205   4.008   5.280  0.00  0.00    +0.124 A 
ATOM     23  C   UNL     1      -0.124   4.202   4.437  0.00  0.00    +0.040 A 
ATOM     24  C   UNL     1       0.321   3.169   3.635  0.00  0.00    +0.030 A 
ATOM     25  F   UNL     1      -1.635   5.017   6.069  0.00  0.00    -0.205 F 
ENDBRANCH   5  19
BRANCH   3  26
ATOM     26  C   UNL     1       2.703  -1.104   1.162  0.00  0.00    +0.007 C 
ATOM     27  C   UNL     1       2.822  -0.745  -0.321  0.00  0.00    +0.017 C 
ATOM     28  C   UNL     1       3.942  -0.607   1.909  0.00  0.00    +0.017 C 
ATOM     29  C   UNL     1       2.591  -2.622   1.311  0.00  0.00    +0.017 C 
ENDBRANCH   3  26
BRANCH   7  30
ATOM     30  C   UNL     1      -2.901   1.042   2.005  0.00  0.00    +0.211 C 
BRANCH  30  31
ATOM     31  C   UNL     1      -3.119   1.215   0.524  0.00  0.00    +0.233 C 
ATOM     32  O   UNL     1      -2.615   0.437  -0.258  0.00  0.00    -0.274 OA
ATOM     33  N   UNL     1      -3.873   2.234   0.068  0.00  0.00    -0.300 N 
ATOM     34  C   UNL     1      -4.535   3.250   0.900  0.00  0.00    +0.108 C 
ATOM     35  C   UNL     1      -5.302   4.193  -0.051  0.00  0.00    +0.020 C 
ATOM     36  C   UNL     1      -5.493   3.324  -1.322  0.00  0.00    +0.020 C 
ATOM     37  C   UNL     1      -4.167   2.520  -1.349  0.00  0.00    +0.108 C 
ENDBRANCH  30  31
ENDBRANCH   7  30
TORSDOF 5
