REMARK  Name = ZINC39638560
REMARK  8 active torsions:
REMARK  status: ('A' for Active; 'I' for Inactive)
REMARK    1  A    between atoms: C_1  and  C_2
REMARK    2  A    between atoms: C_2  and  O_3
REMARK    3  A    between atoms: O_3  and  C_4
REMARK    4  A    between atoms: C_9  and  C_10
REMARK    5  A    between atoms: C_10  and  N_11
REMARK    6  A    between atoms: C_12  and  C_14
REMARK    7  A    between atoms: C_25  and  C_27
REMARK    8  A    between atoms: C_30  and  C_33
REMARK                            x       y       z     vdW  Elec       q    Type
REMARK                         _______ _______ _______ _____ _____    ______ ____
ROOT
ATOM      1  C   UNL     1      -5.449   0.420  -3.627  0.00  0.00    +0.100 C 
ATOM      2  C   UNL     1      -5.729  -0.948  -4.290  0.00  0.00    +0.121 C 
ATOM      3  N   UNL     1      -7.205  -1.086  -4.255  0.00  0.00    -0.296 N 
ATOM      4  C   UNL     1      -7.709   0.275  -4.558  0.00  0.00    +0.115 C 
ATOM      5  C   UNL     1      -6.750   1.220  -3.809  0.00  0.00    -0.004 C 
ATOM      6  C   UNL     1      -6.488   2.473  -4.639  0.00  0.00    -0.010 C 
ATOM      7  C   UNL     1      -7.782   3.283  -4.756  0.00  0.00    -0.082 C 
ATOM      8  N   UNL     1      -8.256   3.649  -3.416  0.00  0.00    +0.379 N 
ATOM      9  C   UNL     1      -8.594   2.440  -2.656  0.00  0.00    -0.082 C 
ATOM     10  C   UNL     1      -7.334   1.595  -2.450  0.00  0.00    -0.010 C 
ATOM     11  C   UNL     1      -7.924  -2.197  -4.003  0.00  0.00    +0.247 C 
ATOM     12  O   UNL     1      -7.365  -3.216  -3.646  0.00  0.00    -0.270 OA
ATOM     13  H   UNL     1      -7.530   4.157  -2.932  0.00  0.00    -0.086 HD
ATOM     14  H   UNL     1      -9.074   4.234  -3.498  0.00  0.00    -0.086 HD
ENDROOT
BRANCH  11  15
ATOM     15  C   UNL     1      -9.394  -2.178  -4.163  0.00  0.00    +0.037 A 
ATOM     16  C   UNL     1     -10.000  -1.206  -4.961  0.00  0.00    +0.013 A 
ATOM     17  C   UNL     1     -11.371  -1.194  -5.106  0.00  0.00    +0.013 A 
ATOM     18  C   UNL     1     -12.147  -2.141  -4.462  0.00  0.00    +0.055 A 
ATOM     19  C   UNL     1     -11.553  -3.107  -3.669  0.00  0.00    +0.013 A 
ATOM     20  C   UNL     1     -10.182  -3.134  -3.521  0.00  0.00    +0.013 A 
BRANCH  18  21
ATOM     21  C   UNL     1     -13.645  -2.121  -4.625  0.00  0.00    +0.417 C 
ATOM     22  F   UNL     1     -14.005  -2.911  -5.722  0.00  0.00    -0.166 F 
ATOM     23  F   UNL     1     -14.246  -2.628  -3.468  0.00  0.00    -0.166 F 
ATOM     24  F   UNL     1     -14.074  -0.806  -4.836  0.00  0.00    -0.166 F 
ENDBRANCH  18  21
ENDBRANCH  11  15
BRANCH   1  26
ATOM     25  N   UNL     1      -4.418   1.167  -1.507  0.00  0.00    -0.311 N 
ATOM     26  C   UNL     1      -5.144   0.240  -2.162  0.00  0.00    +0.218 C 
ATOM     27  O   UNL     1      -5.551  -0.739  -1.573  0.00  0.00    -0.275 OA
ATOM     28  H   UNL     1      -4.092   1.950  -1.978  0.00  0.00    +0.149 HD
BRANCH  25  29
ATOM     29  C   UNL     1      -4.121   0.993  -0.083  0.00  0.00    +0.143 C 
BRANCH  29  35
ATOM     30  C   UNL     1      -3.922   3.361   0.718  0.00  0.00    +0.125 A 
ATOM     31  C   UNL     1      -3.165   4.431   1.173  0.00  0.00    +0.046 A 
ATOM     32  C   UNL     1      -1.797   4.300   1.309  0.00  0.00    +0.004 A 
ATOM     33  C   UNL     1      -1.181   3.103   0.992  0.00  0.00    +0.001 A 
ATOM     34  C   UNL     1      -1.932   2.035   0.538  0.00  0.00    +0.009 A 
ATOM     35  C   UNL     1      -3.302   2.159   0.406  0.00  0.00    +0.011 A 
BRANCH  30  36
ATOM     36  O   UNL     1      -5.268   3.487   0.584  0.00  0.00    -0.492 OA
BRANCH  36  38
ATOM     37  C   UNL     1      -7.352   4.703   0.711  0.00  0.00    +0.048 C 
ATOM     38  C   UNL     1      -5.838   4.752   0.924  0.00  0.00    +0.225 C 
ENDBRANCH  36  38
ENDBRANCH  30  36
ENDBRANCH  29  35
ENDBRANCH  25  29
ENDBRANCH   1  26
TORSDOF 7
