REMARK  Name = ZINC06970347
REMARK  2 active torsions:
REMARK  status: ('A' for Active; 'I' for Inactive)
REMARK    1  A    between atoms: C_3  and  C_10
REMARK    2  A    between atoms: C_5  and  N_7
REMARK                            x       y       z     vdW  Elec       q    Type
REMARK                         _______ _______ _______ _____ _____    ______ ____
ROOT
ATOM      1  C   UNL     1      -1.263   3.488   0.113  0.00  0.00    +0.105 C 
ATOM      2  C   UNL     1      -0.233   4.178  -0.757  0.00  0.00    +0.029 C 
ATOM      3  C   UNL     1      -0.174   5.709  -0.728  0.00  0.00    +0.033 C 
ATOM      4  C   UNL     1       1.304   5.963  -1.037  0.00  0.00    -0.030 C 
ATOM      5  C   UNL     1       2.031   4.917  -0.658  0.00  0.00    -0.023 C 
ATOM      6  C   UNL     1       1.129   3.913  -0.043  0.00  0.00    +0.049 C 
ATOM      7  C   UNL     1       1.378   2.458  -0.130  0.00  0.00    -0.018 A 
ATOM      8  C   UNL     1       2.655   1.945  -0.231  0.00  0.00    +0.006 A 
ATOM      9  C   UNL     1       2.861   0.580  -0.277  0.00  0.00    +0.001 A 
ATOM     10  C   UNL     1       1.778  -0.278  -0.221  0.00  0.00    +0.017 A 
ATOM     11  C   UNL     1       0.499   0.225  -0.128  0.00  0.00    +0.039 A 
ATOM     12  C   UNL     1       0.274   1.603  -0.088  0.00  0.00    +0.046 A 
ATOM     13  N   UNL     1      -1.049   2.039  -0.029  0.00  0.00    -0.336 N 
ATOM     14 BR   UNL     1      -0.970  -0.964  -0.052  0.00  0.00    -0.048 Br
ATOM     15  H   UNL     1      -1.586   1.668  -0.799  0.00  0.00    +0.147 HD
ENDROOT
BRANCH   1  18
ATOM     16  C   UNL     1      -0.132   3.493   3.715  0.00  0.00    +0.003 A 
ATOM     17  C   UNL     1      -0.307   3.117   2.396  0.00  0.00    +0.005 A 
ATOM     18  C   UNL     1      -1.075   3.896   1.552  0.00  0.00    -0.025 A 
ATOM     19  C   UNL     1      -1.676   5.046   2.028  0.00  0.00    +0.038 A 
ATOM     20  C   UNL     1      -1.504   5.420   3.347  0.00  0.00    +0.127 A 
ATOM     21  C   UNL     1      -0.732   4.644   4.191  0.00  0.00    +0.033 A 
BRANCH  20  22
ATOM     22  N   UNL     1      -2.146   6.652   3.857  0.00  0.00    +0.056 N 
ATOM     23  O   UNL     1      -2.827   7.337   3.114  0.00  0.00    -0.126 OA
ATOM     24  O   UNL     1      -1.995   6.982   5.020  0.00  0.00    -0.126 OA
ENDBRANCH  20  22
ENDBRANCH   1  18
TORSDOF 2
