REMARK  Name = ZINC08961061
REMARK  7 active torsions:
REMARK  status: ('A' for Active; 'I' for Inactive)
REMARK    1  A    between atoms: C_1  and  C_2
REMARK    2  A    between atoms: C_2  and  C_3
REMARK    3  A    between atoms: N_5  and  C_6
REMARK    4  A    between atoms: C_9  and  S_12
REMARK    5  A    between atoms: S_12  and  N_15
REMARK    6  A    between atoms: N_15  and  C_16
REMARK    7  A    between atoms: N_24  and  C_32
REMARK                            x       y       z     vdW  Elec       q    Type
REMARK                         _______ _______ _______ _____ _____    ______ ____
ROOT
ATOM      1  N   UNL     1      -5.735   3.588   2.022  0.00  0.00    -0.216 N 
ATOM      2  H   UNL     1      -6.439   3.099   2.476  0.00  0.00    +0.174 HD
ENDROOT
BRANCH   1   3
ATOM      3  C   UNL     1      -4.968   4.526   2.724  0.00  0.00    +0.049 A 
ATOM      4  C   UNL     1      -4.700   5.767   2.157  0.00  0.00    +0.028 A 
ATOM      5  C   UNL     1      -3.954   6.700   2.848  0.00  0.00    +0.049 A 
ATOM      6  C   UNL     1      -3.458   6.404   4.110  0.00  0.00    +0.141 A 
ATOM      7  C   UNL     1      -3.708   5.151   4.679  0.00  0.00    +0.081 A 
ATOM      8  C   UNL     1      -4.483   4.218   3.982  0.00  0.00    +0.041 A 
ATOM      9  C   UNL     1      -3.152   4.801   5.994  0.00  0.00    +0.254 C 
ATOM     10  O   UNL     1      -2.755   3.663   6.151  0.00  0.00    -0.270 OA
ATOM     11  N   UNL     1      -3.051   5.633   7.021  0.00  0.00    -0.267 N 
ATOM     12  C   UNL     1      -3.462   6.965   7.047  0.00  0.00    +0.079 A 
ATOM     13  C   UNL     1      -4.035   7.469   8.210  0.00  0.00    +0.027 A 
ATOM     14  C   UNL     1      -4.388   8.802   8.292  0.00  0.00    +0.002 A 
ATOM     15  C   UNL     1      -4.174   9.643   7.216  0.00  0.00    +0.004 A 
ATOM     16  C   UNL     1      -3.619   9.147   6.051  0.00  0.00    +0.048 A 
ATOM     17  C   UNL     1      -3.273   7.806   5.957  0.00  0.00    +0.150 A 
ATOM     18  O   UNL     1      -2.760   7.341   4.791  0.00  0.00    -0.453 OA
ATOM     19  C   UNL     1      -2.450   5.102   8.247  0.00  0.00    +0.139 C 
ENDBRANCH   1   3
BRANCH   1  20
ATOM     20  S   UNL     1      -5.439   3.313   0.416  0.00  0.00    +0.072 S 
ATOM     21  O   UNL     1      -5.379   4.587  -0.210  0.00  0.00    -0.150 OA
ATOM     22  O   UNL     1      -6.350   2.304   0.002  0.00  0.00    -0.150 OA
BRANCH  20  26
ATOM     23  C   UNL     1      -1.292   1.520   0.104  0.00  0.00    +0.033 A 
ATOM     24  C   UNL     1      -1.460   2.897   0.055  0.00  0.00    +0.025 A 
ATOM     25  C   UNL     1      -2.727   3.441   0.145  0.00  0.00    +0.030 A 
ATOM     26  C   UNL     1      -3.826   2.615   0.295  0.00  0.00    +0.109 A 
ATOM     27  C   UNL     1      -3.662   1.243   0.349  0.00  0.00    +0.030 A 
ATOM     28  C   UNL     1      -2.398   0.693   0.255  0.00  0.00    +0.025 A 
BRANCH  23  31
ATOM     29  C   UNL     1       0.924   1.561  -0.759  0.00  0.00    +0.217 C 
ATOM     30  O   UNL     1       0.631   2.523  -1.436  0.00  0.00    -0.275 OA
ATOM     31  N   UNL     1      -0.011   0.966   0.007  0.00  0.00    -0.286 N 
ATOM     32  H   UNL     1       0.203   0.151   0.488  0.00  0.00    +0.155 HD
BRANCH  29  34
ATOM     33  C   UNL     1       3.189   1.881  -1.717  0.00  0.00    +0.013 C 
ATOM     34  C   UNL     1       2.335   1.031  -0.773  0.00  0.00    +0.093 C 
ENDBRANCH  29  34
ENDBRANCH  23  31
ENDBRANCH  20  26
ENDBRANCH   1  20
TORSDOF 5
