REMARK  Name = ZINC20349741
REMARK  6 active torsions:
REMARK  status: ('A' for Active; 'I' for Inactive)
REMARK    1  A    between atoms: C_3  and  O_27
REMARK    2  A    between atoms: C_6  and  C_7
REMARK    3  A    between atoms: C_9  and  C_23
REMARK    4  A    between atoms: C_11  and  C_20
REMARK    5  A    between atoms: N_13  and  C_16
REMARK    6  A    between atoms: C_16  and  C_17
REMARK                            x       y       z     vdW  Elec       q    Type
REMARK                         _______ _______ _______ _____ _____    ______ ____
ROOT
ATOM      1  C   UNL     1      -2.307  -0.071   0.024  0.00  0.00    +0.074 A 
ATOM      2  C   UNL     1      -2.394   1.326   0.032  0.00  0.00    +0.041 A 
ATOM      3  C   UNL     1      -1.250   2.074   0.030  0.00  0.00    +0.069 A 
ATOM      4  C   UNL     1      -0.017   1.405   0.010  0.00  0.00    +0.054 A 
ATOM      5  C   UNL     1       1.330   1.837  -0.001  0.00  0.00    +0.076 A 
ATOM      6  N   UNL     1       2.101   0.789  -0.014  0.00  0.00    -0.173 NA
ATOM      7  N   UNL     1       1.321  -0.373  -0.013  0.00  0.00    -0.235 N 
ATOM      8  C   UNL     1       0.002  -0.004   0.002  0.00  0.00    +0.160 A 
ATOM      9  N   UNL     1      -1.135  -0.686   0.009  0.00  0.00    -0.228 NA
ENDROOT
BRANCH   1  15
ATOM     10  C   UNL     1      -4.794  -0.244   0.053  0.00  0.00    +0.013 A 
ATOM     11  C   UNL     1      -5.949  -0.996   0.055  0.00  0.00    +0.046 A 
ATOM     12  C   UNL     1      -5.876  -2.383   0.047  0.00  0.00    +0.117 A 
ATOM     13  C   UNL     1      -4.640  -3.016   0.032  0.00  0.00    +0.046 A 
ATOM     14  C   UNL     1      -3.481  -2.269   0.024  0.00  0.00    +0.013 A 
ATOM     15  C   UNL     1      -3.551  -0.876   0.032  0.00  0.00    +0.001 A 
BRANCH  12  16
ATOM     16  O   UNL     1      -7.016  -3.122   0.054  0.00  0.00    -0.507 OA
ATOM     17  H   UNL     1      -6.960  -4.220   0.048  0.00  0.00    +0.292 HD
ENDBRANCH  12  16
ENDBRANCH   1  15
BRANCH   3  18
ATOM     18  C   UNL     1      -1.312   3.580   0.039  0.00  0.00    +0.418 C 
ATOM     19  F   UNL     1      -2.649   3.991   0.060  0.00  0.00    -0.166 F 
ATOM     20  F   UNL     1      -0.657   4.067   1.175  0.00  0.00    -0.166 F 
ATOM     21  F   UNL     1      -0.688   4.079  -1.109  0.00  0.00    -0.166 F 
ENDBRANCH   3  18
BRANCH   5  22
ATOM     22  C   UNL     1       1.794   3.271   0.002  0.00  0.00    +0.040 C 
ATOM     23  C   UNL     1       3.286   3.531  -0.217  0.00  0.00    +0.010 C 
ATOM     24  C   UNL     1       2.670   3.728   1.170  0.00  0.00    +0.010 C 
ENDBRANCH   5  22
BRANCH   7  25
ATOM     25  C   UNL     1       1.828  -1.748  -0.024  0.00  0.00    +0.270 C 
BRANCH  25  26
ATOM     26  C   UNL     1       1.988  -2.212  -1.449  0.00  0.00    +0.377 C 
ATOM     27  O   UNL     1       1.708  -1.470  -2.361  0.00  0.00    -0.244 OA
ATOM     28  O   UNL     1       2.442  -3.449  -1.705  0.00  0.00    -0.244 OA
ENDBRANCH  25  26
ENDBRANCH   7  25
TORSDOF 6
