REMARK  Name = ZINC29817092
REMARK  6 active torsions:
REMARK  status: ('A' for Active; 'I' for Inactive)
REMARK    1  A    between atoms: C_3  and  S_6
REMARK    2  A    between atoms: S_6  and  N_9
REMARK    3  A    between atoms: N_9  and  C_10
REMARK    4  A    between atoms: C_10  and  C_11
REMARK    5  A    between atoms: C_11  and  C_12
REMARK    6  A    between atoms: N_14  and  C_15
REMARK                            x       y       z     vdW  Elec       q    Type
REMARK                         _______ _______ _______ _____ _____    ______ ____
ROOT
ATOM      1  C   UNL     1       5.512   0.036   4.538  0.00  0.00    +0.218 C 
ATOM      2  O   UNL     1       5.005  -1.011   4.194  0.00  0.00    -0.275 OA
ATOM      3  N   UNL     1       6.178   0.109   5.707  0.00  0.00    -0.285 N 
ATOM      4  H   UNL     1       6.641   0.926   5.952  0.00  0.00    +0.155 HD
ENDROOT
BRANCH   3   5
ATOM      5  C   UNL     1       6.203  -0.995   6.570  0.00  0.00    +0.035 A 
ATOM      6  C   UNL     1       6.242  -2.280   6.046  0.00  0.00    +0.024 A 
ATOM      7  C   UNL     1       6.269  -3.369   6.897  0.00  0.00    +0.018 A 
ATOM      8  C   UNL     1       6.256  -3.176   8.269  0.00  0.00    +0.030 A 
ATOM      9  C   UNL     1       6.213  -1.888   8.805  0.00  0.00    +0.049 A 
ATOM     10  C   UNL     1       6.194  -0.798   7.943  0.00  0.00    +0.047 A 
ATOM     11  N   UNL     1       6.189  -1.673  10.180  0.00  0.00    -0.284 N 
ATOM     12  C   UNL     1       6.599  -2.523  11.118  0.00  0.00    +0.227 C 
ATOM     13  O   UNL     1       6.521  -2.177  12.278  0.00  0.00    -0.275 OA
ATOM     14  C   UNL     1       7.153  -3.889  10.819  0.00  0.00    +0.170 C 
ATOM     15  S   UNL     1       6.295  -4.561   9.362  0.00  0.00    -0.114 S 
ATOM     16  H   UNL     1       5.841  -0.820  10.484  0.00  0.00    +0.155 HD
ENDBRANCH   3   5
BRANCH   1  17
ATOM     17  C   UNL     1       5.397   1.254   3.659  0.00  0.00    +0.113 C 
BRANCH  17  18
ATOM     18  C   UNL     1       4.598   0.903   2.402  0.00  0.00    +0.115 C 
BRANCH  18  19
ATOM     19  N   UNL     1       4.486   2.087   1.547  0.00  0.00    -0.189 NA
ATOM     20  H   UNL     1       4.693   2.965   1.905  0.00  0.00    +0.148 HD
BRANCH  19  21
ATOM     21  S   UNL     1       4.008   1.927  -0.030  0.00  0.00    +0.065 S 
ATOM     22  O   UNL     1       4.798   0.888  -0.591  0.00  0.00    -0.153 OA
ATOM     23  O   UNL     1       3.972   3.238  -0.578  0.00  0.00    -0.153 OA
BRANCH  21  26
ATOM     24  C   UNL     1      -0.013   1.374   0.011  0.00  0.00    +0.010 A 
ATOM     25  C   UNL     1       1.191   2.053  -0.000  0.00  0.00    +0.036 A 
ATOM     26  C   UNL     1       2.346   1.343  -0.014  0.00  0.00    +0.142 A 
ATOM     27  S   UNL     1       1.745  -0.338  -0.011  0.00  0.00    -0.077 S 
ATOM     28  C   UNL     1      -0.004   0.019   0.008  0.00  0.00    +0.047 A 
ENDBRANCH  21  26
ENDBRANCH  19  21
ENDBRANCH  18  19
ENDBRANCH  17  18
ENDBRANCH   1  17
TORSDOF 6
