REMARK  Name = ZINC15841623
REMARK  5 active torsions:
REMARK  status: ('A' for Active; 'I' for Inactive)
REMARK    1  A    between atoms: C_1  and  C_2
REMARK    2  A    between atoms: C_2  and  C_3
REMARK    3  A    between atoms: C_3  and  C_27
REMARK    4  A    between atoms: N_15  and  C_20
REMARK    5  A    between atoms: C_24  and  C_26
REMARK                            x       y       z     vdW  Elec       q    Type
REMARK                         _______ _______ _______ _____ _____    ______ ____
ROOT
ATOM      1  C   UNL     1       0.591   1.758   0.659  0.00  0.00    +0.004 C 
ATOM      2  C   UNL     1       0.830   1.288  -0.774  0.00  0.00    +0.047 C 
ATOM      3  C   UNL     1      -0.420   1.464  -1.593  0.00  0.00    -0.037 A 
ATOM      4  C   UNL     1      -0.747   0.557  -2.579  0.00  0.00    +0.004 A 
ATOM      5  C   UNL     1      -1.897   0.733  -3.328  0.00  0.00    +0.000 A 
ATOM      6  C   UNL     1      -2.727   1.815  -3.096  0.00  0.00    +0.001 A 
ATOM      7  C   UNL     1      -2.413   2.730  -2.111  0.00  0.00    +0.010 A 
ATOM      8  C   UNL     1      -1.256   2.558  -1.353  0.00  0.00    +0.002 A 
ATOM      9  C   UNL     1      -0.896   3.514  -0.289  0.00  0.00    +0.060 A 
ATOM     10  C   UNL     1      -0.005   3.137   0.674  0.00  0.00    +0.048 A 
ATOM     11  C   UNL     1       0.341   4.059   1.681  0.00  0.00    +0.265 A 
ATOM     12  O   UNL     1       1.139   3.751   2.549  0.00  0.00    -0.267 OA
ATOM     13  N   UNL     1      -0.218   5.287   1.676  0.00  0.00    -0.229 N 
ATOM     14  C   UNL     1      -1.099   5.636   0.721  0.00  0.00    +0.334 A 
ATOM     15  O   UNL     1      -1.591   6.748   0.739  0.00  0.00    -0.246 OA
ATOM     16  N   UNL     1      -1.444   4.775  -0.255  0.00  0.00    -0.306 N 
ATOM     17  H   UNL     1      -2.080   5.044  -0.935  0.00  0.00    +0.170 HD
ATOM     18  C   UNL     1       1.923   1.781   1.411  0.00  0.00    +0.016 C 
ENDROOT
BRANCH  13  19
ATOM     19  C   UNL     1       0.123   6.207   2.675  0.00  0.00    +0.055 A 
ATOM     20  C   UNL     1      -0.610   6.258   3.853  0.00  0.00    +0.026 A 
ATOM     21  C   UNL     1      -0.269   7.164   4.838  0.00  0.00    +0.002 A 
ATOM     22  C   UNL     1       0.795   8.027   4.648  0.00  0.00    +0.003 A 
ATOM     23  C   UNL     1       1.523   7.983   3.473  0.00  0.00    -0.048 A 
ATOM     24  C   UNL     1       1.190   7.075   2.486  0.00  0.00    +0.029 A 
ATOM     25  C   UNL     1       2.681   8.925   3.269  0.00  0.00    +0.044 C 
ENDBRANCH  13  19
BRANCH   1  27
ATOM     26  C   UNL     1       0.255  -0.613   1.372  0.00  0.00    +0.005 C 
ATOM     27  C   UNL     1      -0.364   0.786   1.356  0.00  0.00    +0.008 C 
ENDBRANCH   1  27
TORSDOF 2
