REMARK  Name = ZINC21829117
REMARK  10 active torsions:
REMARK  status: ('A' for Active; 'I' for Inactive)
REMARK    1  A    between atoms: C_1  and  C_2
REMARK    2  A    between atoms: C_2  and  C_4
REMARK    3  A    between atoms: C_2  and  O_16
REMARK    4  A    between atoms: N_12  and  C_13
REMARK    5  A    between atoms: O_16  and  C_17
REMARK    6  A    between atoms: C_17  and  C_19
REMARK    7  A    between atoms: C_19  and  S_20
REMARK    8  A    between atoms: S_20  and  C_21
REMARK    9  A    between atoms: C_24  and  C_30
REMARK   10  A    between atoms: C_26  and  N_27
REMARK                            x       y       z     vdW  Elec       q    Type
REMARK                         _______ _______ _______ _____ _____    ______ ____
ROOT
ATOM      1  C   UNL     1      -1.922  -0.703  -1.179  0.00  0.00    +0.318 C 
ATOM      2  O   UNL     1      -1.314  -0.470  -2.197  0.00  0.00    -0.250 OA
ENDROOT
BRANCH   1   3
ATOM      3  O   UNL     1      -1.339  -0.499   0.012  0.00  0.00    -0.453 OA
BRANCH   3   5
ATOM      4  C   UNL     1      -0.019   1.526   0.010  0.00  0.00    +0.060 C 
ATOM      5  C   UNL     1       0.002  -0.004   0.002  0.00  0.00    +0.239 C 
BRANCH   5   6
ATOM      6  C   UNL     1       0.731  -0.503   1.223  0.00  0.00    +0.156 A 
ATOM      7  N   UNL     1       0.245  -0.510   2.430  0.00  0.00    -0.228 NA
ATOM      8  C   UNL     1       1.163  -1.024   3.288  0.00  0.00    +0.090 A 
ATOM      9  C   UNL     1       1.170  -1.258   4.666  0.00  0.00    +0.030 A 
ATOM     10  C   UNL     1       2.273  -1.803   5.259  0.00  0.00    +0.002 A 
ATOM     11  C   UNL     1       3.393  -2.128   4.507  0.00  0.00    +0.002 A 
ATOM     12  C   UNL     1       3.409  -1.907   3.146  0.00  0.00    +0.028 A 
ATOM     13  C   UNL     1       2.297  -1.354   2.526  0.00  0.00    +0.074 A 
ATOM     14  N   UNL     1       1.990  -1.018   1.223  0.00  0.00    -0.268 N 
BRANCH  14  15
ATOM     15  C   UNL     1       2.861  -1.182   0.056  0.00  0.00    +0.450 C 
ATOM     16  F   UNL     1       3.704  -2.281   0.254  0.00  0.00    -0.185 F 
ATOM     17  F   UNL     1       2.078  -1.396  -1.084  0.00  0.00    -0.185 F 
ENDBRANCH  14  15
ENDBRANCH   5   6
ENDBRANCH   3   5
ENDBRANCH   1   3
BRANCH   1  18
ATOM     18  C   UNL     1      -3.334  -1.224  -1.248  0.00  0.00    +0.195 C 
BRANCH  18  19
ATOM     19  S   UNL     1      -3.833  -1.392  -2.983  0.00  0.00    -0.112 S 
BRANCH  19  20
ATOM     20  C   UNL     1      -5.484  -2.002  -2.895  0.00  0.00    +0.039 A 
ATOM     21  C   UNL     1      -6.077  -2.226  -1.654  0.00  0.00    +0.018 A 
ATOM     22  C   UNL     1      -7.356  -2.698  -1.580  0.00  0.00    +0.014 A 
ATOM     23  C   UNL     1      -8.076  -2.960  -2.750  0.00  0.00    +0.039 A 
ATOM     24  C   UNL     1      -7.483  -2.736  -3.997  0.00  0.00    +0.047 A 
ATOM     25  C   UNL     1      -6.196  -2.254  -4.066  0.00  0.00    +0.140 A 
BRANCH  23  26
ATOM     26  C   UNL     1      -9.457  -3.471  -2.669  0.00  0.00    +0.242 C 
ATOM     27  O   UNL     1     -10.081  -3.698  -3.688  0.00  0.00    -0.270 OA
ATOM     28  N   UNL     1     -10.027  -3.686  -1.467  0.00  0.00    -0.325 N 
ATOM     29  H   UNL     1      -9.528  -3.505  -0.655  0.00  0.00    +0.145 HD
ATOM     30  H   UNL     1     -10.935  -4.023  -1.414  0.00  0.00    +0.145 HD
ENDBRANCH  23  26
BRANCH  25  31
ATOM     31  N   UNL     1      -5.566  -2.010  -5.383  0.00  0.00    +0.058 N 
ATOM     32  O   UNL     1      -6.184  -2.229  -6.398  0.00  0.00    -0.126 OA
ATOM     33  O   UNL     1      -4.433  -1.592  -5.443  0.00  0.00    -0.126 OA
ENDBRANCH  25  31
ENDBRANCH  19  20
ENDBRANCH  18  19
ENDBRANCH   1  18
TORSDOF 9
