REMARK  Name = ZINC43639829
REMARK  5 active torsions:
REMARK  status: ('A' for Active; 'I' for Inactive)
REMARK    1  A    between atoms: C_1  and  C_2
REMARK    2  A    between atoms: C_2  and  C_3
REMARK    3  A    between atoms: C_6  and  C_8
REMARK    4  A    between atoms: C_8  and  C_10
REMARK    5  A    between atoms: C_8  and  N_22
REMARK                            x       y       z     vdW  Elec       q    Type
REMARK                         _______ _______ _______ _____ _____    ______ ____
ROOT
ATOM      1  C   UNL     1      -6.068  -0.760   1.439  0.00  0.00    -0.022 A 
ATOM      2  C   UNL     1      -6.069  -0.337   2.756  0.00  0.00    +0.010 A 
ATOM      3  C   UNL     1      -6.842   0.742   3.135  0.00  0.00    -0.025 A 
ATOM      4  C   UNL     1      -7.620   1.405   2.195  0.00  0.00    +0.039 A 
ATOM      5  C   UNL     1      -7.619   0.980   0.873  0.00  0.00    +0.062 A 
ATOM      6  C   UNL     1      -6.838  -0.099   0.497  0.00  0.00    +0.127 A 
ATOM      7  F   UNL     1      -6.831  -0.510  -0.790  0.00  0.00    -0.205 F 
ATOM      8  N   UNL     1      -8.402   2.498   2.581  0.00  0.00    -0.285 N 
ATOM      9  C   UNL     1      -8.145   3.147   3.731  0.00  0.00    +0.218 C 
ATOM     10  O   UNL     1      -8.842   4.084   4.059  0.00  0.00    -0.275 OA
ATOM     11  C   UNL     1      -7.004   2.724   4.617  0.00  0.00    +0.101 C 
ATOM     12  C   UNL     1      -6.844   1.204   4.569  0.00  0.00    +0.046 C 
ATOM     13  H   UNL     1      -9.134   2.790   2.016  0.00  0.00    +0.155 HD
ENDROOT
BRANCH   1  14
ATOM     14  C   UNL     1      -5.223  -1.938   1.027  0.00  0.00    -0.004 C 
BRANCH  14  18
ATOM     15  C   UNL     1      -1.412  -0.526   0.013  0.00  0.00    -0.010 A 
ATOM     16  C   UNL     1      -2.221  -0.821  -1.034  0.00  0.00    +0.011 A 
ATOM     17  C   UNL     1      -3.495  -1.293  -0.784  0.00  0.00    +0.010 A 
ATOM     18  C   UNL     1      -3.899  -1.446   0.501  0.00  0.00    -0.020 A 
ATOM     19  S   UNL     1      -2.453  -0.923   1.407  0.00  0.00    -0.100 S 
BRANCH  15  21
ATOM     20  C   UNL     1      -0.019   1.526   0.010  0.00  0.00    +0.009 C 
ATOM     21  C   UNL     1       0.002  -0.004   0.002  0.00  0.00    +0.039 C 
ENDBRANCH  15  21
ENDBRANCH  14  18
BRANCH  14  22
ATOM     22  N   UNL     1      -4.996  -2.807   2.189  0.00  0.00    +0.386 N 
ATOM     23  H   UNL     1      -5.882  -3.136   2.542  0.00  0.00    -0.089 HD
ATOM     24  H   UNL     1      -4.430  -3.596   1.914  0.00  0.00    -0.089 HD
ATOM     25  H   UNL     1      -4.519  -2.287   2.911  0.00  0.00    -0.089 HD
ENDBRANCH  14  22
ENDBRANCH   1  14
TORSDOF 4
