REMARK  Name = ZINC39364519
REMARK  4 active torsions:
REMARK  status: ('A' for Active; 'I' for Inactive)
REMARK    1  A    between atoms: C_1  and  N_2
REMARK    2  A    between atoms: C_5  and  N_8
REMARK    3  A    between atoms: C_13  and  C_16
REMARK    4  A    between atoms: C_19  and  C_22
REMARK                            x       y       z     vdW  Elec       q    Type
REMARK                         _______ _______ _______ _____ _____    ______ ____
ROOT
ATOM      1  N   UNL     1       1.228  -4.036  -0.035  0.00  0.00    -0.229 N 
ATOM      2  C   UNL     1       2.316  -5.015  -0.052  0.00  0.00    +0.212 C 
ATOM      3  C   UNL     1       1.674  -6.154  -0.841  0.00  0.00    +0.094 C 
ATOM      4  N   UNL     1       2.583  -6.700  -1.573  0.00  0.00    -0.260 NA
ATOM      5  C   UNL     1       3.853  -5.968  -1.440  0.00  0.00    +0.205 C 
ATOM      6  N   UNL     1       3.492  -4.636  -0.844  0.00  0.00    -0.267 NA
ATOM      7  C   UNL     1       0.258  -6.011  -0.503  0.00  0.00    +0.156 C 
ATOM      8  N   UNL     1       0.051  -4.815  -0.020  0.00  0.00    -0.189 NA
ATOM      9  H   UNL     1       3.245  -3.974  -1.564  0.00  0.00    +0.126 HD
ENDROOT
BRANCH   1  14
ATOM     10  C   UNL     1      -0.018   1.465   0.010  0.00  0.00    -0.096 C 
ATOM     11  N   UNL     1       0.002  -0.004   0.002  0.00  0.00    +0.378 N 
ATOM     12  C   UNL     1       0.681  -0.476  -1.210  0.00  0.00    -0.077 C 
ATOM     13  C   UNL     1       0.634  -2.005  -1.264  0.00  0.00    +0.005 C 
ATOM     14  C   UNL     1       1.336  -2.575  -0.029  0.00  0.00    +0.091 C 
ATOM     15  C   UNL     1       0.666  -2.018   1.230  0.00  0.00    +0.005 C 
ATOM     16  C   UNL     1       0.712  -0.489   1.192  0.00  0.00    -0.077 C 
ATOM     17  H   UNL     1      -0.945  -0.352   0.012  0.00  0.00    -0.082 HD
ENDBRANCH   1  14
BRANCH   5  18
ATOM     18  C   UNL     1       4.786  -6.705  -0.514  0.00  0.00    -0.009 A 
ATOM     19  C   UNL     1       5.683  -5.997   0.267  0.00  0.00    +0.008 A 
ATOM     20  C   UNL     1       6.540  -6.666   1.117  0.00  0.00    +0.010 A 
ATOM     21  C   UNL     1       6.501  -8.057   1.188  0.00  0.00    +0.003 A 
ATOM     22  C   UNL     1       5.595  -8.765   0.400  0.00  0.00    +0.010 A 
ATOM     23  C   UNL     1       4.739  -8.085  -0.443  0.00  0.00    +0.008 A 
BRANCH  21  24
ATOM     24  C   UNL     1       7.420  -8.782   2.100  0.00  0.00    +0.102 A 
ATOM     25  C   UNL     1       7.430 -10.147   2.208  0.00  0.00    +0.097 A 
ATOM     26  S   UNL     1       8.634 -10.398   3.351  0.00  0.00    +0.029 S 
ATOM     27  N   UNL     1       9.059  -8.863   3.636  0.00  0.00    -0.110 NA
ATOM     28  N   UNL     1       8.300  -8.162   2.870  0.00  0.00    -0.141 NA
ENDBRANCH  21  24
ENDBRANCH   5  18
TORSDOF 3
