REMARK  Name = ZINC11439687
REMARK  8 active torsions:
REMARK  status: ('A' for Active; 'I' for Inactive)
REMARK    1  A    between atoms: C_1  and  C_2
REMARK    2  A    between atoms: C_14  and  C_16
REMARK    3  A    between atoms: C_16  and  O_17
REMARK    4  A    between atoms: O_17  and  C_18
REMARK    5  A    between atoms: C_18  and  C_20
REMARK    6  A    between atoms: C_20  and  C_21
REMARK    7  A    between atoms: C_21  and  N_22
REMARK    8  A    between atoms: N_25  and  C_26
REMARK                            x       y       z     vdW  Elec       q    Type
REMARK                         _______ _______ _______ _____ _____    ______ ____
ROOT
ATOM      1  C   UNL     1      -1.110   5.069  -4.495  0.00  0.00    +0.309 C 
ATOM      2  O   UNL     1      -1.996   4.504  -5.091  0.00  0.00    -0.251 OA
ENDROOT
BRANCH   1   3
ATOM      3  O   UNL     1      -0.571   4.506  -3.402  0.00  0.00    -0.455 OA
BRANCH   3   4
ATOM      4  C   UNL     1      -1.101   3.217  -2.995  0.00  0.00    +0.328 C 
BRANCH   4  17
ATOM      5  C   UNL     1      -2.525   1.337   2.935  0.00  0.00    +0.019 C 
ATOM      6  C   UNL     1      -2.073   0.967   1.521  0.00  0.00    +0.050 C 
ATOM      7  C   UNL     1      -0.699   1.562   1.261  0.00  0.00    +0.033 C 
ATOM      8  C   UNL     1      -0.013   1.086   0.008  0.00  0.00    +0.115 C 
ATOM      9  N   UNL     1      -0.706   1.564  -1.198  0.00  0.00    -0.268 N 
ATOM     10  C   UNL     1      -1.715   0.762  -1.749  0.00  0.00    +0.050 A 
ATOM     11  C   UNL     1      -1.481   0.079  -2.937  0.00  0.00    +0.024 A 
ATOM     12  C   UNL     1      -2.459  -0.749  -3.455  0.00  0.00    +0.002 A 
ATOM     13  C   UNL     1      -3.668  -0.909  -2.803  0.00  0.00    +0.001 A 
ATOM     14  C   UNL     1      -3.917  -0.219  -1.628  0.00  0.00    +0.016 A 
ATOM     15  C   UNL     1      -2.947   0.626  -1.125  0.00  0.00    +0.030 A 
ATOM     16  S   UNL     1      -3.269   1.615   0.316  0.00  0.00    -0.120 S 
ATOM     17  C   UNL     1      -0.379   2.745  -1.759  0.00  0.00    +0.258 C 
ATOM     18  O   UNL     1       0.497   3.427  -1.270  0.00  0.00    -0.272 OA
ENDBRANCH   4  17
ENDBRANCH   3   4
ENDBRANCH   1   3
BRANCH   1  19
ATOM     19  C   UNL     1      -0.611   6.406  -4.978  0.00  0.00    +0.139 C 
BRANCH  19  20
ATOM     20  C   UNL     1      -1.387   6.819  -6.230  0.00  0.00    +0.117 C 
BRANCH  20  21
ATOM     21  N   UNL     1      -0.902   8.119  -6.700  0.00  0.00    -0.299 N 
ATOM     22  C   UNL     1      -1.444   8.684  -7.796  0.00  0.00    +0.300 C 
ATOM     23  O   UNL     1      -2.336   8.116  -8.396  0.00  0.00    -0.253 OA
ATOM     24  N   UNL     1      -0.997   9.880  -8.229  0.00  0.00    -0.294 N 
ATOM     25  H   UNL     1      -0.191   8.573  -6.221  0.00  0.00    +0.150 HD
ATOM     26  H   UNL     1      -0.286  10.334  -7.750  0.00  0.00    +0.151 HD
BRANCH  24  27
ATOM     27  C   UNL     1      -1.586  10.495  -9.421  0.00  0.00    +0.037 C 
ATOM     28  C   UNL     1      -1.387   9.570 -10.623  0.00  0.00    +0.029 C 
ATOM     29  C   UNL     1      -2.002  10.212 -11.868  0.00  0.00    -0.008 C 
ATOM     30  C   UNL     1      -1.320  11.555 -12.139  0.00  0.00    +0.007 C 
ATOM     31  C   UNL     1      -1.520  12.480 -10.937  0.00  0.00    -0.008 C 
ATOM     32  C   UNL     1      -0.905  11.838  -9.692  0.00  0.00    +0.029 C 
ATOM     33  C   UNL     1      -3.016  12.704 -10.709  0.00  0.00    +0.007 C 
ATOM     34  C   UNL     1      -3.697  11.362 -10.438  0.00  0.00    -0.008 C 
ATOM     35  C   UNL     1      -3.498  10.436 -11.640  0.00  0.00    +0.007 C 
ATOM     36  C   UNL     1      -3.082  10.720  -9.193  0.00  0.00    +0.029 C 
ENDBRANCH  24  27
ENDBRANCH  20  21
ENDBRANCH  19  20
ENDBRANCH   1  19
TORSDOF 7
