REMARK  Name = ZINC08014569
REMARK  5 active torsions:
REMARK  status: ('A' for Active; 'I' for Inactive)
REMARK    1  A    between atoms: C_1  and  C_2
REMARK    2  A    between atoms: C_9  and  N_14
REMARK    3  A    between atoms: C_15  and  C_17
REMARK    4  A    between atoms: C_17  and  S_18
REMARK    5  A    between atoms: S_18  and  C_19
REMARK                            x       y       z     vdW  Elec       q    Type
REMARK                         _______ _______ _______ _____ _____    ______ ____
ROOT
ATOM      1  N   UNL     1       4.577  -4.793  -0.082  0.00  0.00    -0.285 N 
ATOM      2  C   UNL     1       4.691  -3.450  -0.077  0.00  0.00    +0.227 C 
ATOM      3  O   UNL     1       5.789  -2.935  -0.096  0.00  0.00    -0.275 OA
ATOM      4  H   UNL     1       3.703  -5.206   0.001  0.00  0.00    +0.155 HD
ENDROOT
BRANCH   1  12
ATOM      5  C   UNL     1       8.509  -9.873   0.776  0.00  0.00    +0.062 C 
ATOM      6  C   UNL     1       8.877  -9.365  -0.619  0.00  0.00    +0.256 C 
ATOM      7  C   UNL     1       7.755  -9.672  -1.578  0.00  0.00    +0.258 C 
ATOM      8  O   UNL     1       7.755 -10.712  -2.202  0.00  0.00    -0.271 OA
ATOM      9  N   UNL     1       6.749  -8.785  -1.738  0.00  0.00    -0.279 N 
ATOM     10  C   UNL     1       6.790  -7.575  -1.030  0.00  0.00    +0.077 A 
ATOM     11  C   UNL     1       5.656  -6.791  -0.905  0.00  0.00    +0.050 A 
ATOM     12  C   UNL     1       5.721  -5.593  -0.206  0.00  0.00    +0.035 A 
ATOM     13  C   UNL     1       6.916  -5.189   0.374  0.00  0.00    +0.027 A 
ATOM     14  C   UNL     1       8.047  -5.976   0.254  0.00  0.00    +0.049 A 
ATOM     15  C   UNL     1       7.989  -7.168  -0.446  0.00  0.00    +0.143 A 
ATOM     16  O   UNL     1       9.094  -7.952  -0.570  0.00  0.00    -0.478 OA
ATOM     17  H   UNL     1       6.009  -8.982  -2.333  0.00  0.00    +0.155 HD
ENDBRANCH   1  12
BRANCH   2  18
ATOM     18  C   UNL     1       3.455  -2.589  -0.048  0.00  0.00    +0.170 C 
BRANCH  18  19
ATOM     19  S   UNL     1       3.936  -0.840  -0.049  0.00  0.00    -0.116 S 
BRANCH  19  20
ATOM     20  C   UNL     1       2.401   0.024  -0.014  0.00  0.00    +0.012 A 
ATOM     21  C   UNL     1       1.205  -0.683   0.006  0.00  0.00    +0.018 A 
ATOM     22  C   UNL     1       0.002  -0.005   0.033  0.00  0.00    +0.050 A 
ATOM     23  C   UNL     1      -0.017   1.382   0.040  0.00  0.00    +0.162 A 
ATOM     24  C   UNL     1       1.177   2.092   0.022  0.00  0.00    +0.163 A 
ATOM     25  C   UNL     1       2.385   1.413  -0.006  0.00  0.00    +0.064 A 
ATOM     26  O   UNL     1       1.179   3.454   0.037  0.00  0.00    -0.485 OA
ATOM     27  C   UNL     1      -0.049   4.103  -0.312  0.00  0.00    +0.270 C 
ATOM     28  C   UNL     1      -1.190   3.411   0.445  0.00  0.00    +0.270 C 
ATOM     29  O   UNL     1      -1.214   2.033   0.058  0.00  0.00    -0.485 OA
ENDBRANCH  19  20
ENDBRANCH  18  19
ENDBRANCH   2  18
TORSDOF 4
