REMARK  Name = ZINC20150762
REMARK  8 active torsions:
REMARK  status: ('A' for Active; 'I' for Inactive)
REMARK    1  A    between atoms: C_1  and  O_2
REMARK    2  A    between atoms: O_2  and  C_3
REMARK    3  A    between atoms: C_3  and  C_5
REMARK    4  A    between atoms: C_5  and  C_33
REMARK    5  A    between atoms: C_10  and  C_13
REMARK    6  A    between atoms: N_20  and  C_23
REMARK    7  A    between atoms: C_33  and  C_34
REMARK    8  A    between atoms: C_37  and  O_40
REMARK                            x       y       z     vdW  Elec       q    Type
REMARK                         _______ _______ _______ _____ _____    ______ ____
ROOT
ATOM      1  C   UNL     1       0.657  -2.104  -1.120  0.00  0.00    +0.133 C 
ATOM      2  C   UNL     1       0.697  -2.518  -2.587  0.00  0.00    +0.121 C 
ATOM      3  C   UNL     1       0.303  -4.029  -2.374  0.00  0.00    +0.112 C 
ATOM      4  C   UNL     1      -0.866  -3.956  -1.490  0.00  0.00    +0.104 C 
ATOM      5  N   UNL     1      -0.595  -2.756  -0.616  0.00  0.00    -0.293 NA
ATOM      6  C   UNL     1       0.709  -4.623  -3.625  0.00  0.00    +0.232 C 
ATOM      7  O   UNL     1       0.183  -5.546  -4.209  0.00  0.00    -0.274 OA
ATOM      8  N   UNL     1       1.821  -3.916  -4.009  0.00  0.00    -0.210 N 
ATOM      9  C   UNL     1       1.998  -2.753  -3.288  0.00  0.00    +0.232 C 
ATOM     10  O   UNL     1       2.994  -2.065  -3.226  0.00  0.00    -0.274 OA
ATOM     11  H   UNL     1      -0.501  -3.020   0.353  0.00  0.00    +0.124 HD
ENDROOT
BRANCH   8  12
ATOM     12  C   UNL     1       2.685  -4.324  -5.037  0.00  0.00    +0.048 A 
ATOM     13  C   UNL     1       3.793  -3.553  -5.361  0.00  0.00    +0.028 A 
ATOM     14  C   UNL     1       4.642  -3.953  -6.373  0.00  0.00    +0.051 A 
ATOM     15  C   UNL     1       4.392  -5.127  -7.070  0.00  0.00    +0.162 A 
ATOM     16  C   UNL     1       3.285  -5.902  -6.747  0.00  0.00    +0.164 A 
ATOM     17  C   UNL     1       2.435  -5.501  -5.727  0.00  0.00    +0.073 A 
ATOM     18  O   UNL     1       3.027  -7.061  -7.413  0.00  0.00    -0.485 OA
ATOM     19  C   UNL     1       3.691  -7.242  -8.669  0.00  0.00    +0.270 C 
ATOM     20  C   UNL     1       5.168  -6.870  -8.490  0.00  0.00    +0.270 C 
ATOM     21  O   UNL     1       5.239  -5.503  -8.068  0.00  0.00    -0.485 OA
ENDBRANCH   8  12
BRANCH   4  22
ATOM     22  C   UNL     1      -2.126  -3.775  -2.297  0.00  0.00    +0.007 A 
ATOM     23  C   UNL     1      -3.050  -4.700  -2.656  0.00  0.00    +0.013 A 
ATOM     24  C   UNL     1      -4.140  -4.302  -3.407  0.00  0.00    +0.008 A 
ATOM     25  C   UNL     1      -4.252  -2.999  -3.763  0.00  0.00    +0.045 A 
ATOM     26  S   UNL     1      -2.792  -2.287  -3.023  0.00  0.00    -0.100 S 
ENDBRANCH   4  22
BRANCH   1  27
ATOM     27  C   UNL     1       0.565  -0.605  -0.992  0.00  0.00    +0.328 C 
ATOM     28  O   UNL     1       1.053   0.105  -1.840  0.00  0.00    -0.249 OA
BRANCH  27  30
ATOM     29  C   UNL     1      -0.109   1.369   0.120  0.00  0.00    +0.280 C 
ATOM     30  O   UNL     1      -0.059  -0.058   0.063  0.00  0.00    -0.467 OA
ENDBRANCH  27  30
ENDBRANCH   1  27
BRANCH   1  31
ATOM     31  C   UNL     1       1.882  -2.634  -0.371  0.00  0.00    +0.069 C 
BRANCH  31  32
ATOM     32  C   UNL     1       1.803  -2.222   1.077  0.00  0.00    -0.045 A 
ATOM     33  C   UNL     1       2.354  -1.021   1.484  0.00  0.00    +0.007 A 
ATOM     34  C   UNL     1       2.283  -0.641   2.810  0.00  0.00    +0.045 A 
ATOM     35  C   UNL     1       1.658  -1.466   3.734  0.00  0.00    +0.117 A 
ATOM     36  C   UNL     1       1.105  -2.670   3.323  0.00  0.00    +0.045 A 
ATOM     37  C   UNL     1       1.174  -3.043   1.994  0.00  0.00    +0.007 A 
BRANCH  35  38
ATOM     38  O   UNL     1       1.587  -1.095   5.039  0.00  0.00    -0.507 OA
ATOM     39  H   UNL     1       0.798  -0.581   5.260  0.00  0.00    +0.292 HD
ENDBRANCH  35  38
ENDBRANCH  31  32
ENDBRANCH   1  31
TORSDOF 7
