REMARK  Name = ZINC39276682
REMARK  5 active torsions:
REMARK  status: ('A' for Active; 'I' for Inactive)
REMARK    1  A    between atoms: C_7  and  C_10
REMARK    2  A    between atoms: C_10  and  C_11
REMARK    3  A    between atoms: C_11  and  N_12
REMARK    4  A    between atoms: C_13  and  C_32
REMARK    5  A    between atoms: C_17  and  C_25
REMARK                            x       y       z     vdW  Elec       q    Type
REMARK                         _______ _______ _______ _____ _____    ______ ____
ROOT
ATOM      1  N   UNL     1      -4.842   5.067  -1.575  0.00  0.00    -0.290 N 
ATOM      2  C   UNL     1      -6.265   5.421  -1.572  0.00  0.00    +0.133 C 
ATOM      3  C   UNL     1      -6.336   6.863  -1.028  0.00  0.00    +0.079 C 
ATOM      4  C   UNL     1      -7.216   7.708  -1.979  0.00  0.00    +0.136 C 
ATOM      5  N   UNL     1      -6.297   8.141  -3.039  0.00  0.00    -0.305 N 
ATOM      6  N   UNL     1      -5.114   7.989  -2.740  0.00  0.00    -0.203 NA
ATOM      7  C   UNL     1      -4.918   7.404  -1.390  0.00  0.00    +0.218 C 
ATOM      8  C   UNL     1      -4.066   6.159  -1.476  0.00  0.00    +0.243 C 
ATOM      9  O   UNL     1      -2.853   6.147  -1.459  0.00  0.00    -0.273 OA
ATOM     10  H   UNL     1      -6.592   8.508  -3.886  0.00  0.00    +0.183 HD
ENDROOT
BRANCH   4  11
ATOM     11  C   UNL     1      -8.328   6.867  -2.554  0.00  0.00    -0.023 A 
ATOM     12  C   UNL     1      -8.895   5.860  -1.796  0.00  0.00    +0.007 A 
ATOM     13  C   UNL     1      -9.914   5.089  -2.322  0.00  0.00    +0.015 A 
ATOM     14  C   UNL     1     -10.367   5.326  -3.608  0.00  0.00    +0.018 A 
ATOM     15  C   UNL     1      -9.799   6.334  -4.366  0.00  0.00    +0.015 A 
ATOM     16  C   UNL     1      -8.783   7.108  -3.837  0.00  0.00    +0.007 A 
ATOM     17 BR   UNL     1     -11.761   4.272  -4.329  0.00  0.00    -0.050 Br
ENDBRANCH   4  11
BRANCH   2  18
ATOM     18  C   UNL     1      -6.819   5.363  -2.973  0.00  0.00    +0.062 A 
ATOM     19  C   UNL     1      -7.736   4.384  -3.305  0.00  0.00    +0.025 A 
ATOM     20  C   UNL     1      -8.238   4.340  -4.596  0.00  0.00    +0.003 A 
ATOM     21  C   UNL     1      -7.798   5.287  -5.509  0.00  0.00    +0.020 A 
ATOM     22  C   UNL     1      -6.880   6.236  -5.104  0.00  0.00    +0.111 A 
ATOM     23  N   UNL     1      -6.426   6.251  -3.865  0.00  0.00    -0.258 NA
ENDBRANCH   2  18
BRANCH   1  24
ATOM     24  C   UNL     1      -4.331   3.697  -1.669  0.00  0.00    +0.113 C 
BRANCH  24  25
ATOM     25  C   UNL     1      -4.184   3.111  -0.263  0.00  0.00    +0.056 C 
BRANCH  25  32
ATOM     26  C   UNL     1       0.131   1.312  -0.610  0.00  0.00    +0.001 A 
ATOM     27  C   UNL     1       0.135  -0.075  -0.673  0.00  0.00    +0.002 A 
ATOM     28  C   UNL     1      -1.045  -0.784  -0.633  0.00  0.00    +0.026 A 
ATOM     29  C   UNL     1      -2.255  -0.106  -0.528  0.00  0.00    +0.047 A 
ATOM     30  N   UNL     1      -3.569  -0.514  -0.466  0.00  0.00    -0.360 N 
ATOM     31  C   UNL     1      -4.390   0.576  -0.366  0.00  0.00    +0.087 A 
ATOM     32  C   UNL     1      -3.659   1.701  -0.359  0.00  0.00    -0.021 A 
ATOM     33  C   UNL     1      -2.254   1.300  -0.463  0.00  0.00    +0.003 A 
ATOM     34  C   UNL     1      -1.046   1.998  -0.500  0.00  0.00    +0.010 A 
ATOM     35  H   UNL     1      -3.867  -1.437  -0.491  0.00  0.00    +0.165 HD
ENDBRANCH  25  32
ENDBRANCH  24  25
ENDBRANCH   1  24
TORSDOF 5
