REMARK  Name = ZINC23361451
REMARK  11 active torsions:
REMARK  status: ('A' for Active; 'I' for Inactive)
REMARK    1  A    between atoms: C_1  and  O_2
REMARK    2  A    between atoms: O_2  and  C_3
REMARK    3  A    between atoms: C_3  and  C_4
REMARK    4  A    between atoms: C_4  and  N_5
REMARK    5  A    between atoms: C_6  and  C_8
REMARK    6  A    between atoms: C_11  and  N_24
REMARK    7  A    between atoms: N_14  and  C_15
REMARK    8  A    between atoms: N_24  and  C_25
REMARK    9  A    between atoms: C_25  and  C_26
REMARK   10  A    between atoms: C_35  and  O_36
REMARK   11  A    between atoms: O_36  and  C_37
REMARK                            x       y       z     vdW  Elec       q    Type
REMARK                         _______ _______ _______ _____ _____    ______ ____
ROOT
ATOM      1  C   UNL     1       2.175  -4.287  -1.740  0.00  0.00    +0.142 C 
ATOM      2  C   UNL     1       1.494  -3.922  -3.076  0.00  0.00    +0.014 C 
ATOM      3  C   UNL     1       1.841  -5.130  -3.986  0.00  0.00    -0.055 C 
ATOM      4  C   UNL     1       1.794  -6.304  -2.977  0.00  0.00    +0.070 C 
ATOM      5  N   UNL     1       2.357  -5.750  -1.724  0.00  0.00    -0.289 NA
ENDROOT
BRANCH   5   6
ATOM      6  C   UNL     1       1.713  -6.347  -0.546  0.00  0.00    +0.066 C 
ATOM      7  C   UNL     1       2.441  -5.929   0.749  0.00  0.00    +0.054 C 
ATOM      8  C   UNL     1       2.362  -7.139   1.656  0.00  0.00    -0.043 A 
ATOM      9  C   UNL     1       2.553  -7.249   3.023  0.00  0.00    +0.004 A 
ATOM     10  C   UNL     1       2.427  -8.476   3.646  0.00  0.00    +0.000 A 
ATOM     11  C   UNL     1       2.109  -9.597   2.902  0.00  0.00    +0.000 A 
ATOM     12  C   UNL     1       1.918  -9.489   1.539  0.00  0.00    +0.004 A 
ATOM     13  C   UNL     1       2.044  -8.260   0.913  0.00  0.00    -0.043 A 
ATOM     14  C   UNL     1       1.887  -7.881  -0.544  0.00  0.00    +0.054 C 
ENDBRANCH   5   6
BRANCH   1  16
ATOM     15  N   UNL     1       1.769  -3.000   0.333  0.00  0.00    -0.312 N 
ATOM     16  C   UNL     1       1.300  -3.866  -0.587  0.00  0.00    +0.230 C 
ATOM     17  O   UNL     1       0.175  -4.307  -0.487  0.00  0.00    -0.274 OA
ATOM     18  H   UNL     1       2.669  -2.647   0.254  0.00  0.00    +0.149 HD
BRANCH  15  19
ATOM     19  C   UNL     1       0.918  -2.591   1.454  0.00  0.00    +0.132 C 
BRANCH  19  20
ATOM     20  C   UNL     1       1.685  -1.610   2.344  0.00  0.00    +0.178 C 
BRANCH  20  22
ATOM     21  C   UNL     1       2.666   0.577   2.358  0.00  0.00    +0.194 C 
ATOM     22  O   UNL     1       1.950  -0.411   1.614  0.00  0.00    -0.381 OA
ENDBRANCH  20  22
ENDBRANCH  19  20
ENDBRANCH  15  19
ENDBRANCH   1  16
BRANCH   3  23
ATOM     23  N   UNL     1       0.832  -5.300  -5.040  0.00  0.00    +0.385 N 
ATOM     24  H   UNL     1      -0.054  -5.542  -4.622  0.00  0.00    -0.085 HD
ATOM     25  H   UNL     1       0.737  -4.439  -5.557  0.00  0.00    -0.085 HD
BRANCH  23  26
ATOM     26  C   UNL     1       1.252  -6.373  -5.951  0.00  0.00    -0.042 C 
BRANCH  26  27
ATOM     27  C   UNL     1       0.218  -6.548  -7.032  0.00  0.00    -0.015 A 
ATOM     28  C   UNL     1      -0.853  -7.439  -6.848  0.00  0.00    -0.013 A 
ATOM     29  C   UNL     1      -0.987  -8.182  -5.663  0.00  0.00    +0.009 A 
ATOM     30  C   UNL     1      -2.037  -9.036  -5.518  0.00  0.00    +0.001 A 
ATOM     31  C   UNL     1      -2.985  -9.185  -6.530  0.00  0.00    +0.001 A 
ATOM     32  C   UNL     1      -2.887  -8.481  -7.691  0.00  0.00    +0.008 A 
ATOM     33  C   UNL     1      -1.817  -7.590  -7.876  0.00  0.00    -0.017 A 
ATOM     34  C   UNL     1      -1.685  -6.846  -9.062  0.00  0.00    +0.012 A 
ATOM     35  C   UNL     1      -0.637  -5.993  -9.210  0.00  0.00    +0.046 A 
ATOM     36  C   UNL     1       0.313  -5.838  -8.195  0.00  0.00    +0.122 A 
BRANCH  36  37
ATOM     37  O   UNL     1       1.346  -4.973  -8.370  0.00  0.00    -0.495 OA
ATOM     38  C   UNL     1       1.392  -4.258  -9.606  0.00  0.00    +0.277 C 
ENDBRANCH  36  37
ENDBRANCH  26  27
ENDBRANCH  23  26
ENDBRANCH   3  23
TORSDOF 9
