REMARK  Name = ZINC67539520
REMARK  5 active torsions:
REMARK  status: ('A' for Active; 'I' for Inactive)
REMARK    1  A    between atoms: C_6  and  C_11
REMARK    2  A    between atoms: C_11  and  C_13
REMARK    3  A    between atoms: C_11  and  O_29
REMARK    4  A    between atoms: C_13  and  N_14
REMARK    5  A    between atoms: N_17  and  C_18
REMARK                            x       y       z     vdW  Elec       q    Type
REMARK                         _______ _______ _______ _____ _____    ______ ____
ROOT
ATOM      1  N   UNL     1       6.684  -3.776   1.360  0.00  0.00    -0.296 N 
ATOM      2  C   UNL     1       7.201  -4.257   2.507  0.00  0.00    +0.304 C 
ATOM      3  O   UNL     1       6.559  -4.194   3.538  0.00  0.00    -0.253 OA
ATOM      4  N   UNL     1       8.431  -4.809   2.513  0.00  0.00    -0.269 N 
ATOM      5  H   UNL     1       7.197  -3.827   0.538  0.00  0.00    +0.150 HD
ATOM      6  H   UNL     1       8.916  -4.921   1.680  0.00  0.00    +0.156 HD
ENDROOT
BRANCH   4   7
ATOM      7  C   UNL     1       9.008  -5.222   3.721  0.00  0.00    +0.035 A 
ATOM      8  C   UNL     1      10.377  -5.092   3.916  0.00  0.00    +0.025 A 
ATOM      9  C   UNL     1      10.946  -5.498   5.107  0.00  0.00    +0.025 A 
ATOM     10  C   UNL     1      10.149  -6.036   6.109  0.00  0.00    +0.037 A 
ATOM     11  C   UNL     1       8.781  -6.165   5.913  0.00  0.00    -0.024 A 
ATOM     12  C   UNL     1       8.211  -5.755   4.725  0.00  0.00    +0.028 A 
ATOM     13  C   UNL     1       7.919  -6.748   7.004  0.00  0.00    +0.046 C 
ATOM     14  C   UNL     1       8.706  -7.819   7.759  0.00  0.00    +0.101 C 
ATOM     15  C   UNL     1      10.064  -7.289   8.134  0.00  0.00    +0.218 C 
ATOM     16  O   UNL     1      10.569  -7.625   9.185  0.00  0.00    -0.275 OA
ATOM     17  N   UNL     1      10.724  -6.448   7.318  0.00  0.00    -0.285 N 
ATOM     18  H   UNL     1      11.603  -6.124   7.568  0.00  0.00    +0.155 HD
ENDBRANCH   4   7
BRANCH   1  19
ATOM     19  C   UNL     1       5.348  -3.176   1.353  0.00  0.00    +0.141 C 
BRANCH  19  20
ATOM     20  C   UNL     1       5.003  -2.713  -0.063  0.00  0.00    +0.162 C 
BRANCH  20  26
ATOM     21  C   UNL     1      -0.015   1.352  -0.005  0.00  0.00    +0.001 A 
ATOM     22  C   UNL     1       1.170   2.084  -0.021  0.00  0.00    +0.001 A 
ATOM     23  C   UNL     1       2.379   1.459  -0.036  0.00  0.00    +0.008 A 
ATOM     24  C   UNL     1       2.436   0.055  -0.035  0.00  0.00    -0.018 A 
ATOM     25  C   UNL     1       3.666  -0.626  -0.049  0.00  0.00    +0.014 A 
ATOM     26  C   UNL     1       3.682  -1.986  -0.047  0.00  0.00    -0.017 A 
ATOM     27  C   UNL     1       2.496  -2.719  -0.031  0.00  0.00    +0.007 A 
ATOM     28  C   UNL     1       1.288  -2.094  -0.016  0.00  0.00    +0.009 A 
ATOM     29  C   UNL     1       1.230  -0.689  -0.018  0.00  0.00    -0.018 A 
ATOM     30  C   UNL     1       0.001  -0.009  -0.003  0.00  0.00    +0.008 A 
ENDBRANCH  20  26
BRANCH  20  31
ATOM     31  O   UNL     1       4.911  -3.848  -0.926  0.00  0.00    -0.386 OA
ATOM     32  H   UNL     1       4.236  -4.489  -0.663  0.00  0.00    +0.210 HD
ENDBRANCH  20  31
ENDBRANCH  19  20
ENDBRANCH   1  19
TORSDOF 5
