REMARK  Name = ZINC01235471
REMARK  15 active torsions:
REMARK  status: ('A' for Active; 'I' for Inactive)
REMARK    1  A    between atoms: C_1  and  C_2
REMARK    2  A    between atoms: C_2  and  N_61
REMARK    3  A    between atoms: C_3  and  C_4
REMARK    4  A    between atoms: C_3  and  N_61
REMARK    5  A    between atoms: C_5  and  C_6
REMARK    6  A    between atoms: C_5  and  N_61
REMARK    7  A    between atoms: C_6  and  N_7
REMARK    8  A    between atoms: N_14  and  C_16
REMARK    9  A    between atoms: C_16  and  C_17
REMARK   10  A    between atoms: C_17  and  C_19
REMARK   11  A    between atoms: C_17  and  O_29
REMARK   12  A    between atoms: C_19  and  O_20
REMARK   13  A    between atoms: O_20  and  C_21
REMARK   14  A    between atoms: C_26  and  O_27
REMARK   15  A    between atoms: O_27  and  C_28
REMARK                            x       y       z     vdW  Elec       q    Type
REMARK                         _______ _______ _______ _____ _____    ______ ____
ROOT
ATOM      1  N   UNL     1      -0.652  -0.057   2.960  0.00  0.00    -0.313 N 
ATOM      2  C   UNL     1      -0.848  -1.242   3.669  0.00  0.00    +0.068 A 
ATOM      3  C   UNL     1      -1.654  -2.349   3.449  0.00  0.00    +0.028 A 
ATOM      4  C   UNL     1      -1.634  -3.404   4.340  0.00  0.00    +0.002 A 
ATOM      5  C   UNL     1      -0.807  -3.364   5.449  0.00  0.00    +0.002 A 
ATOM      6  C   UNL     1       0.004  -2.269   5.674  0.00  0.00    +0.028 A 
ATOM      7  C   UNL     1      -0.010  -1.204   4.784  0.00  0.00    +0.068 A 
ATOM      8  N   UNL     1       0.680   0.007   4.748  0.00  0.00    -0.309 N 
ATOM      9  C   UNL     1       0.278   0.695   3.631  0.00  0.00    +0.183 A 
ATOM     10  H   UNL     1       0.431   2.367   2.473  0.00  0.00    +0.159 HD
ATOM     11  N   UNL     1       0.759   1.892   3.315  0.00  0.00    -0.371 N 
ATOM     12  H   UNL     1       1.460   2.340   3.917  0.00  0.00    +0.159 HD
ENDROOT
BRANCH   1  13
ATOM     13  C   UNL     1      -1.329   0.322   1.717  0.00  0.00    +0.107 C 
BRANCH  13  14
ATOM     14  C   UNL     1      -0.511  -0.170   0.521  0.00  0.00    -0.057 C 
BRANCH  14  15
ATOM     15  N   UNL     1      -1.217   0.201  -0.724  0.00  0.00    +0.380 N 
ATOM     16  H   UNL     1      -2.189  -0.123  -0.665  0.00  0.00    -0.082 HD
BRANCH  15  18
ATOM     17  C   UNL     1       0.228   2.192  -0.963  0.00  0.00    -0.017 C 
ATOM     18  C   UNL     1      -1.208   1.669  -0.891  0.00  0.00    -0.082 C 
ENDBRANCH  15  18
BRANCH  15  19
ATOM     19  C   UNL     1      -0.566  -0.444  -1.884  0.00  0.00    -0.082 C 
ATOM     20  C   UNL     1      -1.506  -0.351  -3.088  0.00  0.00    -0.017 C 
ENDBRANCH  15  19
ENDBRANCH  14  15
ENDBRANCH  13  14
ENDBRANCH   1  13
BRANCH   8  21
ATOM     21  C   UNL     1       1.663   0.466   5.732  0.00  0.00    +0.160 C 
BRANCH  21  22
ATOM     22  C   UNL     1       0.951   1.249   6.837  0.00  0.00    +0.172 C 
BRANCH  22  23
ATOM     23  O   UNL     1       0.383   2.439   6.287  0.00  0.00    -0.387 OA
ATOM     24  H   UNL     1       1.031   3.036   5.887  0.00  0.00    +0.210 HD
ENDBRANCH  22  23
BRANCH  22  25
ATOM     25  C   UNL     1       1.958   1.621   7.928  0.00  0.00    +0.262 C 
BRANCH  25  26
ATOM     26  O   UNL     1       1.273   2.250   9.013  0.00  0.00    -0.486 OA
BRANCH  26  27
ATOM     27  C   UNL     1       2.028   2.645  10.073  0.00  0.00    +0.162 A 
ATOM     28  C   UNL     1       3.396   2.428  10.071  0.00  0.00    +0.049 A 
ATOM     29  C   UNL     1       4.163   2.836  11.146  0.00  0.00    +0.004 A 
ATOM     30  C   UNL     1       3.565   3.451  12.231  0.00  0.00    +0.004 A 
ATOM     31  C   UNL     1       2.200   3.666  12.242  0.00  0.00    +0.049 A 
ATOM     32  C   UNL     1       1.427   3.264  11.165  0.00  0.00    +0.161 A 
BRANCH  32  33
ATOM     33  O   UNL     1       0.083   3.474  11.175  0.00  0.00    -0.491 OA
ATOM     34  C   UNL     1      -0.465   4.115  12.329  0.00  0.00    +0.277 C 
ENDBRANCH  32  33
ENDBRANCH  26  27
ENDBRANCH  25  26
ENDBRANCH  22  25
ENDBRANCH  21  22
ENDBRANCH   8  21
TORSDOF 12
