REMARK  Name = ZINC39637405
REMARK  7 active torsions:
REMARK  status: ('A' for Active; 'I' for Inactive)
REMARK    1  A    between atoms: C_1  and  C_2
REMARK    2  A    between atoms: C_7  and  N_12
REMARK    3  A    between atoms: C_9  and  C_11
REMARK    4  A    between atoms: C_13  and  C_15
REMARK    5  A    between atoms: C_26  and  C_28
REMARK    6  A    between atoms: C_33  and  S_34
REMARK    7  A    between atoms: S_34  and  C_35
REMARK                            x       y       z     vdW  Elec       q    Type
REMARK                         _______ _______ _______ _____ _____    ______ ____
ROOT
ATOM      1  C   UNL     1       2.601  -4.576   4.112  0.00  0.00    +0.100 C 
ATOM      2  C   UNL     1       3.805  -3.610   4.175  0.00  0.00    +0.121 C 
ATOM      3  N   UNL     1       4.964  -4.478   4.491  0.00  0.00    -0.296 N 
ATOM      4  C   UNL     1       4.732  -5.707   3.697  0.00  0.00    +0.115 C 
ATOM      5  C   UNL     1       3.213  -5.951   3.797  0.00  0.00    -0.004 C 
ATOM      6  C   UNL     1       2.675  -6.478   2.470  0.00  0.00    -0.010 C 
ATOM      7  C   UNL     1       3.253  -7.871   2.207  0.00  0.00    -0.082 C 
ATOM      8  N   UNL     1       2.879  -8.774   3.303  0.00  0.00    +0.379 N 
ATOM      9  C   UNL     1       3.478  -8.310   4.560  0.00  0.00    -0.082 C 
ATOM     10  C   UNL     1       2.909  -6.935   4.922  0.00  0.00    -0.010 C 
ATOM     11  C   UNL     1       5.997  -4.209   5.315  0.00  0.00    +0.249 C 
ATOM     12  O   UNL     1       6.927  -4.988   5.399  0.00  0.00    -0.270 OA
ATOM     13  H   UNL     1       1.874  -8.788   3.396  0.00  0.00    -0.086 HD
ATOM     14  H   UNL     1       3.208  -9.705   3.097  0.00  0.00    -0.086 HD
ENDROOT
BRANCH  11  15
ATOM     15  C   UNL     1       5.998  -2.971   6.116  0.00  0.00    +0.069 A 
ATOM     16  C   UNL     1       5.458  -1.788   5.599  0.00  0.00    +0.017 A 
ATOM     17  C   UNL     1       5.483  -0.653   6.390  0.00  0.00    +0.020 A 
ATOM     18  C   UNL     1       6.035  -0.718   7.658  0.00  0.00    +0.112 A 
ATOM     19  N   UNL     1       6.539  -1.842   8.127  0.00  0.00    -0.248 NA
ATOM     20  C   UNL     1       6.536  -2.959   7.414  0.00  0.00    +0.114 A 
BRANCH  20  21
ATOM     21  S   UNL     1       7.217  -4.435   8.095  0.00  0.00    -0.069 S 
BRANCH  21  22
ATOM     22  C   UNL     1       7.902  -3.918   9.634  0.00  0.00    +0.014 A 
ATOM     23  C   UNL     1       7.159  -4.040  10.802  0.00  0.00    +0.015 A 
ATOM     24  C   UNL     1       7.699  -3.635  12.007  0.00  0.00    +0.001 A 
ATOM     25  C   UNL     1       8.977  -3.107  12.051  0.00  0.00    +0.000 A 
ATOM     26  C   UNL     1       9.718  -2.984  10.890  0.00  0.00    +0.001 A 
ATOM     27  C   UNL     1       9.187  -3.393   9.683  0.00  0.00    +0.015 A 
ENDBRANCH  21  22
ENDBRANCH  20  21
ENDBRANCH  11  15
BRANCH   1  29
ATOM     28  N   UNL     1       0.337  -4.436   3.125  0.00  0.00    -0.312 N 
ATOM     29  C   UNL     1       1.652  -4.161   3.017  0.00  0.00    +0.218 C 
ATOM     30  O   UNL     1       2.072  -3.579   2.039  0.00  0.00    -0.275 OA
ATOM     31  H   UNL     1       0.001  -4.902   3.907  0.00  0.00    +0.149 HD
BRANCH  28  37
ATOM     32  C   UNL     1      -4.364  -3.295   2.105  0.00  0.00    +0.008 C 
ATOM     33  C   UNL     1      -2.956  -3.453   1.527  0.00  0.00    -0.009 C 
ATOM     34  C   UNL     1      -2.971  -4.522   0.433  0.00  0.00    +0.003 C 
ATOM     35  C   UNL     1      -1.564  -4.681  -0.145  0.00  0.00    +0.002 C 
ATOM     36  C   UNL     1      -0.601  -5.102   0.966  0.00  0.00    +0.022 C 
ATOM     37  C   UNL     1      -0.585  -4.033   2.060  0.00  0.00    +0.076 C 
ATOM     38  C   UNL     1      -1.993  -3.875   2.638  0.00  0.00    +0.009 C 
ATOM     39  C   UNL     1      -2.453  -5.207   3.234  0.00  0.00    +0.009 C 
ENDBRANCH  28  37
ENDBRANCH   1  29
TORSDOF 5
