REMARK  Name = ZINC02963607
REMARK  5 active torsions:
REMARK  status: ('A' for Active; 'I' for Inactive)
REMARK    1  A    between atoms: C_1  and  C_2
REMARK    2  A    between atoms: C_2  and  C_3
REMARK    3  A    between atoms: C_6  and  N_9
REMARK    4  A    between atoms: C_16  and  C_27
REMARK    5  A    between atoms: C_21  and  N_24
REMARK                            x       y       z     vdW  Elec       q    Type
REMARK                         _______ _______ _______ _____ _____    ______ ____
ROOT
ATOM      1  N   UNL     1       2.116   5.514  -1.675  0.00  0.00    -0.244 N 
ATOM      2  C   UNL     1       0.869   5.417  -2.162  0.00  0.00    +0.141 C 
ATOM      3  S   UNL     1       0.649   5.343  -3.858  0.00  0.00    -0.018 S 
ATOM      4  N   UNL     1      -0.213   5.375  -1.366  0.00  0.00    -0.319 N 
ATOM      5  C   UNL     1      -0.044   5.360   0.096  0.00  0.00    +0.111 C 
ATOM      6  C   UNL     1       1.145   6.273   0.435  0.00  0.00    +0.096 C 
ATOM      7  C   UNL     1       2.380   5.668  -0.247  0.00  0.00    +0.183 C 
ATOM      8  O   UNL     1       2.664   4.409   0.355  0.00  0.00    -0.468 OA
ATOM      9  C   UNL     1       1.639   3.551   0.592  0.00  0.00    +0.128 A 
ATOM     10  C   UNL     1       0.316   3.946   0.494  0.00  0.00    +0.017 A 
ATOM     11  C   UNL     1      -0.699   3.044   0.755  0.00  0.00    +0.041 A 
ATOM     12  C   UNL     1      -0.397   1.741   1.105  0.00  0.00    +0.127 A 
ATOM     13  C   UNL     1       0.922   1.342   1.206  0.00  0.00    +0.036 A 
ATOM     14  C   UNL     1       1.938   2.240   0.950  0.00  0.00    +0.048 A 
ATOM     15  C   UNL     1       3.575   6.604  -0.057  0.00  0.00    +0.079 C 
ATOM     16  H   UNL     1      -1.102   5.355  -1.754  0.00  0.00    +0.148 HD
ENDROOT
BRANCH   1  20
ATOM     17  C   UNL     1       5.332   5.370  -4.319  0.00  0.00    -0.048 A 
ATOM     18  C   UNL     1       4.681   6.568  -4.089  0.00  0.00    +0.005 A 
ATOM     19  C   UNL     1       3.614   6.619  -3.213  0.00  0.00    +0.024 A 
ATOM     20  C   UNL     1       3.196   5.465  -2.563  0.00  0.00    +0.039 A 
ATOM     21  C   UNL     1       3.855   4.265  -2.792  0.00  0.00    +0.024 A 
ATOM     22  C   UNL     1       4.918   4.220  -3.673  0.00  0.00    +0.005 A 
BRANCH  17  24
ATOM     23  C   UNL     1       7.795   5.584  -4.513  0.00  0.00    +0.009 C 
ATOM     24  C   UNL     1       6.495   5.318  -5.276  0.00  0.00    +0.032 C 
ENDBRANCH  17  24
ENDBRANCH   1  20
BRANCH  12  25
ATOM     25  N   UNL     1      -1.486   0.776   1.376  0.00  0.00    +0.056 N 
ATOM     26  O   UNL     1      -1.220  -0.371   1.689  0.00  0.00    -0.126 OA
ATOM     27  O   UNL     1      -2.649   1.129   1.287  0.00  0.00    -0.126 OA
ENDBRANCH  12  25
TORSDOF 3
