REMARK  Name = ZINC14533295
REMARK  8 active torsions:
REMARK  status: ('A' for Active; 'I' for Inactive)
REMARK    1  A    between atoms: C_1  and  N_2
REMARK    2  A    between atoms: C_8  and  C_10
REMARK    3  A    between atoms: N_13  and  C_15
REMARK    4  A    between atoms: C_15  and  C_16
REMARK    5  A    between atoms: C_20  and  N_23
REMARK    6  A    between atoms: N_23  and  C_24
REMARK    7  A    between atoms: C_24  and  C_25
REMARK    8  A    between atoms: C_25  and  O_31
REMARK                            x       y       z     vdW  Elec       q    Type
REMARK                         _______ _______ _______ _____ _____    ______ ____
ROOT
ATOM      1  C   UNL     1       2.520  -4.099   1.139  0.00  0.00    +0.151 A 
ATOM      2  C   UNL     1       3.539  -5.060   1.243  0.00  0.00    +0.004 A 
ATOM      3  C   UNL     1       3.801  -5.184   2.567  0.00  0.00    +0.043 A 
ATOM      4  N   UNL     1       2.983  -4.339   3.215  0.00  0.00    -0.264 N 
ATOM      5  N   UNL     1       2.243  -3.707   2.371  0.00  0.00    -0.166 NA
ATOM      6  C   UNL     1       4.835  -6.122   3.135  0.00  0.00    +0.054 C 
ATOM      7  C   UNL     1       5.197  -7.151   2.056  0.00  0.00    -0.009 C 
ATOM      8  C   UNL     1       5.524  -6.430   0.746  0.00  0.00    -0.067 C 
ATOM      9  C   UNL     1       4.241  -5.829   0.158  0.00  0.00    +0.023 C 
ENDROOT
BRANCH   1  17
ATOM     10  C   UNL     1       0.030   1.483  -0.023  0.00  0.00    +0.105 C 
ATOM     11  N   UNL     1       0.036   0.014  -0.016  0.00  0.00    -0.302 NA
ATOM     12  C   UNL     1       0.610  -0.515  -1.261  0.00  0.00    +0.103 C 
ATOM     13  C   UNL     1       0.433  -2.037  -1.294  0.00  0.00    +0.123 C 
ATOM     14  N   UNL     1       1.001  -2.600  -0.059  0.00  0.00    -0.294 N 
ATOM     15  C   UNL     1       0.576  -2.026   1.227  0.00  0.00    +0.123 C 
ATOM     16  C   UNL     1       0.747  -0.504   1.160  0.00  0.00    +0.103 C 
ATOM     17  C   UNL     1       1.886  -3.615  -0.104  0.00  0.00    +0.267 C 
ATOM     18  O   UNL     1       2.163  -4.133  -1.169  0.00  0.00    -0.268 OA
ENDBRANCH   1  17
BRANCH   8  19
ATOM     19  N   UNL     1       6.099  -7.387  -0.209  0.00  0.00    +0.383 N 
ATOM     20  H   UNL     1       5.469  -8.166  -0.325  0.00  0.00    -0.085 HD
ATOM     21  H   UNL     1       6.239  -6.932  -1.099  0.00  0.00    -0.085 HD
BRANCH  19  22
ATOM     22  C   UNL     1       7.389  -7.872   0.300  0.00  0.00    -0.047 C 
BRANCH  22  23
ATOM     23  C   UNL     1       7.988  -8.868  -0.694  0.00  0.00    +0.051 C 
ATOM     24  C   UNL     1       6.979  -9.987  -0.965  0.00  0.00    +0.033 C 
ATOM     25  C   UNL     1       7.578 -10.983  -1.960  0.00  0.00    +0.003 C 
ATOM     26  C   UNL     1       8.858 -11.582  -1.374  0.00  0.00    +0.000 C 
ATOM     27  C   UNL     1       9.867 -10.464  -1.103  0.00  0.00    +0.003 C 
ATOM     28  C   UNL     1       9.268  -9.467  -0.108  0.00  0.00    +0.033 C 
BRANCH  23  29
ATOM     29  O   UNL     1       8.293  -8.196  -1.918  0.00  0.00    -0.390 OA
ATOM     30  H   UNL     1       8.677  -8.768  -2.596  0.00  0.00    +0.210 HD
ENDBRANCH  23  29
ENDBRANCH  22  23
ENDBRANCH  19  22
ENDBRANCH   8  19
BRANCH   4  31
ATOM     31  C   UNL     1       2.942  -4.158   4.668  0.00  0.00    +0.170 C 
BRANCH  31  32
ATOM     32  C   UNL     1       3.907  -3.071   5.067  0.00  0.00    -0.012 C 
ATOM     33  C   UNL     1       3.487  -2.046   5.766  0.00  0.00    +0.006 C 
ENDBRANCH  31  32
ENDBRANCH   4  31
TORSDOF 7
