REMARK  Name = ZINC28118358
REMARK  8 active torsions:
REMARK  status: ('A' for Active; 'I' for Inactive)
REMARK    1  A    between atoms: C_1  and  C_2
REMARK    2  A    between atoms: C_5  and  S_9
REMARK    3  A    between atoms: C_6  and  C_8
REMARK    4  A    between atoms: S_9  and  N_12
REMARK    5  A    between atoms: N_12  and  C_13
REMARK    6  A    between atoms: C_16  and  O_30
REMARK    7  A    between atoms: C_17  and  C_19
REMARK    8  A    between atoms: C_28  and  O_29
REMARK                            x       y       z     vdW  Elec       q    Type
REMARK                         _______ _______ _______ _____ _____    ______ ____
ROOT
ATOM      1  C   UNL     1      -3.275   7.042  -0.980  0.00  0.00    +0.049 A 
ATOM      2  C   UNL     1      -3.964   7.340   0.189  0.00  0.00    +0.028 A 
ATOM      3  C   UNL     1      -3.425   7.012   1.418  0.00  0.00    +0.048 A 
ATOM      4  C   UNL     1      -2.196   6.378   1.492  0.00  0.00    +0.125 A 
ATOM      5  C   UNL     1      -1.494   6.079   0.319  0.00  0.00    +0.029 A 
ATOM      6  C   UNL     1      -2.042   6.413  -0.919  0.00  0.00    +0.036 A 
ENDROOT
BRANCH   5   7
ATOM      7  C   UNL     1      -0.177   5.407   0.392  0.00  0.00    +0.035 A 
ATOM      8  C   UNL     1      -0.094   3.994   0.380  0.00  0.00    -0.007 A 
ATOM      9  C   UNL     1      -1.247   3.199   0.298  0.00  0.00    +0.009 A 
ATOM     10  C   UNL     1      -1.131   1.842   0.283  0.00  0.00    +0.001 A 
ATOM     11  C   UNL     1       0.118   1.229   0.359  0.00  0.00    +0.001 A 
ATOM     12  C   UNL     1       1.258   1.970   0.439  0.00  0.00    +0.008 A 
ATOM     13  C   UNL     1       1.177   3.373   0.451  0.00  0.00    -0.017 A 
ATOM     14  C   UNL     1       2.334   4.167   0.533  0.00  0.00    +0.012 A 
ATOM     15  C   UNL     1       2.233   5.524   0.543  0.00  0.00    +0.046 A 
ATOM     16  C   UNL     1       0.990   6.154   0.474  0.00  0.00    +0.125 A 
BRANCH  16  17
ATOM     17  O   UNL     1       0.921   7.511   0.486  0.00  0.00    -0.506 OA
ATOM     18  H   UNL     1       1.843   8.108   0.551  0.00  0.00    +0.292 HD
ENDBRANCH  16  17
ENDBRANCH   5   7
BRANCH   1  19
ATOM     19  N   UNL     1      -3.827   7.378  -2.222  0.00  0.00    -0.216 N 
ATOM     20  H   UNL     1      -3.205   7.869  -2.986  0.00  0.00    +0.174 HD
BRANCH  19  21
ATOM     21  S   UNL     1      -5.415   7.037  -2.541  0.00  0.00    +0.073 S 
ATOM     22  O   UNL     1      -6.172   7.590  -1.473  0.00  0.00    -0.150 OA
ATOM     23  O   UNL     1      -5.642   7.391  -3.898  0.00  0.00    -0.150 OA
BRANCH  21  28
ATOM     24  C   UNL     1      -6.060   1.048  -2.193  0.00  0.00    +0.044 C 
ATOM     25  C   UNL     1      -5.899   2.544  -2.280  0.00  0.00    -0.050 A 
ATOM     26  C   UNL     1      -6.576   3.364  -1.397  0.00  0.00    +0.005 A 
ATOM     27  C   UNL     1      -6.428   4.736  -1.476  0.00  0.00    +0.029 A 
ATOM     28  C   UNL     1      -5.603   5.288  -2.439  0.00  0.00    +0.111 A 
ATOM     29  C   UNL     1      -4.931   4.468  -3.325  0.00  0.00    -0.024 A 
ATOM     30  C   UNL     1      -5.074   3.095  -3.242  0.00  0.00    +0.008 A 
ATOM     31  C   UNL     1      -4.037   5.069  -4.379  0.00  0.00    +0.046 C 
ENDBRANCH  21  28
ENDBRANCH  19  21
ENDBRANCH   1  19
BRANCH   4  32
ATOM     32  O   UNL     1      -1.670   6.051   2.702  0.00  0.00    -0.506 OA
ATOM     33  H   UNL     1      -0.694   5.547   2.760  0.00  0.00    +0.292 HD
ENDBRANCH   4  32
TORSDOF 6
