REMARK  Name = ZINC39638664
REMARK  10 active torsions:
REMARK  status: ('A' for Active; 'I' for Inactive)
REMARK    1  A    between atoms: C_1  and  C_2
REMARK    2  A    between atoms: C_2  and  C_3
REMARK    3  A    between atoms: C_3  and  C_5
REMARK    4  A    between atoms: C_3  and  C_11
REMARK    5  A    between atoms: C_15  and  C_24
REMARK    6  A    between atoms: N_26  and  C_27
REMARK    7  A    between atoms: C_27  and  C_28
REMARK    8  A    between atoms: C_33  and  O_34
REMARK    9  A    between atoms: O_34  and  C_35
REMARK   10  A    between atoms: C_35  and  C_36
REMARK                            x       y       z     vdW  Elec       q    Type
REMARK                         _______ _______ _______ _____ _____    ______ ____
ROOT
ATOM      1  C   UNL     1       0.220  -0.191   2.094  0.00  0.00    +0.223 C 
ATOM      2  O   UNL     1       0.010  -0.913   3.046  0.00  0.00    -0.275 OA
ATOM      3  N   UNL     1       0.060   1.142   2.211  0.00  0.00    -0.300 N 
ATOM      4  C   UNL     1       0.358   2.184   1.201  0.00  0.00    +0.121 C 
ATOM      5  C   UNL     1      -0.799   3.200   1.334  0.00  0.00    +0.100 C 
ATOM      6  C   UNL     1      -1.327   3.007   2.765  0.00  0.00    -0.004 C 
ATOM      7  C   UNL     1      -0.461   1.896   3.376  0.00  0.00    +0.115 C 
ATOM      8  C   UNL     1      -1.172   4.298   3.564  0.00  0.00    -0.010 C 
ATOM      9  C   UNL     1      -1.757   4.100   4.965  0.00  0.00    -0.082 C 
ATOM     10  N   UNL     1      -3.174   3.734   4.859  0.00  0.00    +0.379 N 
ATOM     11  C   UNL     1      -3.308   2.444   4.170  0.00  0.00    -0.082 C 
ATOM     12  C   UNL     1      -2.789   2.573   2.735  0.00  0.00    -0.010 C 
ATOM     13  H   UNL     1      -3.572   3.663   5.783  0.00  0.00    -0.086 HD
ATOM     14  H   UNL     1      -3.665   4.444   4.337  0.00  0.00    -0.086 HD
ENDROOT
BRANCH   5  15
ATOM     15  C   UNL     1      -1.880   2.898   0.328  0.00  0.00    +0.218 C 
ATOM     16  O   UNL     1      -2.104   1.751   0.005  0.00  0.00    -0.275 OA
ATOM     17  N   UNL     1      -2.598   3.903  -0.211  0.00  0.00    -0.311 N 
ATOM     18  H   UNL     1      -2.371   4.824  -0.009  0.00  0.00    +0.149 HD
BRANCH  17  19
ATOM     19  C   UNL     1      -3.721   3.604  -1.103  0.00  0.00    +0.143 C 
BRANCH  19  20
ATOM     20  C   UNL     1      -4.274   4.890  -1.662  0.00  0.00    +0.011 A 
ATOM     21  C   UNL     1      -5.455   5.407  -1.166  0.00  0.00    +0.009 A 
ATOM     22  C   UNL     1      -5.964   6.586  -1.679  0.00  0.00    +0.001 A 
ATOM     23  C   UNL     1      -5.292   7.251  -2.688  0.00  0.00    +0.004 A 
ATOM     24  C   UNL     1      -4.111   6.738  -3.187  0.00  0.00    +0.046 A 
ATOM     25  C   UNL     1      -3.595   5.558  -2.671  0.00  0.00    +0.125 A 
BRANCH  25  26
ATOM     26  O   UNL     1      -2.430   5.054  -3.156  0.00  0.00    -0.492 OA
BRANCH  26  27
ATOM     27  C   UNL     1      -1.732   5.846  -4.120  0.00  0.00    +0.225 C 
ATOM     28  C   UNL     1      -0.507   5.078  -4.619  0.00  0.00    +0.048 C 
ENDBRANCH  26  27
ENDBRANCH  25  26
ENDBRANCH  19  20
ENDBRANCH  17  19
ENDBRANCH   5  15
BRANCH   1  29
ATOM     29  C   UNL     1       0.659  -0.785   0.780  0.00  0.00    +0.105 C 
BRANCH  29  30
ATOM     30  C   UNL     1       2.157  -0.947   0.778  0.00  0.00    -0.036 A 
ATOM     31  C   UNL     1       2.767  -1.751   1.724  0.00  0.00    +0.004 A 
ATOM     32  C   UNL     1       4.141  -1.899   1.722  0.00  0.00    +0.000 A 
ATOM     33  C   UNL     1       4.906  -1.244   0.775  0.00  0.00    +0.000 A 
ATOM     34  C   UNL     1       4.296  -0.442  -0.171  0.00  0.00    +0.000 A 
ATOM     35  C   UNL     1       2.921  -0.296  -0.172  0.00  0.00    +0.004 A 
ENDBRANCH  29  30
BRANCH  29  37
ATOM     36  C   UNL     1      -1.515  -1.972   0.449  0.00  0.00    +0.005 C 
ATOM     37  C   UNL     1      -0.002  -2.152   0.592  0.00  0.00    +0.014 C 
ENDBRANCH  29  37
ENDBRANCH   1  29
TORSDOF 8
