REMARK  Name = ZINC64886673
REMARK  10 active torsions:
REMARK  status: ('A' for Active; 'I' for Inactive)
REMARK    1  A    between atoms: C_1  and  C_2
REMARK    2  A    between atoms: C_3  and  C_15
REMARK    3  A    between atoms: C_4  and  C_14
REMARK    4  A    between atoms: N_5  and  C_7
REMARK    5  A    between atoms: C_7  and  C_8
REMARK    6  A    between atoms: N_17  and  N_18
REMARK    7  A    between atoms: N_21  and  C_22
REMARK    8  A    between atoms: C_22  and  C_23
REMARK    9  A    between atoms: C_23  and  C_24
REMARK   10  A    between atoms: C_24  and  N_25
REMARK                            x       y       z     vdW  Elec       q    Type
REMARK                         _______ _______ _______ _____ _____    ______ ____
ROOT
ATOM      1  C   UNL     1      -0.005  -0.375  -2.549  0.00  0.00    +0.264 C 
ATOM      2  O   UNL     1       1.042  -0.173  -3.132  0.00  0.00    -0.269 OA
ATOM      3  N   UNL     1      -1.178  -0.183  -3.184  0.00  0.00    -0.229 N 
ATOM      4  H   UNL     1      -2.014  -0.344  -2.718  0.00  0.00    +0.173 HD
ENDROOT
BRANCH   1   7
ATOM      5  C   UNL     1      -0.018   1.503   0.010  0.00  0.00    +0.068 C 
ATOM      6  C   UNL     1       0.002  -0.004   0.002  0.00  0.00    +0.072 A 
ATOM      7  C   UNL     1       0.008  -0.828  -1.146  0.00  0.00    +0.081 A 
ATOM      8  C   UNL     1       0.028  -2.137  -0.708  0.00  0.00    +0.049 A 
ATOM      9  N   UNL     1       0.034  -2.111   0.635  0.00  0.00    -0.263 N 
ATOM     10  N   UNL     1       0.023  -0.776   1.053  0.00  0.00    -0.175 NA
ATOM     11  C   UNL     1       0.040  -3.368  -1.577  0.00  0.00    +0.066 C 
BRANCH   9  12
ATOM     12  C   UNL     1       0.053  -3.284   1.513  0.00  0.00    +0.179 C 
BRANCH  12  13
ATOM     13  C   UNL     1       1.481  -3.666   1.808  0.00  0.00    -0.026 A 
ATOM     14  C   UNL     1       2.143  -4.555   0.982  0.00  0.00    +0.005 A 
ATOM     15  C   UNL     1       3.452  -4.906   1.252  0.00  0.00    +0.000 A 
ATOM     16  C   UNL     1       4.100  -4.368   2.348  0.00  0.00    +0.000 A 
ATOM     17  C   UNL     1       3.438  -3.478   3.174  0.00  0.00    +0.000 A 
ATOM     18  C   UNL     1       2.130  -3.124   2.901  0.00  0.00    +0.005 A 
ENDBRANCH  12  13
ENDBRANCH   9  12
ENDBRANCH   1   7
BRANCH   3  19
ATOM     19  N   UNL     1      -1.191   0.247  -4.517  0.00  0.00    -0.218 N 
ATOM     20  C   UNL     1      -2.364   0.439  -5.152  0.00  0.00    +0.316 C 
ATOM     21  O   UNL     1      -2.375   0.812  -6.309  0.00  0.00    -0.251 OA
ATOM     22  N   UNL     1      -3.525   0.215  -4.505  0.00  0.00    -0.298 N 
ATOM     23  H   UNL     1      -0.355   0.408  -4.983  0.00  0.00    +0.174 HD
ATOM     24  H   UNL     1      -3.516  -0.083  -3.582  0.00  0.00    +0.150 HD
BRANCH  22  25
ATOM     25  C   UNL     1      -4.800   0.423  -5.196  0.00  0.00    +0.107 C 
BRANCH  25  26
ATOM     26  C   UNL     1      -5.954   0.102  -4.244  0.00  0.00    +0.040 C 
BRANCH  26  27
ATOM     27  C   UNL     1      -7.286   0.319  -4.965  0.00  0.00    +0.124 C 
BRANCH  27  28
ATOM     28  N   UNL     1      -8.391   0.011  -4.054  0.00  0.00    -0.338 N 
ATOM     29  C   UNL     1      -8.987  -1.210  -3.883  0.00  0.00    +0.104 A 
ATOM     30  C   UNL     1      -9.950  -1.046  -2.956  0.00  0.00    +0.101 A 
ATOM     31  N   UNL     1      -9.942   0.238  -2.571  0.00  0.00    -0.352 N 
ATOM     32  C   UNL     1      -9.007   0.877  -3.221  0.00  0.00    +0.173 A 
ATOM     33  H   UNL     1     -10.535   0.630  -1.912  0.00  0.00    +0.166 HD
ENDBRANCH  27  28
ENDBRANCH  26  27
ENDBRANCH  25  26
ENDBRANCH  22  25
ENDBRANCH   3  19
TORSDOF 8
