REMARK  Name = ZINC08789631
REMARK  9 active torsions:
REMARK  status: ('A' for Active; 'I' for Inactive)
REMARK    1  A    between atoms: C_1  and  C_2
REMARK    2  A    between atoms: C_13  and  C_32
REMARK    3  A    between atoms: N_20  and  C_23
REMARK    4  A    between atoms: C_23  and  C_24
REMARK    5  A    between atoms: C_24  and  C_25
REMARK    6  A    between atoms: C_36  and  O_40
REMARK    7  A    between atoms: C_37  and  O_38
REMARK    8  A    between atoms: O_38  and  C_39
REMARK    9  A    between atoms: O_40  and  C_41
REMARK                            x       y       z     vdW  Elec       q    Type
REMARK                         _______ _______ _______ _____ _____    ______ ____
ROOT
ATOM      1  C   UNL     1      -2.040  -0.362  -1.856  0.00  0.00    +0.048 C 
ATOM      2  C   UNL     1      -2.095   1.099  -1.407  0.00  0.00    +0.151 C 
ATOM      3  C   UNL     1      -2.836   1.161  -0.093  0.00  0.00    +0.054 A 
ATOM      4  C   UNL     1      -2.221   1.373   1.093  0.00  0.00    -0.008 A 
ATOM      5  C   UNL     1      -3.252   1.359   2.111  0.00  0.00    +0.004 A 
ATOM      6  C   UNL     1      -3.213   1.520   3.500  0.00  0.00    +0.010 A 
ATOM      7  C   UNL     1      -4.412   1.448   4.165  0.00  0.00    +0.001 A 
ATOM      8  C   UNL     1      -5.609   1.227   3.504  0.00  0.00    +0.002 A 
ATOM      9  C   UNL     1      -5.676   1.065   2.131  0.00  0.00    +0.026 A 
ATOM     10  C   UNL     1      -4.474   1.133   1.429  0.00  0.00    +0.047 A 
ATOM     11  N   UNL     1      -4.184   1.018   0.100  0.00  0.00    -0.356 N 
ATOM     12  H   UNL     1      -4.834   0.859  -0.602  0.00  0.00    +0.166 HD
ATOM     13  C   UNL     1      -0.736   1.583   1.265  0.00  0.00    +0.072 C 
ATOM     14  C   UNL     1      -0.013   1.086   0.008  0.00  0.00    +0.122 C 
ATOM     15  N   UNL     1      -0.731   1.577  -1.183  0.00  0.00    -0.280 N 
ATOM     16  C   UNL     1      -0.122   2.431  -2.009  0.00  0.00    +0.234 C 
ATOM     17  O   UNL     1       1.054   2.662  -1.821  0.00  0.00    -0.274 OA
ATOM     18  C   UNL     1      -0.795   3.120  -3.152  0.00  0.00    +0.203 C 
ATOM     19  N   UNL     1      -2.211   2.799  -3.228  0.00  0.00    -0.290 N 
ATOM     20  C   UNL     1      -2.807   1.897  -2.449  0.00  0.00    +0.245 C 
ATOM     21  O   UNL     1      -3.997   1.714  -2.595  0.00  0.00    -0.273 OA
ENDROOT
BRANCH  13  22
ATOM     22  C   UNL     1      -0.250   0.811   2.465  0.00  0.00    +0.007 A 
ATOM     23  C   UNL     1      -0.405  -0.562   2.512  0.00  0.00    +0.008 A 
ATOM     24  C   UNL     1       0.041  -1.274   3.610  0.00  0.00    +0.004 A 
ATOM     25  C   UNL     1       0.643  -0.615   4.666  0.00  0.00    +0.049 A 
ATOM     26  C   UNL     1       0.801   0.760   4.625  0.00  0.00    +0.162 A 
ATOM     27  C   UNL     1       0.358   1.476   3.517  0.00  0.00    +0.165 A 
BRANCH  27  28
ATOM     28  O   UNL     1       0.516   2.826   3.470  0.00  0.00    -0.491 OA
ATOM     29  C   UNL     1      -0.543   3.622   4.005  0.00  0.00    +0.277 C 
ENDBRANCH  27  28
BRANCH  26  30
ATOM     30  O   UNL     1       1.394   1.409   5.663  0.00  0.00    -0.491 OA
ATOM     31  C   UNL     1       1.831   0.610   6.764  0.00  0.00    +0.277 C 
ENDBRANCH  26  30
ENDBRANCH  13  22
BRANCH  19  32
ATOM     32  C   UNL     1      -3.027   3.506  -4.218  0.00  0.00    +0.113 C 
BRANCH  32  33
ATOM     33  C   UNL     1      -3.598   4.780  -3.591  0.00  0.00    +0.057 C 
BRANCH  33  34
ATOM     34  C   UNL     1      -4.438   5.508  -4.609  0.00  0.00    -0.011 A 
ATOM     35  C   UNL     1      -5.815   5.390  -4.581  0.00  0.00    +0.006 A 
ATOM     36  C   UNL     1      -6.586   6.057  -5.514  0.00  0.00    +0.000 A 
ATOM     37  C   UNL     1      -5.981   6.844  -6.476  0.00  0.00    +0.003 A 
ATOM     38  C   UNL     1      -4.605   6.964  -6.507  0.00  0.00    +0.038 A 
ATOM     39  C   UNL     1      -3.832   6.299  -5.570  0.00  0.00    +0.127 A 
ATOM     40  F   UNL     1      -2.486   6.420  -5.595  0.00  0.00    -0.205 F 
ENDBRANCH  33  34
ENDBRANCH  32  33
ENDBRANCH  19  32
TORSDOF 6
