REMARK  Name = ZINC06498553
REMARK  4 active torsions:
REMARK  status: ('A' for Active; 'I' for Inactive)
REMARK    1  A    between atoms: C_3  and  N_17
REMARK    2  A    between atoms: C_6  and  C_7
REMARK    3  A    between atoms: N_17  and  S_18
REMARK    4  A    between atoms: S_18  and  C_21
REMARK                            x       y       z     vdW  Elec       q    Type
REMARK                         _______ _______ _______ _____ _____    ______ ____
ROOT
ATOM      1  C   UNL     1       0.009   1.342  -0.305  0.00  0.00    +0.013 A 
ATOM      2  C   UNL     1       1.185   2.059  -0.283  0.00  0.00    +0.025 A 
ATOM      3  C   UNL     1       2.391   1.411  -0.038  0.00  0.00    +0.048 A 
ATOM      4  C   UNL     1       2.413   0.039   0.186  0.00  0.00    +0.025 A 
ATOM      5  C   UNL     1       1.240  -0.683   0.166  0.00  0.00    +0.013 A 
ATOM      6  C   UNL     1       0.028  -0.036  -0.080  0.00  0.00    +0.019 A 
ENDROOT
BRANCH   6   7
ATOM      7  C   UNL     1      -1.233  -0.807  -0.102  0.00  0.00    +0.164 A 
ATOM      8  N   UNL     1      -2.452  -0.324   0.019  0.00  0.00    -0.129 NA
ATOM      9  N   UNL     1      -3.309  -1.282  -0.054  0.00  0.00    -0.134 NA
ATOM     10  C   UNL     1      -2.694  -2.417  -0.229  0.00  0.00    +0.134 A 
ATOM     11  N   UNL     1      -1.359  -2.157  -0.259  0.00  0.00    -0.311 N 
ATOM     12  C   UNL     1      -0.284  -3.137  -0.411  0.00  0.00    +0.125 C 
ATOM     13  C   UNL     1      -0.802  -4.339  -1.208  0.00  0.00    +0.022 C 
ATOM     14  C   UNL     1      -1.400  -5.370  -0.253  0.00  0.00    +0.002 C 
ATOM     15  C   UNL     1      -2.583  -4.776   0.506  0.00  0.00    +0.008 C 
ATOM     16  C   UNL     1      -3.321  -3.779  -0.383  0.00  0.00    +0.076 C 
ENDBRANCH   6   7
BRANCH   3  17
ATOM     17  N   UNL     1       3.581   2.139  -0.018  0.00  0.00    -0.216 N 
ATOM     18  H   UNL     1       3.767   2.784  -0.718  0.00  0.00    +0.174 HD
BRANCH  17  19
ATOM     19  S   UNL     1       4.676   1.902   1.202  0.00  0.00    +0.072 S 
ATOM     20  O   UNL     1       4.919   0.503   1.263  0.00  0.00    -0.150 OA
ATOM     21  O   UNL     1       5.717   2.848   1.003  0.00  0.00    -0.150 OA
BRANCH  19  22
ATOM     22  C   UNL     1       3.878   2.341   2.710  0.00  0.00    +0.112 A 
ATOM     23  C   UNL     1       4.029   3.621   3.222  0.00  0.00    +0.031 A 
ATOM     24  C   UNL     1       3.411   3.978   4.400  0.00  0.00    +0.033 A 
ATOM     25  C   UNL     1       2.628   3.045   5.082  0.00  0.00    +0.113 A 
ATOM     26  C   UNL     1       2.478   1.751   4.561  0.00  0.00    +0.161 A 
ATOM     27  C   UNL     1       3.103   1.410   3.372  0.00  0.00    +0.077 A 
ATOM     28  O   UNL     1       1.679   1.083   5.424  0.00  0.00    -0.406 OA
ATOM     29  C   UNL     1       1.352   1.918   6.425  0.00  0.00    +0.441 A 
ATOM     30  N   UNL     1       1.907   3.085   6.236  0.00  0.00    -0.172 NA
ATOM     31  O   UNL     1       0.563   1.597   7.474  0.00  0.00    -0.221 OA
ENDBRANCH  19  22
ENDBRANCH  17  19
ENDBRANCH   3  17
TORSDOF 4
