REMARK  Name = ZINC08315047
REMARK  8 active torsions:
REMARK  status: ('A' for Active; 'I' for Inactive)
REMARK    1  A    between atoms: C_1  and  C_2
REMARK    2  A    between atoms: C_2  and  C_3
REMARK    3  A    between atoms: C_3  and  C_5
REMARK    4  A    between atoms: C_3  and  N_44
REMARK    5  A    between atoms: C_12  and  C_13
REMARK    6  A    between atoms: C_12  and  N_44
REMARK    7  A    between atoms: N_15  and  C_16
REMARK    8  A    between atoms: C_17  and  C_24
REMARK                            x       y       z     vdW  Elec       q    Type
REMARK                         _______ _______ _______ _____ _____    ______ ____
ROOT
ATOM      1  C   UNL     1      -1.065   3.665  -0.989  0.00  0.00    +0.016 C 
ENDROOT
BRANCH   1   2
ATOM      2  C   UNL     1      -2.053   4.044  -2.062  0.00  0.00    +0.201 C 
ATOM      3  O   UNL     1      -3.217   4.231  -1.775  0.00  0.00    -0.278 OA
ATOM      4  N   UNL     1      -1.644   4.177  -3.339  0.00  0.00    -0.281 N 
ATOM      5  H   UNL     1      -0.713   4.028  -3.568  0.00  0.00    +0.155 HD
BRANCH   4   6
ATOM      6  C   UNL     1      -2.554   4.527  -4.326  0.00  0.00    +0.090 A 
ATOM      7  C   UNL     1      -2.327   4.715  -5.678  0.00  0.00    +0.084 A 
ATOM      8  C   UNL     1      -3.470   5.080  -6.513  0.00  0.00    -0.018 A 
ATOM      9  C   UNL     1      -4.639   5.205  -5.859  0.00  0.00    -0.004 A 
ATOM     10  S   UNL     1      -4.249   4.842  -4.165  0.00  0.00    -0.077 S 
ATOM     11  C   UNL     1      -5.764   5.585  -6.782  0.00  0.00    +0.043 C 
ATOM     12  C   UNL     1      -5.233   5.262  -8.196  0.00  0.00    +0.010 C 
ATOM     13  C   UNL     1      -3.709   5.379  -7.994  0.00  0.00    +0.037 C 
BRANCH   7  14
ATOM     14  C   UNL     1      -1.020   4.553  -6.239  0.00  0.00    +0.102 C 
ATOM     15  N   UNL     1       0.018   4.424  -6.685  0.00  0.00    -0.191 NA
ENDBRANCH   7  14
ENDBRANCH   4   6
ENDBRANCH   1   2
BRANCH   1  16
ATOM     16  N   UNL     1      -1.764   3.586   0.307  0.00  0.00    +0.389 N 
ATOM     17  H   UNL     1      -2.253   4.472   0.482  0.00  0.00    -0.084 HD
ATOM     18  H   UNL     1      -2.445   2.819   0.279  0.00  0.00    -0.084 HD
BRANCH  16  19
ATOM     19  C   UNL     1      -0.799   3.340   1.395  0.00  0.00    -0.041 C 
BRANCH  19  20
ATOM     20  C   UNL     1      -1.355   3.889   2.684  0.00  0.00    -0.061 A 
ATOM     21  C   UNL     1      -2.700   3.749   2.970  0.00  0.00    +0.003 A 
ATOM     22  C   UNL     1      -3.211   4.248   4.154  0.00  0.00    +0.015 A 
ATOM     23  C   UNL     1      -2.377   4.897   5.047  0.00  0.00    +0.018 A 
ATOM     24  C   UNL     1      -1.032   5.041   4.757  0.00  0.00    +0.015 A 
ATOM     25  C   UNL     1      -0.522   4.537   3.576  0.00  0.00    +0.003 A 
ATOM     26 BR   UNL     1      -3.075   5.587   6.663  0.00  0.00    -0.050 Br
ENDBRANCH  19  20
BRANCH  19  28
ATOM     27  C   UNL     1       0.525   1.585   2.583  0.00  0.00    +0.002 C 
ATOM     28  C   UNL     1      -0.567   1.835   1.540  0.00  0.00    -0.015 C 
ENDBRANCH  19  28
ENDBRANCH  16  19
ENDBRANCH   1  16
TORSDOF 7
