REMARK  Name = ZINC02918161
REMARK  4 active torsions:
REMARK  status: ('A' for Active; 'I' for Inactive)
REMARK    1  A    between atoms: C_3  and  O_25
REMARK    2  A    between atoms: C_6  and  C_7
REMARK    3  A    between atoms: C_10  and  C_18
REMARK    4  A    between atoms: O_25  and  C_26
REMARK                            x       y       z     vdW  Elec       q    Type
REMARK                         _______ _______ _______ _____ _____    ______ ____
ROOT
ATOM      1  C   UNL     1      -1.293  -0.774   0.011  0.00  0.00    +0.144 C 
ATOM      2  C   UNL     1      -1.351  -1.670   1.255  0.00  0.00    +0.059 C 
ATOM      3  C   UNL     1      -2.520  -2.654   1.132  0.00  0.00    +0.106 C 
ATOM      4  N   UNL     1      -2.285  -3.524  -0.038  0.00  0.00    -0.305 N 
ATOM      5  C   UNL     1      -1.830  -2.893  -1.188  0.00  0.00    +0.236 A 
ATOM      6  N   UNL     1      -1.371  -1.614  -1.181  0.00  0.00    -0.206 N 
ATOM      7  N   UNL     1      -1.018  -1.334  -2.501  0.00  0.00    -0.042 NA
ATOM      8  N   UNL     1      -1.272  -2.404  -3.184  0.00  0.00    -0.021 NA
ATOM      9  N   UNL     1      -1.747  -3.328  -2.413  0.00  0.00    -0.092 NA
ATOM     10  H   UNL     1      -2.438  -4.481  -0.004  0.00  0.00    +0.150 HD
ENDROOT
BRANCH   3  11
ATOM     11  C   UNL     1      -2.608  -3.493   2.381  0.00  0.00    -0.027 A 
ATOM     12  C   UNL     1      -1.759  -4.571   2.550  0.00  0.00    +0.007 A 
ATOM     13  C   UNL     1      -1.839  -5.341   3.695  0.00  0.00    +0.020 A 
ATOM     14  C   UNL     1      -2.769  -5.033   4.672  0.00  0.00    +0.041 A 
ATOM     15  C   UNL     1      -3.619  -3.954   4.502  0.00  0.00    +0.020 A 
ATOM     16  C   UNL     1      -3.534  -3.181   3.359  0.00  0.00    +0.007 A 
ATOM     17 CL   UNL     1      -2.871  -6.000   6.110  0.00  0.00    -0.084 Cl
ENDBRANCH   3  11
BRANCH   1  23
ATOM     18  C   UNL     1      -0.017   1.378   0.010  0.00  0.00    +0.009 A 
ATOM     19  C   UNL     1       1.169   2.087   0.002  0.00  0.00    +0.046 A 
ATOM     20  C   UNL     1       2.380   1.409  -0.013  0.00  0.00    +0.127 A 
ATOM     21  C   UNL     1       2.396   0.022  -0.021  0.00  0.00    +0.046 A 
ATOM     22  C   UNL     1       1.207  -0.681  -0.013  0.00  0.00    +0.009 A 
ATOM     23  C   UNL     1       0.002  -0.004   0.002  0.00  0.00    -0.023 A 
BRANCH  20  24
ATOM     24  O   UNL     1       3.548   2.104  -0.021  0.00  0.00    -0.434 OA
BRANCH  24  25
ATOM     25  C   UNL     1       4.756   1.341  -0.036  0.00  0.00    +0.541 C 
ATOM     26  F   UNL     1       4.810   0.528   1.101  0.00  0.00    -0.166 F 
ATOM     27  F   UNL     1       4.787   0.540  -1.183  0.00  0.00    -0.166 F 
ENDBRANCH  24  25
ENDBRANCH  20  24
ENDBRANCH   1  23
TORSDOF 4
