REMARK  Name = ZINC39984693
REMARK  9 active torsions:
REMARK  status: ('A' for Active; 'I' for Inactive)
REMARK    1  A    between atoms: C_1  and  C_2
REMARK    2  A    between atoms: C_3  and  O_26
REMARK    3  A    between atoms: C_6  and  C_9
REMARK    4  A    between atoms: C_7  and  O_8
REMARK    5  A    between atoms: C_11  and  C_19
REMARK    6  A    between atoms: C_12  and  C_15
REMARK    7  A    between atoms: C_22  and  C_25
REMARK    8  A    between atoms: O_26  and  C_27
REMARK    9  A    between atoms: C_27  and  C_28
REMARK                            x       y       z     vdW  Elec       q    Type
REMARK                         _______ _______ _______ _____ _____    ______ ____
ROOT
ATOM      1  C   UNL     1      -1.263   0.622  -1.313  0.00  0.00    +0.051 C 
ATOM      2  C   UNL     1      -1.209  -0.834  -0.925  0.00  0.00    +0.033 A 
ATOM      3  C   UNL     1      -1.632  -1.806  -1.817  0.00  0.00    +0.127 A 
ATOM      4  C   UNL     1      -1.582  -3.146  -1.458  0.00  0.00    +0.046 A 
ATOM      5  C   UNL     1      -1.111  -3.510  -0.210  0.00  0.00    +0.013 A 
ATOM      6  C   UNL     1      -0.690  -2.542   0.681  0.00  0.00    +0.023 A 
ATOM      7  C   UNL     1      -0.732  -1.202   0.324  0.00  0.00    +0.129 A 
ENDROOT
BRANCH   6   8
ATOM      8  C   UNL     1      -0.178  -2.943   2.041  0.00  0.00    +0.166 C 
ATOM      9  C   UNL     1      -1.321  -3.040   3.037  0.00  0.00    +0.034 C 
ATOM     10  C   UNL     1      -1.301  -4.338   3.421  0.00  0.00    +0.170 C 
ATOM     11  N   UNL     1      -0.311  -5.002   2.789  0.00  0.00    -0.173 NA
ATOM     12  N   UNL     1       0.360  -4.313   2.012  0.00  0.00    -0.296 N 
ATOM     13  H   UNL     1       1.108  -4.620   1.476  0.00  0.00    +0.183 HD
BRANCH   9  14
ATOM     14  C   UNL     1      -2.230  -1.979   3.479  0.00  0.00    +0.055 C 
ATOM     15  C   UNL     1      -1.931  -1.169   4.732  0.00  0.00    +0.126 C 
ATOM     16  S   UNL     1      -3.121   0.226   4.506  0.00  0.00    -0.128 S 
ATOM     17  C   UNL     1      -4.196  -0.641   3.280  0.00  0.00    +0.160 C 
ATOM     18  N   UNL     1      -3.286  -1.709   2.820  0.00  0.00    -0.273 NA
ATOM     19  C   UNL     1      -4.579   0.289   2.127  0.00  0.00    +0.044 C 
ENDBRANCH   9  14
BRANCH  10  20
ATOM     20  C   UNL     1      -2.251  -4.955   4.415  0.00  0.00    +0.436 C 
ATOM     21  F   UNL     1      -3.070  -3.959   4.958  0.00  0.00    -0.164 F 
ATOM     22  F   UNL     1      -3.044  -5.911   3.772  0.00  0.00    -0.164 F 
ATOM     23  F   UNL     1      -1.521  -5.568   5.439  0.00  0.00    -0.164 F 
ENDBRANCH  10  20
ENDBRANCH   6   8
BRANCH   7  24
ATOM     24  O   UNL     1      -0.311  -0.251   1.198  0.00  0.00    -0.506 OA
ATOM     25  H   UNL     1      -0.990   0.035   1.825  0.00  0.00    +0.292 HD
ENDBRANCH   7  24
BRANCH   3  26
ATOM     26  O   UNL     1      -2.095  -1.449  -3.044  0.00  0.00    -0.487 OA
BRANCH  26  27
ATOM     27  C   UNL     1      -2.514  -2.504  -3.912  0.00  0.00    +0.267 C 
BRANCH  27  28
ATOM     28  C   UNL     1      -2.993  -1.921  -5.217  0.00  0.00    +0.025 A 
ATOM     29  C   UNL     1      -2.970  -0.553  -5.412  0.00  0.00    +0.010 A 
ATOM     30  C   UNL     1      -3.409  -0.017  -6.608  0.00  0.00    +0.001 A 
ATOM     31  C   UNL     1      -3.872  -0.850  -7.611  0.00  0.00    +0.003 A 
ATOM     32  C   UNL     1      -3.896  -2.218  -7.418  0.00  0.00    +0.039 A 
ATOM     33  C   UNL     1      -3.451  -2.755  -6.222  0.00  0.00    +0.130 A 
ATOM     34  F   UNL     1      -3.469  -4.093  -6.034  0.00  0.00    -0.205 F 
ENDBRANCH  27  28
ENDBRANCH  26  27
ENDBRANCH   3  26
TORSDOF 7
