REMARK  Name = ZINC19561567
REMARK  7 active torsions:
REMARK  status: ('A' for Active; 'I' for Inactive)
REMARK    1  A    between atoms: C_1  and  C_2
REMARK    2  A    between atoms: C_3  and  C_29
REMARK    3  A    between atoms: N_9  and  C_12
REMARK    4  A    between atoms: C_12  and  C_13
REMARK    5  A    between atoms: C_13  and  O_28
REMARK    6  A    between atoms: N_16  and  C_19
REMARK    7  A    between atoms: C_19  and  C_20
REMARK                            x       y       z     vdW  Elec       q    Type
REMARK                         _______ _______ _______ _____ _____    ______ ____
ROOT
ATOM      1  C   UNL     1      -2.872   0.671   1.462  0.00  0.00    +0.081 C 
ATOM      2  C   UNL     1      -1.725  -0.015   2.210  0.00  0.00    +0.018 C 
ATOM      3  C   UNL     1      -2.178  -0.346   3.634  0.00  0.00    -0.076 C 
ATOM      4  N   UNL     1      -3.352  -1.228   3.584  0.00  0.00    +0.383 N 
ATOM      5  C   UNL     1      -4.480  -0.571   2.912  0.00  0.00    -0.076 C 
ATOM      6  C   UNL     1      -4.097  -0.247   1.466  0.00  0.00    +0.018 C 
ATOM      7  H   UNL     1      -3.080  -2.115   2.993  0.00  0.00    -0.081 HD
ENDROOT
BRANCH   1   8
ATOM      8  O   UNL     1      -3.196   1.903   2.110  0.00  0.00    -0.387 OA
ATOM      9  H   UNL     1      -3.525   1.902   3.160  0.00  0.00    +0.210 HD
ENDBRANCH   1   8
BRANCH   1  10
ATOM     10  C   UNL     1      -2.446   0.950   0.019  0.00  0.00    +0.160 C 
BRANCH  10  19
ATOM     11  C   UNL     1      -1.038   6.191   0.046  0.00  0.00    +0.045 C 
ATOM     12  C   UNL     1       0.147   5.261   0.029  0.00  0.00    -0.026 A 
ATOM     13  C   UNL     1       1.397   5.753   0.020  0.00  0.00    -0.008 A 
ATOM     14  S   UNL     1       2.416   4.290   0.002  0.00  0.00    -0.073 S 
ATOM     15  C   UNL     1       1.135   3.062   0.008  0.00  0.00    +0.116 A 
ATOM     16  C   UNL     1      -0.048   3.823   0.023  0.00  0.00    +0.075 A 
ATOM     17  C   UNL     1      -1.268   3.071   0.031  0.00  0.00    +0.262 A 
ATOM     18  O   UNL     1      -2.346   3.640   0.044  0.00  0.00    -0.267 OA
ATOM     19  N   UNL     1      -1.204   1.727   0.017  0.00  0.00    -0.296 N 
ATOM     20  C   UNL     1      -0.013   1.076   0.008  0.00  0.00    +0.203 A 
ATOM     21  N   UNL     1       1.116   1.733   0.001  0.00  0.00    -0.230 NA
ATOM     22  C   UNL     1       1.833   7.195   0.024  0.00  0.00    +0.052 C 
ENDBRANCH  10  19
ENDBRANCH   1  10
BRANCH   4  23
ATOM     23  C   UNL     1      -3.730  -1.678   4.930  0.00  0.00    -0.040 C 
BRANCH  23  24
ATOM     24  C   UNL     1      -2.640  -2.554   5.492  0.00  0.00    -0.026 A 
ATOM     25  C   UNL     1      -1.790  -2.063   6.465  0.00  0.00    +0.005 A 
ATOM     26  C   UNL     1      -0.790  -2.865   6.980  0.00  0.00    +0.003 A 
ATOM     27  C   UNL     1      -0.638  -4.162   6.524  0.00  0.00    +0.041 A 
ATOM     28  C   UNL     1      -1.487  -4.657   5.550  0.00  0.00    +0.159 A 
ATOM     29  C   UNL     1      -2.494  -3.853   5.037  0.00  0.00    +0.160 A 
ATOM     30  F   UNL     1      -3.328  -4.336   4.090  0.00  0.00    -0.202 F 
ATOM     31  F   UNL     1      -1.339  -5.923   5.104  0.00  0.00    -0.202 F 
ENDBRANCH  23  24
ENDBRANCH   4  23
TORSDOF 5
