REMARK  Name = ZINC39746061
REMARK  5 active torsions:
REMARK  status: ('A' for Active; 'I' for Inactive)
REMARK    1  A    between atoms: C_1  and  C_2
REMARK    2  A    between atoms: C_3  and  C_28
REMARK    3  A    between atoms: C_11  and  C_13
REMARK    4  A    between atoms: C_13  and  S_14
REMARK    5  A    between atoms: S_14  and  C_15
REMARK                            x       y       z     vdW  Elec       q    Type
REMARK                         _______ _______ _______ _____ _____    ______ ____
ROOT
ATOM      1  C   UNL     1       0.090  -3.432   4.547  0.00  0.00    +0.147 C 
ENDROOT
BRANCH   1  12
ATOM      2  C   UNL     1      -0.018   1.503   0.010  0.00  0.00    +0.045 C 
ATOM      3  C   UNL     1       0.002  -0.004   0.002  0.00  0.00    -0.026 A 
ATOM      4  C   UNL     1       0.006  -0.677  -1.160  0.00  0.00    -0.008 A 
ATOM      5  S   UNL     1       0.032  -2.385  -0.648  0.00  0.00    -0.073 S 
ATOM      6  C   UNL     1       0.037  -2.144   1.110  0.00  0.00    +0.116 A 
ATOM      7  C   UNL     1       0.024  -0.745   1.250  0.00  0.00    +0.075 A 
ATOM      8  C   UNL     1       0.029  -0.257   2.597  0.00  0.00    +0.260 A 
ATOM      9  O   UNL     1       0.014   0.942   2.821  0.00  0.00    -0.267 OA
ATOM     10  N   UNL     1       0.051  -1.142   3.611  0.00  0.00    -0.310 N 
ATOM     11  H   UNL     1       0.054  -0.817   4.525  0.00  0.00    +0.170 HD
ATOM     12  C   UNL     1       0.067  -2.480   3.380  0.00  0.00    +0.121 A 
ATOM     13  N   UNL     1       0.053  -2.956   2.163  0.00  0.00    -0.226 NA
ATOM     14  C   UNL     1      -0.009  -0.122  -2.561  0.00  0.00    +0.052 C 
ENDBRANCH   1  12
BRANCH   1  15
ATOM     15  S   UNL     1       0.108  -5.139   3.935  0.00  0.00    -0.103 S 
BRANCH  15  16
ATOM     16  C   UNL     1       0.135  -6.147   5.443  0.00  0.00    +0.290 C 
ATOM     17  N   UNL     1      -0.301  -5.353   6.603  0.00  0.00    -0.147 NA
ATOM     18  N   UNL     1      -1.318  -5.868   7.071  0.00  0.00    -0.112 NA
ATOM     19  C   UNL     1      -1.726  -6.985   6.401  0.00  0.00    +0.253 A 
ATOM     20  N   UNL     1      -0.857  -7.226   5.360  0.00  0.00    -0.274 N 
ATOM     21  C   UNL     1      -1.283  -8.351   4.703  0.00  0.00    +0.073 A 
ATOM     22  C   UNL     1      -0.824  -9.064   3.602  0.00  0.00    +0.028 A 
ATOM     23  C   UNL     1      -1.503 -10.188   3.183  0.00  0.00    +0.002 A 
ATOM     24  C   UNL     1      -2.643 -10.614   3.852  0.00  0.00    +0.002 A 
ATOM     25  C   UNL     1      -3.111  -9.928   4.935  0.00  0.00    +0.030 A 
ATOM     26  C   UNL     1      -2.439  -8.783   5.382  0.00  0.00    +0.091 A 
ATOM     27  N   UNL     1      -2.658  -7.915   6.398  0.00  0.00    -0.209 NA
ENDBRANCH  15  16
ENDBRANCH   1  15
TORSDOF 3
