REMARK  Name = ZINC44420798
REMARK  4 active torsions:
REMARK  status: ('A' for Active; 'I' for Inactive)
REMARK    1  A    between atoms: C_3  and  C_6
REMARK    2  A    between atoms: C_8  and  C_12
REMARK    3  A    between atoms: C_14  and  C_17
REMARK    4  A    between atoms: N_22  and  C_24
REMARK                            x       y       z     vdW  Elec       q    Type
REMARK                         _______ _______ _______ _____ _____    ______ ____
ROOT
ATOM      1  C   UNL     1       6.854  -1.035  -0.076  0.00  0.00    +0.276 A 
ATOM      2  N   UNL     1       8.113  -0.652  -0.079  0.00  0.00    -0.190 NA
ATOM      3  C   UNL     1       8.914  -1.719  -0.098  0.00  0.00    +0.177 A 
ATOM      4  N   UNL     1       8.185  -2.800  -0.108  0.00  0.00    -0.060 NA
ATOM      5  O   UNL     1       6.830  -2.380  -0.089  0.00  0.00    -0.331 OA
ENDROOT
BRANCH   1   8
ATOM      6  C   UNL     1       3.575   0.619  -0.029  0.00  0.00    +0.128 A 
ATOM      7  C   UNL     1       4.370  -0.540  -0.048  0.00  0.00    +0.065 A 
ATOM      8  C   UNL     1       5.679  -0.147  -0.057  0.00  0.00    +0.124 A 
ATOM      9  N   UNL     1       5.699   1.219  -0.043  0.00  0.00    -0.272 N 
ATOM     10  H   UNL     1       6.491   1.779  -0.045  0.00  0.00    +0.189 HD
ATOM     11  N   UNL     1       4.373   1.670  -0.031  0.00  0.00    -0.170 NA
BRANCH   6  14
ATOM     12  C   UNL     1      -0.016   1.343   0.009  0.00  0.00    +0.042 A 
ATOM     13  C   UNL     1       1.326   1.774  -0.001  0.00  0.00    +0.051 A 
ATOM     14  C   UNL     1       2.097   0.655  -0.014  0.00  0.00    +0.155 A 
ATOM     15  O   UNL     1       1.280  -0.417  -0.012  0.00  0.00    -0.461 OA
ATOM     16  C   UNL     1       0.002  -0.004   0.002  0.00  0.00    +0.196 A 
ENDBRANCH   6  14
ENDBRANCH   1   8
BRANCH   3  17
ATOM     17  C   UNL     1      10.420  -1.681  -0.107  0.00  0.00    +0.087 C 
ATOM     18  C   UNL     1      10.987  -2.468  -1.312  0.00  0.00    +0.109 C 
ATOM     19  C   UNL     1      12.232  -3.132  -0.768  0.00  0.00    +0.221 C 
ATOM     20  O   UNL     1      13.117  -3.610  -1.446  0.00  0.00    -0.275 OA
ATOM     21  N   UNL     1      12.216  -3.115   0.576  0.00  0.00    -0.268 N 
ATOM     22  C   UNL     1      11.000  -2.470   1.087  0.00  0.00    +0.125 C 
BRANCH  21  23
ATOM     23  C   UNL     1      13.230  -3.644   1.385  0.00  0.00    +0.074 A 
ATOM     24  C   UNL     1      14.290  -2.842   1.785  0.00  0.00    +0.064 A 
ATOM     25  C   UNL     1      15.289  -3.367   2.585  0.00  0.00    +0.125 A 
ATOM     26  C   UNL     1      15.233  -4.691   2.986  0.00  0.00    +0.041 A 
ATOM     27  C   UNL     1      14.178  -5.492   2.589  0.00  0.00    +0.043 A 
ATOM     28  C   UNL     1      13.173  -4.971   1.794  0.00  0.00    +0.145 A 
ATOM     29  F   UNL     1      12.141  -5.754   1.411  0.00  0.00    -0.204 F 
ATOM     30  F   UNL     1      16.321  -2.587   2.975  0.00  0.00    -0.205 F 
ENDBRANCH  21  23
ENDBRANCH   3  17
TORSDOF 4
