REMARK  Name = ZINC38660581
REMARK  15 active torsions:
REMARK  status: ('A' for Active; 'I' for Inactive)
REMARK    1  A    between atoms: C_1  and  C_2
REMARK    2  A    between atoms: C_2  and  C_4
REMARK    3  A    between atoms: C_2  and  O_33
REMARK    4  A    between atoms: C_4  and  O_6
REMARK    5  A    between atoms: O_6  and  C_7
REMARK    6  A    between atoms: C_14  and  N_32
REMARK    7  A    between atoms: C_15  and  C_30
REMARK    8  A    between atoms: C_16  and  C_18
REMARK    9  A    between atoms: C_20  and  O_28
REMARK   10  A    between atoms: C_21  and  O_26
REMARK   11  A    between atoms: C_22  and  O_24
REMARK   12  A    between atoms: O_24  and  C_25
REMARK   13  A    between atoms: O_26  and  C_27
REMARK   14  A    between atoms: O_28  and  C_29
REMARK   15  A    between atoms: O_33  and  C_34
REMARK                            x       y       z     vdW  Elec       q    Type
REMARK                         _______ _______ _______ _____ _____    ______ ____
ROOT
ATOM      1  C   UNL     1       2.077  -1.238  -2.962  0.00  0.00    +0.135 A 
ATOM      2  C   UNL     1       0.973  -1.573  -3.733  0.00  0.00    +0.047 A 
ATOM      3  C   UNL     1       1.146  -2.211  -4.945  0.00  0.00    +0.012 A 
ATOM      4  C   UNL     1       2.418  -2.520  -5.395  0.00  0.00    +0.008 A 
ATOM      5  C   UNL     1       3.524  -2.187  -4.629  0.00  0.00    +0.138 A 
ATOM      6  C   UNL     1       3.351  -1.539  -3.412  0.00  0.00    +0.093 A 
ATOM      7  O   UNL     1       4.778  -2.481  -5.053  0.00  0.00    -0.441 OA
ATOM      8  C   UNL     1       5.003  -2.737  -6.352  0.00  0.00    +0.199 C 
ATOM      9  C   UNL     1       4.005  -3.091  -7.196  0.00  0.00    +0.098 C 
ATOM     10  C   UNL     1       2.586  -3.217  -6.719  0.00  0.00    +0.098 C 
ENDROOT
BRANCH  10  11
ATOM     11  C   UNL     1       2.239  -4.675  -6.563  0.00  0.00    -0.028 A 
ATOM     12  C   UNL     1       2.946  -5.460  -5.671  0.00  0.00    +0.054 A 
ATOM     13  C   UNL     1       2.631  -6.802  -5.525  0.00  0.00    +0.165 A 
ATOM     14  C   UNL     1       1.602  -7.358  -6.275  0.00  0.00    +0.204 A 
ATOM     15  C   UNL     1       0.893  -6.566  -7.170  0.00  0.00    +0.165 A 
ATOM     16  C   UNL     1       1.212  -5.223  -7.307  0.00  0.00    +0.054 A 
BRANCH  15  17
ATOM     17  O   UNL     1      -0.115  -7.105  -7.907  0.00  0.00    -0.491 OA
ATOM     18  C   UNL     1      -0.800  -6.232  -8.807  0.00  0.00    +0.277 C 
ENDBRANCH  15  17
BRANCH  14  19
ATOM     19  O   UNL     1       1.290  -8.675  -6.135  0.00  0.00    -0.488 OA
ATOM     20  C   UNL     1       0.311  -9.008  -5.148  0.00  0.00    +0.277 C 
ENDBRANCH  14  19
BRANCH  13  21
ATOM     21  O   UNL     1       3.328  -7.574  -4.648  0.00  0.00    -0.491 OA
ATOM     22  C   UNL     1       4.372  -6.936  -3.910  0.00  0.00    +0.277 C 
ENDBRANCH  13  21
ENDBRANCH  10  11
BRANCH   8  23
ATOM     23  N   UNL     1       6.283  -2.636  -6.839  0.00  0.00    -0.328 N 
ATOM     24  H   UNL     1       7.008  -2.383  -6.247  0.00  0.00    +0.145 HD
ATOM     25  H   UNL     1       6.461  -2.818  -7.775  0.00  0.00    +0.145 HD
ENDBRANCH   8  23
BRANCH   9  26
ATOM     26  C   UNL     1       4.309  -3.350  -8.572  0.00  0.00    +0.101 C 
ATOM     27  N   UNL     1       4.550  -3.556  -9.663  0.00  0.00    -0.191 NA
ENDBRANCH   9  26
BRANCH   1  28
ATOM     28  O   UNL     1       1.907  -0.609  -1.768  0.00  0.00    -0.423 OA
BRANCH  28  29
ATOM     29  C   UNL     1       1.498  -1.343  -0.722  0.00  0.00    +0.353 C 
ATOM     30  O   UNL     1       1.337  -2.535  -0.845  0.00  0.00    -0.246 OA
BRANCH  29  32
ATOM     31  C   UNL     1       0.060   0.285   0.475  0.00  0.00    +0.064 C 
ATOM     32  C   UNL     1       1.239  -0.682   0.607  0.00  0.00    +0.279 C 
BRANCH  32  33
ATOM     33  O   UNL     1       0.929  -1.679   1.583  0.00  0.00    -0.478 OA
BRANCH  33  34
ATOM     34  C   UNL     1       1.141  -1.354   2.886  0.00  0.00    +0.122 A 
ATOM     35  C   UNL     1       0.917  -2.295   3.881  0.00  0.00    +0.048 A 
ATOM     36  C   UNL     1       1.133  -1.963   5.205  0.00  0.00    +0.042 A 
ATOM     37  C   UNL     1       1.572  -0.693   5.538  0.00  0.00    +0.124 A 
ATOM     38  C   UNL     1       1.795   0.247   4.546  0.00  0.00    +0.042 A 
ATOM     39  C   UNL     1       1.587  -0.084   3.221  0.00  0.00    +0.048 A 
ATOM     40  F   UNL     1       1.782  -0.370   6.833  0.00  0.00    -0.205 F 
ENDBRANCH  33  34
ENDBRANCH  32  33
ENDBRANCH  29  32
ENDBRANCH  28  29
ENDBRANCH   1  28
TORSDOF 11
