REMARK  Name = ZINC23074728
REMARK  17 active torsions:
REMARK  status: ('A' for Active; 'I' for Inactive)
REMARK    1  A    between atoms: C_1  and  C_2
REMARK    2  A    between atoms: C_2  and  C_3
REMARK    3  A    between atoms: C_3  and  C_4
REMARK    4  A    between atoms: C_4  and  N_5
REMARK    5  A    between atoms: C_6  and  N_37
REMARK    6  A    between atoms: C_7  and  N_14
REMARK    7  A    between atoms: N_14  and  C_15
REMARK    8  A    between atoms: C_15  and  C_16
REMARK    9  A    between atoms: C_16  and  C_17
REMARK   10  A    between atoms: C_16  and  C_18
REMARK   11  A    between atoms: C_19  and  C_21
REMARK   12  A    between atoms: C_21  and  N_22
REMARK   13  A    between atoms: N_22  and  C_23
REMARK   14  A    between atoms: N_22  and  S_24
REMARK   15  A    between atoms: S_24  and  C_27
REMARK   16  A    between atoms: C_30  and  N_33
REMARK   17  A    between atoms: C_34  and  C_36
REMARK                            x       y       z     vdW  Elec       q    Type
REMARK                         _______ _______ _______ _____ _____    ______ ____
ROOT
ATOM      1  N   UNL     1      -4.543  -3.799   1.290  0.00  0.00    -0.263 N 
ATOM      2  C   UNL     1      -4.096  -3.397   2.498  0.00  0.00    +0.236 C 
ATOM      3  O   UNL     1      -2.995  -2.898   2.602  0.00  0.00    -0.274 OA
ENDROOT
BRANCH   1   6
ATOM      4  N   UNL     1      -2.734  -2.035  -1.377  0.00  0.00    -0.280 N 
ATOM      5  C   UNL     1      -3.485  -2.250  -0.245  0.00  0.00    +0.127 A 
ATOM      6  C   UNL     1      -3.776  -3.545   0.134  0.00  0.00    +0.140 A 
ATOM      7  C   UNL     1      -3.293  -4.608  -0.653  0.00  0.00    +0.277 A 
ATOM      8  O   UNL     1      -3.535  -5.761  -0.341  0.00  0.00    -0.266 OA
ATOM      9  N   UNL     1      -2.562  -4.342  -1.753  0.00  0.00    -0.273 N 
ATOM     10  H   UNL     1      -2.229  -5.074  -2.296  0.00  0.00    +0.173 HD
ATOM     11  C   UNL     1      -2.293  -3.073  -2.110  0.00  0.00    +0.331 A 
ATOM     12  O   UNL     1      -1.635  -2.861  -3.110  0.00  0.00    -0.246 OA
BRANCH   5  13
ATOM     13  N   UNL     1      -3.940  -1.189   0.500  0.00  0.00    -0.343 N 
ATOM     14  H   UNL     1      -3.657  -0.287   0.282  0.00  0.00    +0.144 HD
ATOM     15  H   UNL     1      -4.544  -1.342   1.244  0.00  0.00    +0.144 HD
ENDBRANCH   5  13
BRANCH   4  16
ATOM     16  C   UNL     1      -2.418  -0.665  -1.792  0.00  0.00    +0.128 C 
BRANCH  16  17
ATOM     17  C   UNL     1      -3.517  -0.148  -2.722  0.00  0.00    +0.021 C 
BRANCH  17  19
ATOM     18  C   UNL     1      -4.286   1.800  -4.085  0.00  0.00    +0.004 C 
ATOM     19  C   UNL     1      -3.187   1.282  -3.155  0.00  0.00    -0.002 C 
ENDBRANCH  17  19
ENDBRANCH  16  17
ENDBRANCH   4  16
ENDBRANCH   1   6
BRANCH   1  20
ATOM     20  C   UNL     1      -5.825  -4.499   1.180  0.00  0.00    +0.117 C 
BRANCH  20  21
ATOM     21  C   UNL     1      -6.946  -3.480   0.965  0.00  0.00    +0.001 C 
ATOM     22  C   UNL     1      -6.776  -2.816  -0.403  0.00  0.00    +0.009 C 
ATOM     23  C   UNL     1      -8.299  -4.190   1.022  0.00  0.00    +0.009 C 
ENDBRANCH  20  21
ENDBRANCH   1  20
BRANCH   2  24
ATOM     24  C   UNL     1      -4.963  -3.569   3.718  0.00  0.00    +0.205 C 
BRANCH  24  25
ATOM     25  N   UNL     1      -4.301  -2.966   4.878  0.00  0.00    -0.171 NA
ATOM     26  C   UNL     1      -4.451  -1.534   5.145  0.00  0.00    +0.132 C 
BRANCH  25  27
ATOM     27  S   UNL     1      -3.382  -3.905   5.886  0.00  0.00    +0.061 S 
ATOM     28  O   UNL     1      -3.349  -3.240   7.142  0.00  0.00    -0.153 OA
ATOM     29  O   UNL     1      -3.852  -5.238   5.742  0.00  0.00    -0.153 OA
BRANCH  27  30
ATOM     30  C   UNL     1      -1.734  -3.882   5.262  0.00  0.00    +0.106 A 
ATOM     31  C   UNL     1      -1.333  -4.830   4.339  0.00  0.00    +0.030 A 
ATOM     32  C   UNL     1      -0.042  -4.815   3.848  0.00  0.00    +0.025 A 
ATOM     33  C   UNL     1       0.853  -3.845   4.281  0.00  0.00    +0.033 A 
ATOM     34  C   UNL     1       0.446  -2.894   5.207  0.00  0.00    +0.025 A 
ATOM     35  C   UNL     1      -0.847  -2.912   5.691  0.00  0.00    +0.030 A 
BRANCH  33  36
ATOM     36  N   UNL     1       2.161  -3.827   3.785  0.00  0.00    -0.286 N 
ATOM     37  C   UNL     1       2.407  -4.215   2.518  0.00  0.00    +0.214 C 
ATOM     38  O   UNL     1       1.486  -4.494   1.779  0.00  0.00    -0.276 OA
ATOM     39  C   UNL     1       3.826  -4.302   2.018  0.00  0.00    +0.109 C 
ATOM     40  H   UNL     1       2.891  -3.536   4.353  0.00  0.00    +0.155 HD
ENDBRANCH  33  36
ENDBRANCH  27  30
ENDBRANCH  25  27
ENDBRANCH  24  25
ENDBRANCH   2  24
TORSDOF 12
