REMARK  Name = ZINC40259942
REMARK  5 active torsions:
REMARK  status: ('A' for Active; 'I' for Inactive)
REMARK    1  A    between atoms: C_1  and  C_2
REMARK    2  A    between atoms: C_6  and  C_9
REMARK    3  A    between atoms: C_7  and  C_8
REMARK    4  A    between atoms: C_9  and  C_11
REMARK    5  A    between atoms: C_9  and  O_22
REMARK                            x       y       z     vdW  Elec       q    Type
REMARK                         _______ _______ _______ _____ _____    ______ ____
ROOT
ATOM      1  C   UNL     1       0.526  -2.675   2.554  0.00  0.00    +0.176 C 
ENDROOT
BRANCH   1   2
ATOM      2  C   UNL     1       1.999  -2.636   2.873  0.00  0.00    +0.007 A 
ATOM      3  C   UNL     1       2.822  -3.666   2.458  0.00  0.00    +0.057 A 
ATOM      4  C   UNL     1       4.178  -3.631   2.748  0.00  0.00    +0.163 A 
ATOM      5  C   UNL     1       4.707  -2.558   3.456  0.00  0.00    +0.163 A 
ATOM      6  C   UNL     1       3.876  -1.529   3.872  0.00  0.00    +0.069 A 
ATOM      7  C   UNL     1       2.525  -1.567   3.575  0.00  0.00    +0.051 A 
ATOM      8 CL   UNL     1       1.488  -0.273   4.090  0.00  0.00    -0.083 Cl
ATOM      9  O   UNL     1       6.036  -2.502   3.745  0.00  0.00    -0.485 OA
ATOM     10  C   UNL     1       6.770  -3.726   3.638  0.00  0.00    +0.270 C 
ATOM     11  C   UNL     1       6.385  -4.404   2.316  0.00  0.00    +0.270 C 
ATOM     12  O   UNL     1       4.975  -4.654   2.335  0.00  0.00    -0.485 OA
ENDBRANCH   1   2
BRANCH   1  18
ATOM     13  C   UNL     1      -1.656   1.241   0.331  0.00  0.00    +0.044 C 
ATOM     14  C   UNL     1      -0.787   0.013   0.251  0.00  0.00    -0.047 A 
ATOM     15  C   UNL     1      -0.235  -0.367  -0.958  0.00  0.00    +0.003 A 
ATOM     16  C   UNL     1       0.563  -1.493  -1.031  0.00  0.00    +0.001 A 
ATOM     17  C   UNL     1       0.809  -2.240   0.106  0.00  0.00    +0.007 A 
ATOM     18  C   UNL     1       0.258  -1.861   1.315  0.00  0.00    -0.012 A 
ATOM     19  C   UNL     1      -0.536  -0.732   1.389  0.00  0.00    -0.042 A 
ATOM     20  C   UNL     1      -1.133  -0.315   2.708  0.00  0.00    +0.044 C 
ENDBRANCH   1  18
BRANCH   1  21
ATOM     21  O   UNL     1       0.123  -4.028   2.331  0.00  0.00    -0.382 OA
ATOM     22  H   UNL     1       0.585  -4.461   1.600  0.00  0.00    +0.211 HD
ENDBRANCH   1  21
TORSDOF 3
