REMARK  Name = ZINC38057675
REMARK  3 active torsions:
REMARK  status: ('A' for Active; 'I' for Inactive)
REMARK    1  A    between atoms: C_5  and  C_7
REMARK    2  A    between atoms: C_7  and  C_9
REMARK    3  A    between atoms: C_7  and  N_19
REMARK                            x       y       z     vdW  Elec       q    Type
REMARK                         _______ _______ _______ _____ _____    ______ ____
ROOT
ATOM      1  C   UNL     1       1.229  -2.186  -0.022  0.00  0.00    -0.012 C 
ENDROOT
BRANCH   1   2
ATOM      2  C   UNL     1       1.469  -2.677  -1.426  0.00  0.00    -0.057 A 
ATOM      3  C   UNL     1       0.425  -2.715  -2.333  0.00  0.00    +0.006 A 
ATOM      4  C   UNL     1       0.646  -3.166  -3.618  0.00  0.00    +0.046 A 
ATOM      5  C   UNL     1       1.915  -3.583  -4.006  0.00  0.00    +0.124 A 
ATOM      6  C   UNL     1       2.958  -3.541  -3.097  0.00  0.00    -0.005 A 
ATOM      7  C   UNL     1       2.732  -3.084  -1.810  0.00  0.00    +0.009 A 
ATOM      8  C   UNL     1       4.351  -3.972  -3.480  0.00  0.00    +0.042 C 
ATOM      9  C   UNL     1       4.297  -4.822  -4.751  0.00  0.00    +0.046 C 
ATOM     10  C   UNL     1       3.426  -4.093  -5.782  0.00  0.00    +0.229 C 
ATOM     11  O   UNL     1       2.092  -4.026  -5.278  0.00  0.00    -0.492 OA
ENDBRANCH   1   2
BRANCH   1  16
ATOM     12  C   UNL     1      -0.017   1.378   0.010  0.00  0.00    +0.000 A 
ATOM     13  C   UNL     1       1.171   2.086   0.002  0.00  0.00    +0.001 A 
ATOM     14  C   UNL     1       2.377   1.411  -0.013  0.00  0.00    +0.014 A 
ATOM     15  C   UNL     1       2.396   0.029  -0.021  0.00  0.00    +0.015 A 
ATOM     16  C   UNL     1       1.208  -0.679  -0.013  0.00  0.00    -0.045 A 
ATOM     17  C   UNL     1       0.002  -0.004   0.002  0.00  0.00    +0.003 A 
ATOM     18  I   UNL     1       4.225  -0.994  -0.044  0.00  0.00    -0.044 I 
ENDBRANCH   1  16
BRANCH   1  19
ATOM     19  N   UNL     1      -0.061  -2.696   0.461  0.00  0.00    +0.385 N 
ATOM     20  H   UNL     1      -0.048  -3.705   0.456  0.00  0.00    -0.089 HD
ATOM     21  H   UNL     1      -0.222  -2.367   1.402  0.00  0.00    -0.089 HD
ATOM     22  H   UNL     1      -0.800  -2.366  -0.141  0.00  0.00    -0.089 HD
ENDBRANCH   1  19
TORSDOF 3
