REMARK  Name = ZINC08755513
REMARK  8 active torsions:
REMARK  status: ('A' for Active; 'I' for Inactive)
REMARK    1  A    between atoms: C_1  and  C_2
REMARK    2  A    between atoms: C_3  and  C_14
REMARK    3  A    between atoms: C_4  and  C_13
REMARK    4  A    between atoms: N_5  and  C_7
REMARK    5  A    between atoms: C_14  and  N_15
REMARK    6  A    between atoms: C_16  and  C_18
REMARK    7  A    between atoms: C_18  and  N_19
REMARK    8  A    between atoms: C_27  and  C_29
REMARK                            x       y       z     vdW  Elec       q    Type
REMARK                         _______ _______ _______ _____ _____    ______ ____
ROOT
ATOM      1  N   UNL     1       1.845   7.186   2.204  0.00  0.00    -0.310 N 
ATOM      2  C   UNL     1       2.330   8.265   2.850  0.00  0.00    +0.231 C 
ATOM      3  O   UNL     1       3.223   8.919   2.353  0.00  0.00    -0.274 OA
ATOM      4  H   UNL     1       1.131   6.664   2.601  0.00  0.00    +0.149 HD
ENDROOT
BRANCH   1   5
ATOM      5  C   UNL     1       2.397   6.803   0.902  0.00  0.00    +0.143 C 
BRANCH   5   8
ATOM      6  C   UNL     1      -0.215   6.762  -0.891  0.00  0.00    +0.068 C 
ATOM      7  C   UNL     1       0.534   5.553  -0.393  0.00  0.00    +0.065 A 
ATOM      8  C   UNL     1       1.688   5.572   0.399  0.00  0.00    +0.013 A 
ATOM      9  C   UNL     1       2.050   4.290   0.636  0.00  0.00    +0.047 A 
ATOM     10  N   UNL     1       1.161   3.488   0.009  0.00  0.00    -0.236 N 
ATOM     11  N   UNL     1       0.218   4.305  -0.627  0.00  0.00    -0.171 NA
ATOM     12  C   UNL     1       3.235   3.839   1.452  0.00  0.00    +0.066 C 
BRANCH  10  13
ATOM     13  C   UNL     1       1.177   2.086   0.002  0.00  0.00    +0.066 A 
ATOM     14  C   UNL     1      -0.017   1.377   0.010  0.00  0.00    +0.028 A 
ATOM     15  C   UNL     1       0.002  -0.004   0.002  0.00  0.00    +0.002 A 
ATOM     16  C   UNL     1       1.208  -0.680  -0.013  0.00  0.00    +0.000 A 
ATOM     17  C   UNL     1       2.398   0.023  -0.021  0.00  0.00    +0.002 A 
ATOM     18  C   UNL     1       2.386   1.404  -0.013  0.00  0.00    +0.028 A 
ENDBRANCH  10  13
ENDBRANCH   5   8
ENDBRANCH   1   5
BRANCH   2  19
ATOM     19  C   UNL     1       1.762   8.660   4.189  0.00  0.00    +0.213 C 
BRANCH  19  20
ATOM     20  N   UNL     1       2.452   9.856   4.678  0.00  0.00    -0.215 N 
ATOM     21  C   UNL     1       2.054  11.120   4.421  0.00  0.00    +0.247 C 
ATOM     22  O   UNL     1       1.094  11.468   3.768  0.00  0.00    -0.273 OA
ATOM     23  C   UNL     1       3.056  12.009   5.122  0.00  0.00    +0.115 C 
ATOM     24  C   UNL     1       2.362  12.861   6.179  0.00  0.00    +0.035 C 
ATOM     25  C   UNL     1       3.397  13.733   6.895  0.00  0.00    +0.003 C 
ATOM     26  C   UNL     1       4.101  14.629   5.874  0.00  0.00    +0.000 C 
ATOM     27  C   UNL     1       4.812  13.760   4.835  0.00  0.00    +0.006 C 
ATOM     28  C   UNL     1       3.783  12.888   4.110  0.00  0.00    +0.018 C 
ATOM     29  C   UNL     1       4.496  12.004   3.085  0.00  0.00    +0.010 C 
ATOM     30  N   UNL     1       3.990  11.066   5.751  0.00  0.00    -0.285 N 
ATOM     31  C   UNL     1       3.552   9.831   5.440  0.00  0.00    +0.310 C 
ATOM     32  O   UNL     1       4.096   8.809   5.809  0.00  0.00    -0.252 OA
ATOM     33  H   UNL     1       4.767  11.290   6.287  0.00  0.00    +0.151 HD
ENDBRANCH  19  20
ENDBRANCH   2  19
TORSDOF 5
