REMARK  Name = ZINC39461348
REMARK  7 active torsions:
REMARK  status: ('A' for Active; 'I' for Inactive)
REMARK    1  A    between atoms: C_1  and  C_2
REMARK    2  A    between atoms: C_7  and  C_8
REMARK    3  A    between atoms: N_10  and  C_11
REMARK    4  A    between atoms: C_16  and  C_24
REMARK    5  A    between atoms: N_26  and  C_27
REMARK    6  A    between atoms: C_27  and  C_28
REMARK    7  A    between atoms: C_28  and  C_29
REMARK                            x       y       z     vdW  Elec       q    Type
REMARK                         _______ _______ _______ _____ _____    ______ ____
ROOT
ATOM      1  C   UNL     1       0.578   0.067   4.894  0.00  0.00    +0.224 C 
ATOM      2  N   UNL     1       0.554  -0.860   6.040  0.00  0.00    -0.320 N 
ATOM      3  C   UNL     1       1.652  -0.910   6.835  0.00  0.00    +0.024 C 
ATOM      4  C   UNL     1       1.742  -1.841   8.047  0.00  0.00    +0.065 C 
ATOM      5  C   UNL     1       3.212  -2.203   8.269  0.00  0.00    +0.088 C 
ATOM      6  C   UNL     1       4.047  -0.940   8.489  0.00  0.00    +0.093 C 
ATOM      7  C   UNL     1       3.915  -0.044   7.274  0.00  0.00    +0.172 C 
ATOM      8  O   UNL     1       4.815   0.702   6.942  0.00  0.00    -0.291 OA
ATOM      9  C   UNL     1       2.724  -0.106   6.548  0.00  0.00    +0.070 C 
ATOM     10  H   UNL     1      -0.222  -1.414   6.220  0.00  0.00    +0.148 HD
ATOM     11  S   UNL     1       2.255   0.800   5.097  0.00  0.00    -0.079 S 
ENDROOT
BRANCH   1  14
ATOM     12  C   UNL     1       0.242   0.021   2.481  0.00  0.00    +0.246 C 
ATOM     13  O   UNL     1       0.135   1.232   2.503  0.00  0.00    -0.270 OA
ATOM     14  N   UNL     1       0.465  -0.656   3.625  0.00  0.00    -0.284 N 
ATOM     15  H   UNL     1       0.551  -1.622   3.607  0.00  0.00    +0.152 HD
BRANCH  12  22
ATOM     16  C   UNL     1      -0.511   1.452   0.082  0.00  0.00    +0.044 C 
ATOM     17  C   UNL     1      -0.234  -0.028   0.036  0.00  0.00    -0.038 A 
ATOM     18  C   UNL     1      -0.334  -0.714  -1.157  0.00  0.00    +0.004 A 
ATOM     19  C   UNL     1      -0.080  -2.073  -1.200  0.00  0.00    +0.000 A 
ATOM     20  C   UNL     1       0.275  -2.754  -0.049  0.00  0.00    +0.001 A 
ATOM     21  C   UNL     1       0.378  -2.080   1.150  0.00  0.00    +0.013 A 
ATOM     22  C   UNL     1       0.128  -0.708   1.200  0.00  0.00    +0.040 A 
ENDBRANCH  12  22
ENDBRANCH   1  14
BRANCH   5  23
ATOM     23  C   UNL     1       3.328  -3.092   9.480  0.00  0.00    +0.217 C 
ATOM     24  O   UNL     1       2.334  -3.403  10.101  0.00  0.00    -0.275 OA
ATOM     25  N   UNL     1       4.536  -3.541   9.872  0.00  0.00    -0.315 N 
ATOM     26  H   UNL     1       5.331  -3.292   9.376  0.00  0.00    +0.149 HD
BRANCH  25  27
ATOM     27  C   UNL     1       4.649  -4.406  11.050  0.00  0.00    +0.109 C 
BRANCH  27  28
ATOM     28  C   UNL     1       6.118  -4.771  11.275  0.00  0.00    +0.056 C 
BRANCH  28  29
ATOM     29  C   UNL     1       6.234  -5.660  12.486  0.00  0.00    -0.021 A 
ATOM     30  C   UNL     1       6.070  -7.115  12.518  0.00  0.00    +0.003 A 
ATOM     31  C   UNL     1       5.781  -8.080  11.551  0.00  0.00    +0.010 A 
ATOM     32  C   UNL     1       5.693  -9.396  11.911  0.00  0.00    +0.001 A 
ATOM     33  C   UNL     1       5.888  -9.781  13.230  0.00  0.00    +0.002 A 
ATOM     34  C   UNL     1       6.173  -8.845  14.200  0.00  0.00    +0.026 A 
ATOM     35  C   UNL     1       6.268  -7.500  13.857  0.00  0.00    +0.047 A 
ATOM     36  N   UNL     1       6.532  -6.355  14.573  0.00  0.00    -0.360 N 
ATOM     37  C   UNL     1       6.514  -5.270  13.740  0.00  0.00    +0.087 A 
ATOM     38  H   UNL     1       6.710  -6.322  15.527  0.00  0.00    +0.165 HD
ENDBRANCH  28  29
ENDBRANCH  27  28
ENDBRANCH  25  27
ENDBRANCH   5  23
TORSDOF 6
