REMARK  Name = ZINC51267630
REMARK  7 active torsions:
REMARK  status: ('A' for Active; 'I' for Inactive)
REMARK    1  A    between atoms: C_1  and  C_2
REMARK    2  A    between atoms: C_2  and  C_3
REMARK    3  A    between atoms: C_2  and  C_4
REMARK    4  A    between atoms: C_2  and  N_21
REMARK    5  A    between atoms: C_4  and  N_5
REMARK    6  A    between atoms: C_12  and  C_15
REMARK    7  A    between atoms: N_17  and  C_18
REMARK                            x       y       z     vdW  Elec       q    Type
REMARK                         _______ _______ _______ _____ _____    ______ ____
ROOT
ATOM      1  N   UNL     1      -1.897  -1.469  -0.223  0.00  0.00    -0.301 N 
ATOM      2  C   UNL     1      -3.199  -1.788  -0.363  0.00  0.00    +0.302 C 
ATOM      3  O   UNL     1      -4.028  -0.911  -0.508  0.00  0.00    -0.253 OA
ATOM      4  N   UNL     1      -3.582  -3.080  -0.343  0.00  0.00    -0.285 N 
ATOM      5  C   UNL     1      -2.583  -4.156  -0.279  0.00  0.00    +0.109 C 
ATOM      6  C   UNL     1      -2.836  -5.134  -1.430  0.00  0.00    +0.020 C 
ATOM      7  C   UNL     1      -4.287  -5.619  -1.373  0.00  0.00    +0.016 C 
ATOM      8  C   UNL     1      -5.232  -4.426  -1.535  0.00  0.00    +0.092 C 
ATOM      9  C   UNL     1      -5.006  -3.440  -0.379  0.00  0.00    +0.122 C 
ATOM     10  H   UNL     1      -1.227  -2.169  -0.185  0.00  0.00    +0.150 HD
ENDROOT
BRANCH   8  11
ATOM     11  C   UNL     1      -6.659  -4.908  -1.512  0.00  0.00    +0.218 C 
ATOM     12  O   UNL     1      -6.898  -6.090  -1.378  0.00  0.00    -0.275 OA
ATOM     13  N   UNL     1      -7.671  -4.027  -1.639  0.00  0.00    -0.312 N 
ATOM     14  H   UNL     1      -7.480  -3.082  -1.746  0.00  0.00    +0.149 HD
BRANCH  13  15
ATOM     15  C   UNL     1      -9.059  -4.496  -1.616  0.00  0.00    +0.073 C 
ATOM     16  C   UNL     1     -10.020  -3.908  -2.651  0.00  0.00    +0.024 C 
ATOM     17  C   UNL     1     -10.134  -3.499  -1.181  0.00  0.00    +0.024 C 
ENDBRANCH  13  15
ENDBRANCH   8  11
BRANCH   1  18
ATOM     18  C   UNL     1      -1.494  -0.064  -0.127  0.00  0.00    +0.093 C 
BRANCH  18  20
ATOM     19  C   UNL     1       0.447   1.489   0.126  0.00  0.00    -0.008 C 
ATOM     20  C   UNL     1       0.026   0.022   0.026  0.00  0.00    -0.055 C 
ATOM     21  C   UNL     1       0.453  -0.719   1.294  0.00  0.00    -0.008 C 
BRANCH  20  22
ATOM     22  N   UNL     1       0.671  -0.595  -1.142  0.00  0.00    +0.387 N 
ATOM     23  C   UNL     1       2.125  -0.391  -1.065  0.00  0.00    -0.073 C 
ATOM     24  C   UNL     1       2.799  -1.288  -2.105  0.00  0.00    +0.017 C 
ATOM     25  C   UNL     1       2.149  -1.086  -3.450  0.00  0.00    -0.048 A 
ATOM     26  C   UNL     1       2.814  -1.530  -4.582  0.00  0.00    +0.004 A 
ATOM     27  C   UNL     1       2.248  -1.366  -5.831  0.00  0.00    +0.000 A 
ATOM     28  C   UNL     1       1.013  -0.757  -5.952  0.00  0.00    +0.000 A 
ATOM     29  C   UNL     1       0.351  -0.314  -4.824  0.00  0.00    +0.002 A 
ATOM     30  C   UNL     1       0.918  -0.476  -3.569  0.00  0.00    -0.061 A 
ATOM     31  C   UNL     1       0.165   0.030  -2.368  0.00  0.00    -0.042 C 
ATOM     32  H   UNL     1       0.467  -1.583  -1.157  0.00  0.00    -0.080 HD
ENDBRANCH  20  22
ENDBRANCH  18  20
ENDBRANCH   1  18
TORSDOF 5
