REMARK  Name = ZINC08915508
REMARK  7 active torsions:
REMARK  status: ('A' for Active; 'I' for Inactive)
REMARK    1  A    between atoms: C_4  and  O_7
REMARK    2  A    between atoms: O_7  and  C_8
REMARK    3  A    between atoms: C_12  and  C_14
REMARK    4  A    between atoms: C_16  and  C_28
REMARK    5  A    between atoms: C_18  and  C_23
REMARK    6  A    between atoms: C_18  and  O_27
REMARK    7  A    between atoms: C_28  and  C_30
REMARK                            x       y       z     vdW  Elec       q    Type
REMARK                         _______ _______ _______ _____ _____    ______ ____
ROOT
ATOM      1  C   UNL     1       6.072  -4.637   0.426  0.00  0.00    +0.120 C 
ATOM      2  C   UNL     1       6.348  -5.396   1.728  0.00  0.00    +0.145 C 
ATOM      3  C   UNL     1       7.569  -6.298   1.518  0.00  0.00    +0.243 C 
ATOM      4  N   UNL     1       7.329  -7.170   0.367  0.00  0.00    -0.264 N 
ATOM      5  C   UNL     1       6.539  -6.786  -0.646  0.00  0.00    +0.302 C 
ATOM      6  O   UNL     1       6.381  -7.544  -1.584  0.00  0.00    -0.253 OA
ATOM      7  N   UNL     1       5.914  -5.598  -0.667  0.00  0.00    -0.292 N 
ATOM      8  H   UNL     1       7.751  -8.043   0.336  0.00  0.00    +0.153 HD
ATOM      9  H   UNL     1       5.347  -5.372  -1.421  0.00  0.00    +0.151 HD
ENDROOT
BRANCH   1  14
ATOM     10  C   UNL     1       3.705  -1.792   1.190  0.00  0.00    +0.129 A 
ATOM     11  C   UNL     1       2.484  -2.350   0.839  0.00  0.00    +0.046 A 
ATOM     12  C   UNL     1       2.429  -3.643   0.356  0.00  0.00    +0.004 A 
ATOM     13  C   UNL     1       3.591  -4.382   0.223  0.00  0.00    +0.006 A 
ATOM     14  C   UNL     1       4.809  -3.829   0.572  0.00  0.00    -0.023 A 
ATOM     15  C   UNL     1       4.870  -2.534   1.049  0.00  0.00    +0.051 A 
BRANCH  10  16
ATOM     16  O   UNL     1       3.762  -0.520   1.664  0.00  0.00    -0.456 OA
BRANCH  16  20
ATOM     17  C   UNL     1       2.857   0.106   5.640  0.00  0.00    +0.000 A 
ATOM     18  C   UNL     1       2.771  -1.166   5.104  0.00  0.00    +0.004 A 
ATOM     19  C   UNL     1       3.073  -1.378   3.773  0.00  0.00    +0.046 A 
ATOM     20  C   UNL     1       3.463  -0.314   2.974  0.00  0.00    +0.128 A 
ATOM     21  C   UNL     1       3.549   0.962   3.513  0.00  0.00    +0.046 A 
ATOM     22  C   UNL     1       3.246   1.168   4.845  0.00  0.00    +0.004 A 
ENDBRANCH  16  20
ENDBRANCH  10  16
ENDBRANCH   1  14
BRANCH   3  23
ATOM     23  C   UNL     1       8.804  -5.434   1.257  0.00  0.00    +0.436 C 
ATOM     24  F   UNL     1       9.028  -4.596   2.354  0.00  0.00    -0.166 F 
ATOM     25  F   UNL     1       9.918  -6.259   1.065  0.00  0.00    -0.166 F 
ATOM     26  F   UNL     1       8.597  -4.657   0.112  0.00  0.00    -0.166 F 
ENDBRANCH   3  23
BRANCH   3  27
ATOM     27  O   UNL     1       7.780  -7.096   2.685  0.00  0.00    -0.364 OA
ATOM     28  H   UNL     1       8.539  -7.692   2.622  0.00  0.00    +0.212 HD
ENDBRANCH   3  27
BRANCH   2  29
ATOM     29  C   UNL     1       5.150  -6.236   2.088  0.00  0.00    +0.179 C 
ATOM     30  O   UNL     1       4.500  -6.774   1.214  0.00  0.00    -0.291 OA
BRANCH  29  31
ATOM     31  C   UNL     1       4.782  -6.397   3.442  0.00  0.00    +0.055 A 
ATOM     32  C   UNL     1       3.727  -7.126   3.984  0.00  0.00    +0.019 A 
ATOM     33  C   UNL     1       3.623  -7.093   5.351  0.00  0.00    +0.008 A 
ATOM     34  C   UNL     1       4.526  -6.375   6.066  0.00  0.00    +0.046 A 
ATOM     35  S   UNL     1       5.552  -5.727   4.904  0.00  0.00    -0.094 S 
ENDBRANCH  29  31
ENDBRANCH   2  29
TORSDOF 7
