REMARK  Name = ZINC61841353
REMARK  6 active torsions:
REMARK  status: ('A' for Active; 'I' for Inactive)
REMARK    1  A    between atoms: C_4  and  C_9
REMARK    2  A    between atoms: C_5  and  C_7
REMARK    3  A    between atoms: C_7  and  N_8
REMARK    4  A    between atoms: C_9  and  N_10
REMARK    5  A    between atoms: N_10  and  S_11
REMARK    6  A    between atoms: S_11  and  C_14
REMARK                            x       y       z     vdW  Elec       q    Type
REMARK                         _______ _______ _______ _____ _____    ______ ____
ROOT
ATOM      1  C   UNL     1       3.711  -0.707  -0.038  0.00  0.00    +0.141 C 
ENDROOT
BRANCH   1   5
ATOM      2  C   UNL     1      -0.017   1.378   0.010  0.00  0.00    +0.000 A 
ATOM      3  C   UNL     1       1.171   2.085   0.002  0.00  0.00    +0.000 A 
ATOM      4  C   UNL     1       2.377   1.411  -0.013  0.00  0.00    +0.005 A 
ATOM      5  C   UNL     1       2.396   0.028  -0.020  0.00  0.00    -0.031 A 
ATOM      6  C   UNL     1       1.209  -0.679  -0.012  0.00  0.00    -0.060 A 
ATOM      7  C   UNL     1       0.002  -0.004   0.002  0.00  0.00    +0.002 A 
BRANCH   6   8
ATOM      8  C   UNL     1       1.229  -2.186  -0.020  0.00  0.00    -0.050 C 
BRANCH   8   9
ATOM      9  N   UNL     1       1.490  -2.680   1.338  0.00  0.00    +0.381 N 
ATOM     10  H   UNL     1       2.383  -2.333   1.656  0.00  0.00    -0.090 HD
ATOM     11  H   UNL     1       0.764  -2.357   1.959  0.00  0.00    -0.090 HD
ATOM     12  H   UNL     1       1.504  -3.689   1.332  0.00  0.00    -0.090 HD
ENDBRANCH   8   9
ENDBRANCH   6   8
ENDBRANCH   1   5
BRANCH   1  13
ATOM     13  N   UNL     1       4.006  -1.148  -1.403  0.00  0.00    -0.186 NA
ATOM     14  H   UNL     1       3.306  -1.147  -2.075  0.00  0.00    +0.148 HD
BRANCH  13  15
ATOM     15  S   UNL     1       5.534  -1.648  -1.800  0.00  0.00    +0.061 S 
ATOM     16  O   UNL     1       5.493  -2.032  -3.168  0.00  0.00    -0.153 OA
ATOM     17  O   UNL     1       6.426  -0.654  -1.314  0.00  0.00    -0.153 OA
BRANCH  15  18
ATOM     18  C   UNL     1       5.860  -3.112  -0.876  0.00  0.00    +0.132 A 
ATOM     19  C   UNL     1       6.049  -4.322  -1.520  0.00  0.00    +0.057 A 
ATOM     20  C   UNL     1       6.298  -5.429  -0.777  0.00  0.00    +0.081 A 
ATOM     21  S   UNL     1       6.272  -4.775   0.883  0.00  0.00    -0.063 S 
ATOM     22  C   UNL     1       5.936  -3.069   0.478  0.00  0.00    +0.106 A 
ATOM     23 CL   UNL     1       5.751  -1.709   1.540  0.00  0.00    -0.074 Cl
ATOM     24 CL   UNL     1       6.572  -7.060  -1.306  0.00  0.00    -0.076 Cl
ENDBRANCH  15  18
ENDBRANCH  13  15
ENDBRANCH   1  13
TORSDOF 6
