REMARK  Name = ZINC11871221
REMARK  6 active torsions:
REMARK  status: ('A' for Active; 'I' for Inactive)
REMARK    1  A    between atoms: C_1  and  N_2
REMARK    2  A    between atoms: C_5  and  C_7
REMARK    3  A    between atoms: N_9  and  C_10
REMARK    4  A    between atoms: C_10  and  C_11
REMARK    5  A    between atoms: C_21  and  C_22
REMARK    6  A    between atoms: C_21  and  N_60
REMARK                            x       y       z     vdW  Elec       q    Type
REMARK                         _______ _______ _______ _____ _____    ______ ____
ROOT
ATOM      1  C   UNL     1      -0.013   1.086   0.008  0.00  0.00    +0.136 C 
ATOM      2  C   UNL     1      -0.663   1.622  -1.292  0.00  0.00    +0.036 C 
ATOM      3  C   UNL     1       0.541   1.562  -2.272  0.00  0.00    +0.037 C 
ATOM      4  C   UNL     1       1.731   1.884  -1.345  0.00  0.00    +0.067 C 
ATOM      5  O   UNL     1       1.328   1.603  -0.002  0.00  0.00    -0.369 OA
ATOM      6  C   UNL     1       2.926   1.011  -1.728  0.00  0.00    +0.016 C 
ATOM      7  C   UNL     1       4.124   1.383  -0.850  0.00  0.00    -0.076 C 
ATOM      8  C   UNL     1       3.324   3.659  -0.614  0.00  0.00    -0.076 C 
ATOM      9  C   UNL     1       2.100   3.361  -1.484  0.00  0.00    +0.016 C 
ATOM     10  N   UNL     1       4.449   2.810  -1.062  0.00  0.00    +0.383 N 
ATOM     11  H   UNL     1       4.608   2.970  -2.063  0.00  0.00    -0.081 HD
ENDROOT
BRANCH   1  12
ATOM     12  C   UNL     1      -0.771   1.599   1.234  0.00  0.00    +0.136 C 
BRANCH  12  15
ATOM     13  C   UNL     1      -0.616   1.437   3.660  0.00  0.00    +0.264 C 
ATOM     14  O   UNL     1      -1.605   2.139   3.741  0.00  0.00    -0.268 OA
ATOM     15  N   UNL     1      -0.119   1.109   2.451  0.00  0.00    -0.308 N 
ATOM     16  H   UNL     1       0.670   0.548   2.387  0.00  0.00    +0.149 HD
BRANCH  13  21
ATOM     17  C   UNL     1       2.545  -0.879   6.617  0.00  0.00    +0.172 C 
ATOM     18  N   UNL     1       1.412  -0.062   6.176  0.00  0.00    -0.274 N 
ATOM     19  C   UNL     1       0.532   0.547   7.000  0.00  0.00    +0.109 A 
ATOM     20  C   UNL     1      -0.361   1.200   6.220  0.00  0.00    +0.054 A 
ATOM     21  C   UNL     1       0.040   0.942   4.888  0.00  0.00    +0.147 A 
ATOM     22  N   UNL     1       1.109   0.173   4.950  0.00  0.00    -0.167 NA
ENDBRANCH  13  21
ENDBRANCH  12  15
ENDBRANCH   1  12
BRANCH  10  23
ATOM     23  C   UNL     1       5.675   3.164  -0.318  0.00  0.00    -0.041 C 
BRANCH  23  24
ATOM     24  C   UNL     1       6.731   2.123  -0.583  0.00  0.00    -0.038 A 
ATOM     25  C   UNL     1       6.981   1.153   0.338  0.00  0.00    +0.004 A 
ATOM     26  C   UNL     1       7.953   0.180   0.113  0.00  0.00    +0.001 A 
ATOM     27  C   UNL     1       8.682   0.174  -1.038  0.00  0.00    +0.010 A 
ATOM     28  C   UNL     1       8.451   1.160  -2.011  0.00  0.00    +0.001 A 
ATOM     29  C   UNL     1       7.458   2.146  -1.786  0.00  0.00    +0.072 A 
ATOM     30  N   UNL     1       7.239   3.090  -2.707  0.00  0.00    -0.255 NA
ATOM     31  C   UNL     1       7.917   3.119  -3.828  0.00  0.00    +0.111 A 
ATOM     32  C   UNL     1       8.902   2.176  -4.114  0.00  0.00    +0.020 A 
ATOM     33  C   UNL     1       9.181   1.188  -3.213  0.00  0.00    +0.011 A 
ENDBRANCH  23  24
ENDBRANCH  10  23
TORSDOF 5
