REMARK  Name = ZINC55335719
REMARK  4 active torsions:
REMARK  status: ('A' for Active; 'I' for Inactive)
REMARK    1  A    between atoms: C_5  and  C_7
REMARK    2  A    between atoms: C_7  and  C_8
REMARK    3  A    between atoms: C_10  and  C_13
REMARK    4  A    between atoms: C_18  and  N_19
REMARK                            x       y       z     vdW  Elec       q    Type
REMARK                         _______ _______ _______ _____ _____    ______ ____
ROOT
ATOM      1  C   UNL     1       1.317  -2.478   1.433  0.00  0.00    +0.083 A 
ATOM      2  N   UNL     1       0.386  -2.796   2.294  0.00  0.00    -0.244 NA
ATOM      3  C   UNL     1       0.683  -3.371   3.450  0.00  0.00    +0.080 A 
ATOM      4  C   UNL     1       2.010  -3.611   3.690  0.00  0.00    +0.075 A 
ATOM      5  S   UNL     1       2.736  -2.977   2.187  0.00  0.00    -0.080 S 
ENDROOT
BRANCH   3   6
ATOM      6  C   UNL     1      -0.365  -3.735   4.434  0.00  0.00    +0.021 A 
ATOM      7  C   UNL     1      -0.215  -3.393   5.776  0.00  0.00    +0.012 A 
ATOM      8  C   UNL     1      -1.195  -3.733   6.687  0.00  0.00    +0.001 A 
ATOM      9  C   UNL     1      -2.326  -4.415   6.274  0.00  0.00    +0.002 A 
ATOM     10  C   UNL     1      -2.486  -4.760   4.946  0.00  0.00    +0.023 A 
ATOM     11  C   UNL     1      -1.513  -4.420   4.017  0.00  0.00    +0.034 A 
BRANCH  11  12
ATOM     12  N   UNL     1      -1.675  -4.763   2.674  0.00  0.00    -0.357 N 
ATOM     13  H   UNL     1      -0.953  -4.613   2.044  0.00  0.00    +0.142 HD
ATOM     14  H   UNL     1      -2.510  -5.152   2.370  0.00  0.00    +0.142 HD
ENDBRANCH  11  12
ENDBRANCH   3   6
BRANCH   1  15
ATOM     15  C   UNL     1       1.156  -1.826   0.084  0.00  0.00    +0.099 C 
BRANCH  15  20
ATOM     16  C   UNL     1       0.141   1.786   0.506  0.00  0.00    +0.000 A 
ATOM     17  C   UNL     1       1.370   2.419   0.518  0.00  0.00    +0.001 A 
ATOM     18  C   UNL     1       2.530   1.679   0.390  0.00  0.00    +0.015 A 
ATOM     19  C   UNL     1       2.461   0.304   0.249  0.00  0.00    +0.021 A 
ATOM     20  C   UNL     1       1.232  -0.329   0.237  0.00  0.00    -0.027 A 
ATOM     21  C   UNL     1       0.072   0.412   0.365  0.00  0.00    +0.005 A 
ATOM     22 BR   UNL     1       4.048  -0.709   0.073  0.00  0.00    -0.050 Br
ENDBRANCH  15  20
ENDBRANCH   1  15
TORSDOF 4
