REMARK  Name = ZINC38744387
REMARK  5 active torsions:
REMARK  status: ('A' for Active; 'I' for Inactive)
REMARK    1  A    between atoms: C_1  and  C_2
REMARK    2  A    between atoms: C_2  and  C_3
REMARK    3  A    between atoms: C_2  and  C_4
REMARK    4  A    between atoms: C_6  and  C_10
REMARK    5  A    between atoms: C_14  and  C_19
REMARK                            x       y       z     vdW  Elec       q    Type
REMARK                         _______ _______ _______ _____ _____    ______ ____
ROOT
ATOM      1  C   UNL     1       1.690  -2.982   3.249  0.00  0.00    +0.182 C 
ATOM      2  N   UNL     1       2.789  -3.209   4.224  0.00  0.00    -0.265 N 
ATOM      3  N   UNL     1       3.677  -4.183   3.874  0.00  0.00    -0.220 N 
ATOM      4  C   UNL     1       4.608  -4.996   4.514  0.00  0.00    +0.183 A 
ATOM      5  N   UNL     1       5.202  -5.719   3.598  0.00  0.00    -0.127 NA
ATOM      6  N   UNL     1       4.716  -5.446   2.438  0.00  0.00    -0.120 NA
ATOM      7  C   UNL     1       3.787  -4.546   2.556  0.00  0.00    +0.211 A 
ATOM      8  S   UNL     1       2.549  -3.569   1.726  0.00  0.00    -0.058 S 
ATOM      9  H   UNL     1       3.266  -2.347   4.440  0.00  0.00    +0.168 HD
ENDROOT
BRANCH   4  10
ATOM     10  C   UNL     1       4.879  -5.035   5.966  0.00  0.00    +0.035 A 
ATOM     11  C   UNL     1       4.165  -4.208   6.835  0.00  0.00    +0.013 A 
ATOM     12  C   UNL     1       4.423  -4.249   8.190  0.00  0.00    +0.001 A 
ATOM     13  C   UNL     1       5.387  -5.107   8.688  0.00  0.00    +0.001 A 
ATOM     14  C   UNL     1       6.099  -5.929   7.834  0.00  0.00    +0.016 A 
ATOM     15  C   UNL     1       5.847  -5.903   6.476  0.00  0.00    +0.029 A 
ATOM     16 BR   UNL     1       6.815  -7.033   5.310  0.00  0.00    -0.050 Br
ENDBRANCH   4  10
BRANCH   1  19
ATOM     17  C   UNL     1       0.731  -0.503   1.223  0.00  0.00    +0.064 C 
ATOM     18  C   UNL     1       0.194  -1.291   2.157  0.00  0.00    +0.029 C 
ATOM     19  C   UNL     1       1.322  -1.500   3.152  0.00  0.00    +0.185 C 
ATOM     20  N   UNL     1       2.427  -0.722   2.567  0.00  0.00    -0.177 NA
ATOM     21  N   UNL     1       2.019  -0.219   1.517  0.00  0.00    -0.158 NA
BRANCH  17  23
ATOM     22  C   UNL     1      -0.019   1.526   0.010  0.00  0.00    +0.014 C 
ATOM     23  C   UNL     1       0.002  -0.004   0.002  0.00  0.00    +0.033 C 
ATOM     24  C   UNL     1       0.718  -0.497  -1.257  0.00  0.00    +0.014 C 
ENDBRANCH  17  23
ENDBRANCH   1  19
TORSDOF 3
