REMARK  Name = ZINC65579679
REMARK  8 active torsions:
REMARK  status: ('A' for Active; 'I' for Inactive)
REMARK    1  A    between atoms: C_1  and  C_2
REMARK    2  A    between atoms: C_2  and  C_3
REMARK    3  A    between atoms: C_3  and  C_4
REMARK    4  A    between atoms: C_4  and  C_5
REMARK    5  A    between atoms: C_5  and  C_6
REMARK    6  A    between atoms: C_5  and  N_25
REMARK    7  A    between atoms: N_8  and  C_9
REMARK    8  A    between atoms: C_13  and  C_15
REMARK                            x       y       z     vdW  Elec       q    Type
REMARK                         _______ _______ _______ _____ _____    ______ ____
ROOT
ATOM      1  C   UNL     1      -0.166  -3.996  -4.406  0.00  0.00    +0.238 C 
ATOM      2  O   UNL     1      -0.807  -4.603  -5.237  0.00  0.00    -0.273 OA
ATOM      3  N   UNL     1       0.401  -4.657  -3.377  0.00  0.00    -0.284 N 
ATOM      4  H   UNL     1       0.976  -4.185  -2.755  0.00  0.00    +0.155 HD
ENDROOT
BRANCH   3   5
ATOM      5  C   UNL     1       0.161  -6.025  -3.208  0.00  0.00    +0.034 A 
ATOM      6  C   UNL     1       1.097  -6.819  -2.555  0.00  0.00    +0.023 A 
ATOM      7  C   UNL     1       0.864  -8.171  -2.385  0.00  0.00    +0.002 A 
ATOM      8  C   UNL     1      -0.299  -8.741  -2.862  0.00  0.00    +0.012 A 
ATOM      9  C   UNL     1      -1.245  -7.952  -3.519  0.00  0.00    +0.021 A 
ATOM     10  C   UNL     1      -1.012  -6.587  -3.685  0.00  0.00    +0.035 A 
BRANCH   9  11
ATOM     11  C   UNL     1      -2.492  -8.561  -4.031  0.00  0.00    +0.164 A 
ATOM     12  N   UNL     1      -3.600  -7.927  -4.353  0.00  0.00    -0.129 NA
ATOM     13  N   UNL     1      -4.478  -8.771  -4.769  0.00  0.00    -0.134 NA
ATOM     14  C   UNL     1      -3.985  -9.977  -4.740  0.00  0.00    +0.134 A 
ATOM     15  N   UNL     1      -2.714  -9.886  -4.266  0.00  0.00    -0.311 N 
ATOM     16  C   UNL     1      -1.787 -10.995  -4.040  0.00  0.00    +0.125 C 
ATOM     17  C   UNL     1      -2.114 -12.135  -5.010  0.00  0.00    +0.022 C 
ATOM     18  C   UNL     1      -3.145 -13.069  -4.378  0.00  0.00    +0.002 C 
ATOM     19  C   UNL     1      -4.443 -12.319  -4.092  0.00  0.00    +0.008 C 
ATOM     20  C   UNL     1      -4.670 -11.252  -5.159  0.00  0.00    +0.076 C 
ENDBRANCH   9  11
ENDBRANCH   3   5
BRANCH   1  21
ATOM     21  C   UNL     1      -0.004  -2.502  -4.522  0.00  0.00    +0.161 C 
BRANCH  21  22
ATOM     22  N   UNL     1      -1.055  -1.963  -5.389  0.00  0.00    -0.288 N 
ATOM     23  C   UNL     1      -1.154  -2.380  -6.667  0.00  0.00    +0.298 C 
ATOM     24  O   UNL     1      -0.372  -3.204  -7.100  0.00  0.00    -0.253 OA
ATOM     25  N   UNL     1      -2.121  -1.884  -7.465  0.00  0.00    -0.313 N 
ATOM     26  H   UNL     1      -1.679  -1.306  -5.044  0.00  0.00    +0.151 HD
ATOM     27  H   UNL     1      -2.745  -1.227  -7.119  0.00  0.00    +0.146 HD
ATOM     28  H   UNL     1      -2.192  -2.185  -8.384  0.00  0.00    +0.146 HD
ENDBRANCH  21  22
BRANCH  21  29
ATOM     29  C   UNL     1       1.367  -2.183  -5.123  0.00  0.00    +0.032 C 
BRANCH  29  30
ATOM     30  C   UNL     1       1.582  -0.668  -5.126  0.00  0.00    +0.002 C 
BRANCH  30  32
ATOM     31  C   UNL     1       3.168   1.165  -5.730  0.00  0.00    +0.004 C 
ATOM     32  C   UNL     1       2.953  -0.349  -5.727  0.00  0.00    -0.003 C 
ENDBRANCH  30  32
ENDBRANCH  29  30
ENDBRANCH  21  29
ENDBRANCH   1  21
TORSDOF 7
