REMARK  Name = ZINC11173789
REMARK  3 active torsions:
REMARK  status: ('A' for Active; 'I' for Inactive)
REMARK    1  A    between atoms: C_1  and  C_2
REMARK    2  A    between atoms: C_11  and  N_15
REMARK    3  A    between atoms: C_18  and  C_21
REMARK                            x       y       z     vdW  Elec       q    Type
REMARK                         _______ _______ _______ _____ _____    ______ ____
ROOT
ATOM      1  C   UNL     1      -1.060   9.371  -1.265  0.00  0.00    +0.008 C 
ATOM      2  C   UNL     1      -0.756   7.987  -0.688  0.00  0.00    -0.009 C 
ATOM      3  C   UNL     1       0.523   7.435  -1.322  0.00  0.00    +0.008 C 
ATOM      4  C   UNL     1       0.969   6.174  -0.581  0.00  0.00    +0.037 C 
ATOM      5  C   UNL     1      -0.205   5.201  -0.512  0.00  0.00    -0.025 A 
ATOM      6  C   UNL     1      -1.468   5.631  -0.709  0.00  0.00    -0.004 A 
ATOM      7  S   UNL     1      -2.481   4.186  -0.539  0.00  0.00    -0.073 S 
ATOM      8  C   UNL     1      -1.204   3.002  -0.203  0.00  0.00    +0.114 A 
ATOM      9  C   UNL     1      -0.025   3.775  -0.235  0.00  0.00    +0.051 A 
ATOM     10  C   UNL     1       1.180   3.060   0.007  0.00  0.00    +0.133 A 
ATOM     11  N   UNL     1       1.121   1.758   0.241  0.00  0.00    -0.220 NA
ATOM     12  C   UNL     1      -0.022   1.098   0.257  0.00  0.00    +0.224 A 
ATOM     13  N   UNL     1      -1.172   1.705   0.033  0.00  0.00    -0.228 NA
ATOM     14  C   UNL     1      -1.915   7.030  -1.005  0.00  0.00    +0.046 C 
ENDROOT
BRANCH  10  15
ATOM     15  N   UNL     1       2.398   3.716  -0.001  0.00  0.00    -0.317 N 
ATOM     16  C   UNL     1       3.445   2.874  -0.596  0.00  0.00    +0.087 C 
ATOM     17  C   UNL     1       4.755   3.663  -0.660  0.00  0.00    -0.062 C 
ATOM     18  C   UNL     1       4.086   4.932   1.289  0.00  0.00    +0.033 C 
ATOM     19  C   UNL     1       2.776   4.143   1.353  0.00  0.00    +0.100 C 
ATOM     20  N   UNL     1       5.142   4.087   0.699  0.00  0.00    +0.389 N 
ATOM     21  H   UNL     1       6.016   4.622   0.651  0.00  0.00    -0.085 HD
ATOM     22  H   UNL     1       5.280   3.257   1.287  0.00  0.00    -0.085 HD
BRANCH  18  23
ATOM     23  C   UNL     1       4.497   5.337   2.681  0.00  0.00    +0.198 C 
ATOM     24  O   UNL     1       5.344   4.702   3.273  0.00  0.00    -0.278 OA
ATOM     25  N   UNL     1       3.924   6.406   3.269  0.00  0.00    -0.331 N 
ATOM     26  H   UNL     1       3.247   6.914   2.796  0.00  0.00    +0.145 HD
ATOM     27  H   UNL     1       4.189   6.667   4.165  0.00  0.00    +0.145 HD
ENDBRANCH  18  23
ENDBRANCH  10  15
TORSDOF 2
