REMARK  Name = ZINC25586038
REMARK  16 active torsions:
REMARK  status: ('A' for Active; 'I' for Inactive)
REMARK    1  A    between atoms: C_1  and  C_2
REMARK    2  A    between atoms: C_2  and  C_3
REMARK    3  A    between atoms: C_2  and  C_4
REMARK    4  A    between atoms: C_4  and  N_5
REMARK    5  A    between atoms: N_5  and  C_6
REMARK    6  A    between atoms: N_5  and  C_36
REMARK    7  A    between atoms: C_6  and  C_7
REMARK    8  A    between atoms: C_7  and  C_9
REMARK    9  A    between atoms: C_7  and  C_29
REMARK   10  A    between atoms: C_9  and  C_11
REMARK   11  A    between atoms: C_9  and  C_17
REMARK   12  A    between atoms: C_29  and  C_35
REMARK   13  A    between atoms: N_30  and  N_31
REMARK   14  A    between atoms: C_36  and  C_37
REMARK   15  A    between atoms: C_37  and  C_38
REMARK   16  A    between atoms: C_37  and  C_39
REMARK                            x       y       z     vdW  Elec       q    Type
REMARK                         _______ _______ _______ _____ _____    ______ ____
ROOT
ATOM      1  C   UNL     1      -4.861   0.083  -2.507  0.00  0.00    +0.031 C 
ENDROOT
BRANCH   1   2
ATOM      2  C   UNL     1      -5.241  -0.935  -3.551  0.00  0.00    +0.040 C 
ATOM      3  N   UNL     1      -6.410  -1.487  -3.521  0.00  0.00    -0.155 NA
ATOM      4  C   UNL     1      -4.258  -1.309  -4.630  0.00  0.00    +0.063 C 
BRANCH   3   5
ATOM      5  N   UNL     1      -6.725  -2.511  -4.424  0.00  0.00    -0.114 NA
ATOM      6  C   UNL     1      -7.943  -3.007  -4.458  0.00  0.00    +0.213 C 
ATOM      7  N   UNL     1      -8.876  -2.598  -3.539  0.00  0.00    -0.369 N 
ATOM      8  N   UNL     1      -8.280  -3.933  -5.413  0.00  0.00    -0.369 N 
ATOM      9  H   UNL     1      -8.619  -2.001  -2.819  0.00  0.00    +0.159 HD
ATOM     10  H   UNL     1      -7.621  -4.222  -6.062  0.00  0.00    +0.159 HD
ATOM     11  H   UNL     1      -9.179  -4.298  -5.438  0.00  0.00    +0.159 HD
ATOM     12  H   UNL     1      -9.793  -2.906  -3.609  0.00  0.00    +0.159 HD
ENDBRANCH   3   5
ENDBRANCH   1   2
BRANCH   1  13
ATOM     13  C   UNL     1      -3.744  -0.481  -1.627  0.00  0.00    -0.069 C 
BRANCH  13  14
ATOM     14  N   UNL     1      -2.519  -0.626  -2.425  0.00  0.00    +0.380 N 
ATOM     15  H   UNL     1      -2.704  -1.217  -3.222  0.00  0.00    -0.082 HD
BRANCH  14  16
ATOM     16  C   UNL     1      -1.466  -1.233  -1.600  0.00  0.00    -0.076 C 
BRANCH  16  18
ATOM     17  C   UNL     1      -1.938  -3.529  -2.465  0.00  0.00    +0.005 C 
ATOM     18  C   UNL     1      -1.878  -2.654  -1.211  0.00  0.00    -0.034 C 
ATOM     19  C   UNL     1      -0.854  -3.233  -0.233  0.00  0.00    +0.005 C 
ENDBRANCH  16  18
ENDBRANCH  14  16
BRANCH  14  20
ATOM     20  C   UNL     1      -2.077   0.696  -2.889  0.00  0.00    -0.076 C 
BRANCH  20  21
ATOM     21  C   UNL     1      -0.846   0.537  -3.784  0.00  0.00    -0.034 C 
ATOM     22  C   UNL     1      -1.225  -0.257  -5.036  0.00  0.00    +0.005 C 
ATOM     23  C   UNL     1      -0.332   1.919  -4.194  0.00  0.00    +0.005 C 
ENDBRANCH  20  21
ENDBRANCH  14  20
ENDBRANCH  13  14
ENDBRANCH   1  13
BRANCH   1  24
ATOM     24  C   UNL     1      -6.080   0.403  -1.639  0.00  0.00    +0.067 C 
BRANCH  24  25
ATOM     25  C   UNL     1      -7.237   0.795  -2.522  0.00  0.00    +0.092 A 
ATOM     26  C   UNL     1      -7.005   1.303  -3.771  0.00  0.00    +0.200 A 
ATOM     27  C   UNL     1      -8.169   1.670  -4.594  0.00  0.00    +0.065 A 
ATOM     28  C   UNL     1      -8.006   2.194  -5.878  0.00  0.00    +0.015 A 
ATOM     29  C   UNL     1      -9.116   2.527  -6.623  0.00  0.00    +0.001 A 
ATOM     30  C   UNL     1     -10.389   2.345  -6.102  0.00  0.00    +0.004 A 
ATOM     31  C   UNL     1     -10.563   1.830  -4.835  0.00  0.00    +0.047 A 
ATOM     32  C   UNL     1      -9.457   1.486  -4.068  0.00  0.00    +0.143 A 
ATOM     33  O   UNL     1      -9.610   0.979  -2.826  0.00  0.00    -0.422 OA
ATOM     34  C   UNL     1      -8.555   0.636  -2.070  0.00  0.00    +0.345 A 
ATOM     35  O   UNL     1      -8.748   0.177  -0.957  0.00  0.00    -0.245 OA
ATOM     36  O   UNL     1      -5.745   1.462  -4.236  0.00  0.00    -0.287 OA
ENDBRANCH  24  25
BRANCH  24  37
ATOM     37  C   UNL     1      -5.750   1.541  -0.709  0.00  0.00    -0.039 A 
ATOM     38  C   UNL     1      -5.473   2.795  -1.222  0.00  0.00    +0.004 A 
ATOM     39  C   UNL     1      -5.170   3.839  -0.368  0.00  0.00    +0.000 A 
ATOM     40  C   UNL     1      -5.145   3.630   0.998  0.00  0.00    +0.000 A 
ATOM     41  C   UNL     1      -5.423   2.377   1.511  0.00  0.00    +0.000 A 
ATOM     42  C   UNL     1      -5.730   1.334   0.658  0.00  0.00    +0.004 A 
ENDBRANCH  24  37
ENDBRANCH   1  24
TORSDOF 11
