REMARK  Name = ZINC20094433
REMARK  6 active torsions:
REMARK  status: ('A' for Active; 'I' for Inactive)
REMARK    1  A    between atoms: C_4  and  S_7
REMARK    2  A    between atoms: S_7  and  C_8
REMARK    3  A    between atoms: C_9  and  C_24
REMARK    4  A    between atoms: C_10  and  C_17
REMARK    5  A    between atoms: C_11  and  C_15
REMARK    6  A    between atoms: C_12  and  N_14
REMARK                            x       y       z     vdW  Elec       q    Type
REMARK                         _______ _______ _______ _____ _____    ______ ____
ROOT
ATOM      1  C   UNL     1      -3.884   2.186   0.184  0.00  0.00    +0.122 A 
ATOM      2  C   UNL     1      -5.256   1.908   0.337  0.00  0.00    +0.093 A 
ATOM      3  C   UNL     1      -6.159   2.980   0.466  0.00  0.00    +0.023 A 
ATOM      4  C   UNL     1      -5.641   4.291   0.437  0.00  0.00    +0.100 A 
ATOM      5  C   UNL     1      -4.255   4.472   0.280  0.00  0.00    +0.136 A 
ATOM      6  N   UNL     1      -3.441   3.434   0.167  0.00  0.00    -0.223 NA
ENDROOT
BRANCH   3   7
ATOM      7  C   UNL     1      -7.610   2.739   0.630  0.00  0.00    -0.015 A 
ATOM      8  C   UNL     1      -8.342   2.151  -0.403  0.00  0.00    +0.010 A 
ATOM      9  C   UNL     1      -9.693   1.924  -0.243  0.00  0.00    +0.020 A 
ATOM     10  C   UNL     1     -10.325   2.287   0.935  0.00  0.00    +0.041 A 
ATOM     11  C   UNL     1      -9.604   2.875   1.961  0.00  0.00    +0.020 A 
ATOM     12  C   UNL     1      -8.251   3.102   1.815  0.00  0.00    +0.010 A 
ATOM     13 CL   UNL     1     -12.027   2.004   1.126  0.00  0.00    -0.084 Cl
ENDBRANCH   3   7
BRANCH   5  14
ATOM     14  N   UNL     1      -3.735   5.751   0.249  0.00  0.00    -0.342 N 
ATOM     15  H   UNL     1      -2.652   5.902   0.127  0.00  0.00    +0.144 HD
ATOM     16  H   UNL     1      -4.404   6.619   0.347  0.00  0.00    +0.144 HD
ENDBRANCH   5  14
BRANCH   4  17
ATOM     17  C   UNL     1      -6.513   5.420   0.564  0.00  0.00    +0.103 C 
ATOM     18  N   UNL     1      -7.204   6.316   0.666  0.00  0.00    -0.191 NA
ENDBRANCH   4  17
BRANCH   2  19
ATOM     19  C   UNL     1      -5.725   0.555   0.359  0.00  0.00    +0.102 C 
ATOM     20  N   UNL     1      -6.097  -0.518   0.377  0.00  0.00    -0.191 NA
ENDBRANCH   2  19
BRANCH   1  21
ATOM     21  S   UNL     1      -2.740   0.856   0.020  0.00  0.00    -0.069 S 
BRANCH  21  25
ATOM     22  C   UNL     1       1.159   3.161   0.026  0.00  0.00    +0.000 A 
ATOM     23  C   UNL     1       0.570   2.798   1.224  0.00  0.00    +0.001 A 
ATOM     24  C   UNL     1      -0.621   2.099   1.226  0.00  0.00    +0.015 A 
ATOM     25  C   UNL     1      -1.224   1.754   0.022  0.00  0.00    +0.014 A 
ATOM     26  C   UNL     1      -0.632   2.124  -1.179  0.00  0.00    +0.015 A 
ATOM     27  C   UNL     1       0.558   2.825  -1.173  0.00  0.00    +0.001 A 
ENDBRANCH  21  25
ENDBRANCH   1  21
TORSDOF 6
