REMARK  Name = ZINC55334208
REMARK  4 active torsions:
REMARK  status: ('A' for Active; 'I' for Inactive)
REMARK    1  A    between atoms: C_1  and  N_2
REMARK    2  A    between atoms: C_3  and  N_20
REMARK    3  A    between atoms: C_4  and  C_13
REMARK    4  A    between atoms: C_5  and  C_7
REMARK                            x       y       z     vdW  Elec       q    Type
REMARK                         _______ _______ _______ _____ _____    ______ ____
ROOT
ATOM      1  C   UNL     1      -0.018   1.461   0.010  0.00  0.00    +0.174 C 
ATOM      2  N   UNL     1       0.002  -0.004   0.002  0.00  0.00    -0.253 N 
ATOM      3  C   UNL     1       0.008  -0.792  -1.104  0.00  0.00    +0.123 A 
ATOM      4  C   UNL     1       0.028  -2.106  -0.676  0.00  0.00    +0.050 A 
ATOM      5  C   UNL     1       0.035  -2.085   0.743  0.00  0.00    +0.109 A 
ATOM      6  N   UNL     1       0.025  -0.828   1.133  0.00  0.00    -0.169 NA
ENDROOT
BRANCH   4   7
ATOM      7  C   UNL     1       0.041  -3.311  -1.537  0.00  0.00    +0.001 A 
ATOM      8  C   UNL     1       1.252  -3.867  -1.946  0.00  0.00    +0.010 A 
ATOM      9  C   UNL     1       1.257  -4.990  -2.749  0.00  0.00    +0.001 A 
ATOM     10  C   UNL     1       0.063  -5.564  -3.148  0.00  0.00    +0.001 A 
ATOM     11  C   UNL     1      -1.142  -5.017  -2.747  0.00  0.00    +0.016 A 
ATOM     12  C   UNL     1      -1.160  -3.897  -1.939  0.00  0.00    +0.026 A 
ATOM     13 BR   UNL     1      -2.809  -3.156  -1.383  0.00  0.00    -0.050 Br
ENDBRANCH   4   7
BRANCH   5  14
ATOM     14  C   UNL     1       0.055  -3.268   1.629  0.00  0.00    +0.041 A 
ATOM     15  C   UNL     1       0.669  -3.426   2.842  0.00  0.00    +0.019 A 
ATOM     16  C   UNL     1       0.548  -4.636   3.493  0.00  0.00    +0.028 A 
ATOM     17  C   UNL     1      -0.174  -5.630   2.912  0.00  0.00    +0.079 A 
ATOM     18  S   UNL     1      -0.720  -4.859   1.397  0.00  0.00    -0.075 S 
ATOM     19 CL   UNL     1      -0.489  -7.234   3.496  0.00  0.00    -0.076 Cl
ENDBRANCH   5  14
BRANCH   3  20
ATOM     20  N   UNL     1      -0.005  -0.357  -2.422  0.00  0.00    -0.343 N 
ATOM     21  H   UNL     1      -0.019   0.593  -2.620  0.00  0.00    +0.144 HD
ATOM     22  H   UNL     1       0.000  -1.003  -3.146  0.00  0.00    +0.144 HD
ENDBRANCH   3  20
TORSDOF 3
