REMARK  Name = ZINC25328978
REMARK  8 active torsions:
REMARK  status: ('A' for Active; 'I' for Inactive)
REMARK    1  A    between atoms: C_1  and  N_2
REMARK    2  A    between atoms: N_2  and  C_3
REMARK    3  A    between atoms: N_2  and  C_4
REMARK    4  A    between atoms: C_4  and  C_6
REMARK    5  A    between atoms: C_4  and  C_26
REMARK    6  A    between atoms: C_6  and  N_7
REMARK    7  A    between atoms: C_8  and  C_10
REMARK    8  A    between atoms: C_10  and  N_11
REMARK                            x       y       z     vdW  Elec       q    Type
REMARK                         _______ _______ _______ _____ _____    ______ ____
ROOT
ATOM      1  C   UNL     1      -1.554   1.282   4.484  0.00  0.00    +0.213 C 
ENDROOT
BRANCH   1   2
ATOM      2  N   UNL     1      -2.683   1.687   5.325  0.00  0.00    -0.215 N 
ATOM      3  C   UNL     1      -3.683   0.862   5.704  0.00  0.00    +0.251 C 
ATOM      4  O   UNL     1      -3.815  -0.311   5.424  0.00  0.00    -0.272 OA
ATOM      5  C   UNL     1      -4.598   1.710   6.548  0.00  0.00    +0.138 C 
ATOM      6  C   UNL     1      -6.011   1.766   5.951  0.00  0.00    +0.045 C 
ATOM      7  C   UNL     1      -6.743   0.660   6.744  0.00  0.00    +0.038 C 
ATOM      8  C   UNL     1      -5.991   0.544   8.053  0.00  0.00    -0.042 A 
ATOM      9  C   UNL     1      -4.750   1.150   7.936  0.00  0.00    -0.012 A 
ATOM     10  C   UNL     1      -3.887   1.160   9.019  0.00  0.00    +0.006 A 
ATOM     11  C   UNL     1      -4.258   0.571  10.212  0.00  0.00    +0.000 A 
ATOM     12  C   UNL     1      -5.496  -0.032  10.328  0.00  0.00    +0.000 A 
ATOM     13  C   UNL     1      -6.359  -0.045   9.250  0.00  0.00    +0.004 A 
ATOM     14  N   UNL     1      -3.971   3.031   6.560  0.00  0.00    -0.281 N 
ATOM     15  C   UNL     1      -2.849   2.921   5.819  0.00  0.00    +0.310 C 
ATOM     16  O   UNL     1      -2.077   3.838   5.621  0.00  0.00    -0.252 OA
ATOM     17  H   UNL     1      -4.441   3.859   7.111  0.00  0.00    +0.152 HD
ENDBRANCH   1   2
BRANCH   1  19
ATOM     18  N   UNL     1      -1.010   1.198   2.072  0.00  0.00    -0.315 N 
ATOM     19  C   UNL     1      -1.904   1.502   3.034  0.00  0.00    +0.231 C 
ATOM     20  O   UNL     1      -2.988   1.954   2.734  0.00  0.00    -0.274 OA
ATOM     21  H   UNL     1      -0.026   0.788   2.345  0.00  0.00    +0.149 HD
BRANCH  18  22
ATOM     22  C   UNL     1      -1.350   1.412   0.663  0.00  0.00    +0.093 C 
BRANCH  22  23
ATOM     23  C   UNL     1      -0.122   1.133  -0.206  0.00  0.00    -0.020 C 
BRANCH  23  24
ATOM     24  C   UNL     1      -0.503   1.230  -1.660  0.00  0.00    -0.052 A 
ATOM     25  C   UNL     1      -0.836   0.094  -2.375  0.00  0.00    +0.009 A 
ATOM     26  C   UNL     1      -1.174   0.216  -3.682  0.00  0.00    +0.045 A 
ATOM     27  S   UNL     1      -1.027   1.976  -3.939  0.00  0.00    -0.105 S 
ATOM     28  C   UNL     1      -0.531   2.432  -2.286  0.00  0.00    +0.047 A 
ENDBRANCH  23  24
BRANCH  23  30
ATOM     29  C   UNL     1       0.337   3.382   0.565  0.00  0.00    -0.096 C 
ATOM     30  N   UNL     1       0.924   2.121   0.093  0.00  0.00    +0.382 N 
ATOM     31  C   UNL     1       1.886   1.591   1.068  0.00  0.00    -0.096 C 
ATOM     32  H   UNL     1       1.468   2.330  -0.840  0.00  0.00    -0.082 HD
ENDBRANCH  23  30
ENDBRANCH  22  23
ENDBRANCH  18  22
ENDBRANCH   1  19
TORSDOF 6
