REMARK  Name = ZINC39454900
REMARK  5 active torsions:
REMARK  status: ('A' for Active; 'I' for Inactive)
REMARK    1  A    between atoms: C_1  and  C_2
REMARK    2  A    between atoms: C_5  and  C_7
REMARK    3  A    between atoms: C_10  and  C_12
REMARK    4  A    between atoms: C_14  and  C_17
REMARK    5  A    between atoms: C_18  and  C_27
REMARK                            x       y       z     vdW  Elec       q    Type
REMARK                         _______ _______ _______ _____ _____    ______ ____
ROOT
ATOM      1  C   UNL     1       3.647  -6.857  -1.255  0.00  0.00    +0.275 A 
ATOM      2  N   UNL     1       3.646  -8.175  -1.288  0.00  0.00    -0.186 NA
ATOM      3  C   UNL     1       4.627  -8.651  -0.509  0.00  0.00    +0.204 A 
ATOM      4  N   UNL     1       5.269  -7.643   0.032  0.00  0.00    -0.056 NA
ATOM      5  O   UNL     1       4.649  -6.459  -0.447  0.00  0.00    -0.331 OA
ENDROOT
BRANCH   3   6
ATOM      6  C   UNL     1       4.936 -10.087  -0.293  0.00  0.00    +0.047 A 
ATOM      7  C   UNL     1       3.922 -10.993   0.008  0.00  0.00    +0.049 A 
ATOM      8  N   UNL     1       4.199 -12.267   0.199  0.00  0.00    -0.259 NA
ATOM      9  C   UNL     1       5.429 -12.732   0.116  0.00  0.00    +0.113 A 
ATOM     10  C   UNL     1       6.493 -11.894  -0.178  0.00  0.00    -0.043 A 
ATOM     11  C   UNL     1       6.250 -10.554  -0.394  0.00  0.00    -0.034 A 
ATOM     12  C   UNL     1       7.357  -9.593  -0.729  0.00  0.00    +0.017 C 
ATOM     13  C   UNL     1       8.709 -10.228  -0.394  0.00  0.00    -0.077 C 
ATOM     14  N   UNL     1       8.766 -11.563  -1.007  0.00  0.00    +0.382 N 
ATOM     15  C   UNL     1       7.882 -12.468  -0.259  0.00  0.00    -0.045 C 
ATOM     16  C   UNL     1       2.497 -10.512   0.116  0.00  0.00    +0.066 C 
ATOM     17  H   UNL     1       8.466 -11.506  -1.969  0.00  0.00    -0.085 HD
ATOM     18  H   UNL     1       9.713 -11.912  -0.969  0.00  0.00    -0.085 HD
ENDBRANCH   3   6
BRANCH   1  22
ATOM     19  C   UNL     1       1.532  -4.171  -2.899  0.00  0.00    +0.083 C 
ATOM     20  N   UNL     1       1.095  -5.356  -3.270  0.00  0.00    -0.152 NA
ATOM     21  N   UNL     1       1.744  -6.332  -2.768  0.00  0.00    -0.148 NA
ATOM     22  C   UNL     1       2.726  -5.979  -1.976  0.00  0.00    +0.133 C 
ATOM     23  C   UNL     1       2.704  -4.460  -1.975  0.00  0.00    +0.121 C 
BRANCH  19  28
ATOM     24  C   UNL     1       0.384   1.143  -3.730  0.00  0.00    +0.051 C 
ATOM     25  C   UNL     1       0.486  -0.359  -3.672  0.00  0.00    -0.013 A 
ATOM     26  C   UNL     1      -0.295  -1.273  -4.303  0.00  0.00    +0.011 A 
ATOM     27  C   UNL     1      -0.041  -2.609  -4.122  0.00  0.00    +0.017 A 
ATOM     28  C   UNL     1       1.028  -2.910  -3.280  0.00  0.00    +0.036 A 
ATOM     29  S   UNL     1       1.596  -1.285  -2.816  0.00  0.00    -0.092 S 
ENDBRANCH  19  28
ENDBRANCH   1  22
TORSDOF 3
