REMARK  Name = ZINC09124115
REMARK  11 active torsions:
REMARK  status: ('A' for Active; 'I' for Inactive)
REMARK    1  A    between atoms: C_1  and  C_2
REMARK    2  A    between atoms: C_2  and  O_3
REMARK    3  A    between atoms: O_3  and  C_4
REMARK    4  A    between atoms: C_6  and  C_11
REMARK    5  A    between atoms: C_9  and  O_10
REMARK    6  A    between atoms: C_14  and  C_28
REMARK    7  A    between atoms: N_21  and  C_22
REMARK    8  A    between atoms: C_22  and  C_23
REMARK    9  A    between atoms: C_30  and  C_36
REMARK   10  A    between atoms: C_32  and  C_35
REMARK   11  A    between atoms: C_33  and  O_34
REMARK                            x       y       z     vdW  Elec       q    Type
REMARK                         _______ _______ _______ _____ _____    ______ ____
ROOT
ATOM      1  C   UNL     1      -0.229  -4.969   0.477  0.00  0.00    +0.142 C 
ATOM      2  C   UNL     1       0.860  -5.485   1.378  0.00  0.00    +0.035 A 
ATOM      3  C   UNL     1       1.839  -5.200   2.275  0.00  0.00    +0.075 A 
ATOM      4  N   UNL     1       2.402  -6.391   2.632  0.00  0.00    -0.276 N 
ATOM      5  H   UNL     1       3.131  -6.496   3.263  0.00  0.00    +0.189 HD
ATOM      6  N   UNL     1       1.823  -7.354   2.008  0.00  0.00    -0.168 NA
ATOM      7  C   UNL     1       0.871  -6.890   1.224  0.00  0.00    +0.153 A 
ATOM      8  C   UNL     1      -0.181  -7.247   0.255  0.00  0.00    +0.268 C 
ATOM      9  O   UNL     1      -0.438  -8.380  -0.104  0.00  0.00    -0.268 OA
ATOM     10  N   UNL     1      -0.817  -6.143  -0.177  0.00  0.00    -0.278 N 
ENDROOT
BRANCH   3  11
ATOM     11  C   UNL     1       2.221  -3.858   2.769  0.00  0.00    +0.042 A 
ATOM     12  C   UNL     1       3.480  -3.336   2.474  0.00  0.00    +0.017 A 
ATOM     13  C   UNL     1       3.831  -2.084   2.937  0.00  0.00    -0.049 A 
ATOM     14  C   UNL     1       2.939  -1.345   3.693  0.00  0.00    +0.010 A 
ATOM     15  C   UNL     1       1.688  -1.853   3.992  0.00  0.00    -0.008 A 
ATOM     16  C   UNL     1       1.319  -3.106   3.529  0.00  0.00    +0.129 A 
ATOM     17  C   UNL     1       0.724  -1.041   4.817  0.00  0.00    +0.047 C 
ATOM     18  C   UNL     1       5.192  -1.520   2.618  0.00  0.00    +0.044 C 
BRANCH  16  19
ATOM     19  O   UNL     1       0.089  -3.603   3.817  0.00  0.00    -0.506 OA
ATOM     20  H   UNL     1       0.052  -4.111   4.639  0.00  0.00    +0.292 HD
ENDBRANCH  16  19
ENDBRANCH   3  11
BRANCH   1  23
ATOM     21  C   UNL     1       0.777  -1.811  -1.336  0.00  0.00    +0.162 A 
ATOM     22  C   UNL     1       0.243  -2.669  -0.388  0.00  0.00    +0.055 A 
ATOM     23  C   UNL     1       0.352  -4.037  -0.555  0.00  0.00    -0.019 A 
ATOM     24  C   UNL     1       0.992  -4.552  -1.667  0.00  0.00    +0.009 A 
ATOM     25  C   UNL     1       1.526  -3.702  -2.616  0.00  0.00    +0.049 A 
ATOM     26  C   UNL     1       1.416  -2.330  -2.458  0.00  0.00    +0.158 A 
BRANCH  26  27
ATOM     27  O   UNL     1       1.936  -1.492  -3.394  0.00  0.00    -0.503 OA
ATOM     28  H   UNL     1       2.856  -1.241  -3.231  0.00  0.00    +0.292 HD
ENDBRANCH  26  27
BRANCH  21  29
ATOM     29  O   UNL     1       0.671  -0.465  -1.174  0.00  0.00    -0.489 OA
BRANCH  29  31
ATOM     30  C   UNL     1      -0.019   1.526   0.010  0.00  0.00    +0.048 C 
ATOM     31  C   UNL     1       0.002  -0.004   0.002  0.00  0.00    +0.226 C 
ENDBRANCH  29  31
ENDBRANCH  21  29
ENDBRANCH   1  23
BRANCH  10  32
ATOM     32  C   UNL     1      -1.917  -6.117  -1.144  0.00  0.00    +0.183 C 
BRANCH  32  33
ATOM     33  C   UNL     1      -1.360  -5.984  -2.537  0.00  0.00    +0.122 A 
ATOM     34  C   UNL     1      -1.025  -7.001  -3.351  0.00  0.00    +0.046 A 
ATOM     35  C   UNL     1      -0.548  -6.425  -4.551  0.00  0.00    +0.041 A 
ATOM     36  C   UNL     1      -0.620  -5.091  -4.399  0.00  0.00    +0.195 A 
ATOM     37  O   UNL     1      -1.117  -4.829  -3.179  0.00  0.00    -0.466 OA
ENDBRANCH  32  33
ENDBRANCH  10  32
TORSDOF 8
