REMARK  Name = ZINC05945438
REMARK  6 active torsions:
REMARK  status: ('A' for Active; 'I' for Inactive)
REMARK    1  A    between atoms: C_1  and  C_2
REMARK    2  A    between atoms: C_2  and  C_34
REMARK    3  A    between atoms: N_16  and  C_19
REMARK    4  A    between atoms: C_20  and  C_32
REMARK    5  A    between atoms: C_21  and  N_31
REMARK    6  A    between atoms: N_22  and  C_23
REMARK                            x       y       z     vdW  Elec       q    Type
REMARK                         _______ _______ _______ _____ _____    ______ ____
ROOT
ATOM      1  C   UNL     1      -0.094   1.299  -1.998  0.00  0.00    +0.011 C 
ATOM      2  C   UNL     1      -0.061  -0.160  -1.538  0.00  0.00    -0.023 C 
ATOM      3  C   UNL     1      -1.376  -0.508  -0.837  0.00  0.00    +0.058 C 
ATOM      4  C   UNL     1      -1.323  -1.932  -0.342  0.00  0.00    +0.026 C 
ATOM      5  C   UNL     1      -0.155  -2.493   0.038  0.00  0.00    +0.037 C 
ATOM      6  C   UNL     1       1.051  -1.773  -0.030  0.00  0.00    +0.163 C 
ATOM      7  O   UNL     1       2.083  -2.302   0.334  0.00  0.00    -0.292 OA
ATOM      8  C   UNL     1       1.088  -0.360  -0.544  0.00  0.00    +0.086 C 
ATOM      9  C   UNL     1      -0.110  -3.910   0.549  0.00  0.00    +0.141 C 
ATOM     10  C   UNL     1       0.093  -3.929   2.033  0.00  0.00    -0.001 A 
ATOM     11  C   UNL     1      -0.683  -3.448   3.065  0.00  0.00    +0.007 A 
ATOM     12  C   UNL     1      -0.199  -3.631   4.356  0.00  0.00    +0.000 A 
ATOM     13  C   UNL     1       1.005  -4.266   4.589  0.00  0.00    +0.002 A 
ATOM     14  C   UNL     1       1.790  -4.751   3.556  0.00  0.00    +0.024 A 
ATOM     15  C   UNL     1       1.315  -4.574   2.255  0.00  0.00    +0.041 A 
ATOM     16  N   UNL     1       1.885  -4.954   1.053  0.00  0.00    -0.273 N 
ATOM     17  C   UNL     1       1.119  -4.607  -0.002  0.00  0.00    +0.240 C 
ATOM     18  O   UNL     1       1.367  -4.814  -1.171  0.00  0.00    -0.274 OA
ATOM     19  C   UNL     1       3.168  -5.650   0.939  0.00  0.00    +0.138 C 
ATOM     20  C   UNL     1      -1.343  -4.672   0.166  0.00  0.00    +0.089 C 
ATOM     21  C   UNL     1      -2.469  -4.024  -0.231  0.00  0.00    +0.108 C 
ATOM     22  N   UNL     1      -2.490  -2.648  -0.291  0.00  0.00    -0.260 N 
ATOM     23  C   UNL     1       0.140  -1.075  -2.747  0.00  0.00    +0.011 C 
ENDROOT
BRANCH  22  24
ATOM     24  C   UNL     1      -3.716  -1.974  -0.300  0.00  0.00    +0.042 A 
ATOM     25  C   UNL     1      -4.275  -1.531   0.891  0.00  0.00    +0.044 A 
ATOM     26  C   UNL     1      -5.487  -0.865   0.879  0.00  0.00    +0.044 A 
ATOM     27  C   UNL     1      -6.143  -0.640  -0.319  0.00  0.00    +0.040 A 
ATOM     28  C   UNL     1      -5.588  -1.081  -1.507  0.00  0.00    +0.044 A 
ATOM     29  C   UNL     1      -4.374  -1.743  -1.501  0.00  0.00    +0.044 A 
ATOM     30 CL   UNL     1      -6.414  -0.799  -3.007  0.00  0.00    -0.083 Cl
ATOM     31 CL   UNL     1      -6.186  -0.310   2.368  0.00  0.00    -0.083 Cl
ENDBRANCH  22  24
BRANCH  21  32
ATOM     32  N   UNL     1      -3.590  -4.742  -0.573  0.00  0.00    -0.345 N 
ATOM     33  H   UNL     1      -3.608  -5.703  -0.443  0.00  0.00    +0.144 HD
ATOM     34  H   UNL     1      -4.362  -4.288  -0.944  0.00  0.00    +0.144 HD
ENDBRANCH  21  32
BRANCH  20  35
ATOM     35  C   UNL     1      -1.333  -6.103   0.220  0.00  0.00    +0.100 C 
ATOM     36  N   UNL     1      -1.326  -7.238   0.262  0.00  0.00    -0.191 NA
ENDBRANCH  20  35
TORSDOF 3
