REMARK  Name = ZINC20758178
REMARK  6 active torsions:
REMARK  status: ('A' for Active; 'I' for Inactive)
REMARK    1  A    between atoms: C_1  and  C_2
REMARK    2  A    between atoms: C_2  and  N_3
REMARK    3  A    between atoms: C_16  and  C_18
REMARK    4  A    between atoms: N_24  and  C_27
REMARK    5  A    between atoms: C_30  and  O_33
REMARK    6  A    between atoms: O_33  and  C_34
REMARK                            x       y       z     vdW  Elec       q    Type
REMARK                         _______ _______ _______ _____ _____    ______ ____
ROOT
ATOM      1  C   UNL     1      -0.795  -2.865  -1.991  0.00  0.00    +0.074 A 
ATOM      2  C   UNL     1      -1.552  -1.833  -2.574  0.00  0.00    +0.260 A 
ATOM      3  N   UNL     1      -2.863  -1.723  -2.282  0.00  0.00    -0.274 N 
ATOM      4  H   UNL     1      -3.388  -1.013  -2.683  0.00  0.00    +0.173 HD
ATOM      5  C   UNL     1      -3.450  -2.592  -1.439  0.00  0.00    +0.337 A 
ATOM      6  O   UNL     1      -4.634  -2.477  -1.188  0.00  0.00    -0.246 OA
ATOM      7  N   UNL     1      -2.746  -3.588  -0.869  0.00  0.00    -0.229 N 
ATOM      8  C   UNL     1      -1.409  -3.739  -1.144  0.00  0.00    +0.267 A 
ATOM      9  O   UNL     1      -0.706  -4.742  -0.575  0.00  0.00    -0.267 OA
ATOM     10  O   UNL     1      -1.026  -1.042  -3.338  0.00  0.00    -0.267 OA
ENDROOT
BRANCH   1  24
ATOM     11  N   UNL     1       1.365  -1.742  -2.004  0.00  0.00    +0.388 N 
ATOM     12  C   UNL     1       2.757  -1.805  -2.467  0.00  0.00    -0.073 C 
ATOM     13  C   UNL     1       2.791  -1.729  -4.000  0.00  0.00    +0.019 C 
ATOM     14  C   UNL     1       1.806  -2.739  -4.534  0.00  0.00    -0.022 A 
ATOM     15  C   UNL     1       1.669  -3.274  -5.869  0.00  0.00    +0.003 A 
ATOM     16  C   UNL     1       2.366  -3.049  -7.060  0.00  0.00    +0.010 A 
ATOM     17  C   UNL     1       1.951  -3.751  -8.165  0.00  0.00    +0.001 A 
ATOM     18  C   UNL     1       0.892  -4.642  -8.116  0.00  0.00    +0.002 A 
ATOM     19  C   UNL     1       0.184  -4.884  -6.951  0.00  0.00    +0.026 A 
ATOM     20  C   UNL     1       0.583  -4.187  -5.813  0.00  0.00    +0.047 A 
ATOM     21  N   UNL     1       0.116  -4.186  -4.529  0.00  0.00    -0.359 N 
ATOM     22  H   UNL     1      -0.625  -4.721  -4.205  0.00  0.00    +0.166 HD
ATOM     23  C   UNL     1       0.851  -3.318  -3.770  0.00  0.00    +0.011 A 
ATOM     24  C   UNL     1       0.672  -3.006  -2.303  0.00  0.00    +0.021 C 
ATOM     25  H   UNL     1       0.892  -0.984  -2.472  0.00  0.00    -0.080 HD
BRANCH  11  27
ATOM     26  C   UNL     1       1.952  -0.137  -0.250  0.00  0.00    -0.017 C 
ATOM     27  C   UNL     1       1.344  -1.508  -0.554  0.00  0.00    -0.081 C 
ENDBRANCH  11  27
ENDBRANCH   1  24
BRANCH   7  28
ATOM     28  C   UNL     1      -3.382  -4.479   0.006  0.00  0.00    +0.055 A 
ATOM     29  C   UNL     1      -3.964  -5.640  -0.486  0.00  0.00    +0.030 A 
ATOM     30  C   UNL     1      -4.590  -6.518   0.376  0.00  0.00    +0.047 A 
ATOM     31  C   UNL     1      -4.640  -6.239   1.735  0.00  0.00    +0.120 A 
ATOM     32  C   UNL     1      -4.059  -5.080   2.227  0.00  0.00    +0.047 A 
ATOM     33  C   UNL     1      -3.426  -4.205   1.367  0.00  0.00    +0.030 A 
BRANCH  31  34
ATOM     34  O   UNL     1      -5.258  -7.103   2.583  0.00  0.00    -0.495 OA
ATOM     35  C   UNL     1      -5.271  -6.754   3.969  0.00  0.00    +0.277 C 
ENDBRANCH  31  34
ENDBRANCH   7  28
TORSDOF 4
