REMARK  Name = ZINC39665830
REMARK  14 active torsions:
REMARK  status: ('A' for Active; 'I' for Inactive)
REMARK    1  A    between atoms: C_1  and  C_2
REMARK    2  A    between atoms: C_2  and  C_4
REMARK    3  A    between atoms: C_2  and  O_33
REMARK    4  A    between atoms: C_4  and  N_5
REMARK    5  A    between atoms: C_6  and  C_8
REMARK    6  A    between atoms: C_19  and  C_21
REMARK    7  A    between atoms: C_21  and  C_23
REMARK    8  A    between atoms: C_21  and  O_26
REMARK    9  A    between atoms: C_23  and  C_24
REMARK   10  A    between atoms: C_23  and  C_25
REMARK   11  A    between atoms: O_26  and  C_27
REMARK   12  A    between atoms: O_33  and  C_34
REMARK   13  A    between atoms: C_37  and  O_40
REMARK   14  A    between atoms: O_40  and  C_41
REMARK                            x       y       z     vdW  Elec       q    Type
REMARK                         _______ _______ _______ _____ _____    ______ ____
ROOT
ATOM      1  C   UNL     1      -0.789  -3.937   1.153  0.00  0.00    +0.100 C 
ATOM      2  C   UNL     1      -2.318  -3.917   1.375  0.00  0.00    +0.121 C 
ATOM      3  N   UNL     1      -2.579  -5.056   2.286  0.00  0.00    -0.297 N 
ATOM      4  C   UNL     1      -1.447  -5.030   3.243  0.00  0.00    +0.115 C 
ATOM      5  C   UNL     1      -0.221  -4.668   2.381  0.00  0.00    -0.004 C 
ATOM      6  C   UNL     1       0.715  -3.747   3.158  0.00  0.00    -0.010 C 
ATOM      7  C   UNL     1       1.313  -4.513   4.341  0.00  0.00    -0.082 C 
ATOM      8  N   UNL     1       2.046  -5.685   3.847  0.00  0.00    +0.379 N 
ATOM      9  C   UNL     1       1.120  -6.611   3.182  0.00  0.00    -0.082 C 
ATOM     10  C   UNL     1       0.515  -5.933   1.950  0.00  0.00    -0.010 C 
ATOM     11  C   UNL     1      -3.611  -5.922   2.251  0.00  0.00    +0.257 C 
ATOM     12  O   UNL     1      -3.728  -6.762   3.118  0.00  0.00    -0.272 OA
ATOM     13  H   UNL     1       2.751  -5.387   3.190  0.00  0.00    -0.086 HD
ATOM     14  H   UNL     1       2.489  -6.154   4.623  0.00  0.00    -0.086 HD
ENDROOT
BRANCH   1  16
ATOM     15  N   UNL     1       0.853  -2.267   0.355  0.00  0.00    -0.312 N 
ATOM     16  C   UNL     1      -0.250  -2.531   1.083  0.00  0.00    +0.218 C 
ATOM     17  O   UNL     1      -0.809  -1.637   1.683  0.00  0.00    -0.275 OA
ATOM     18  H   UNL     1       1.300  -2.982  -0.124  0.00  0.00    +0.149 HD
BRANCH  15  19
ATOM     19  C   UNL     1       1.376  -0.900   0.287  0.00  0.00    +0.148 C 
BRANCH  19  21
ATOM     20  C   UNL     1       3.170   0.552  -0.669  0.00  0.00    +0.053 C 
ATOM     21  C   UNL     1       2.623  -0.875  -0.598  0.00  0.00    +0.187 C 
BRANCH  21  22
ATOM     22  O   UNL     1       3.618  -1.739  -0.045  0.00  0.00    -0.488 OA
BRANCH  22  23
ATOM     23  C   UNL     1       4.558  -2.226  -0.898  0.00  0.00    +0.121 A 
ATOM     24  C   UNL     1       5.476  -3.167  -0.456  0.00  0.00    +0.049 A 
ATOM     25  C   UNL     1       6.431  -3.661  -1.324  0.00  0.00    +0.049 A 
ATOM     26  C   UNL     1       6.470  -3.217  -2.637  0.00  0.00    +0.120 A 
ATOM     27  C   UNL     1       5.551  -2.277  -3.080  0.00  0.00    +0.049 A 
ATOM     28  C   UNL     1       4.594  -1.786  -2.213  0.00  0.00    +0.049 A 
BRANCH  26  29
ATOM     29  O   UNL     1       7.411  -3.703  -3.491  0.00  0.00    -0.495 OA
ATOM     30  C   UNL     1       7.393  -3.202  -4.829  0.00  0.00    +0.277 C 
ENDBRANCH  26  29
ENDBRANCH  22  23
ENDBRANCH  21  22
ENDBRANCH  19  21
ENDBRANCH  15  19
ENDBRANCH   1  16
BRANCH  11  31
ATOM     31  C   UNL     1      -4.622  -5.845   1.136  0.00  0.00    +0.261 C 
BRANCH  31  32
ATOM     32  C   UNL     1      -5.722  -4.851   1.512  0.00  0.00    +0.033 C 
ATOM     33  C   UNL     1      -5.115  -3.457   1.677  0.00  0.00    +0.011 C 
ATOM     34  C   UNL     1      -6.779  -4.819   0.406  0.00  0.00    +0.011 C 
ENDBRANCH  31  32
BRANCH  31  35
ATOM     35  O   UNL     1      -5.197  -7.136   0.925  0.00  0.00    -0.479 OA
BRANCH  35  36
ATOM     36  C   UNL     1      -5.535  -7.460  -0.351  0.00  0.00    +0.122 A 
ATOM     37  C   UNL     1      -5.281  -6.571  -1.384  0.00  0.00    +0.045 A 
ATOM     38  C   UNL     1      -5.624  -6.903  -2.680  0.00  0.00    +0.004 A 
ATOM     39  C   UNL     1      -6.221  -8.121  -2.948  0.00  0.00    +0.000 A 
ATOM     40  C   UNL     1      -6.476  -9.009  -1.920  0.00  0.00    +0.004 A 
ATOM     41  C   UNL     1      -6.128  -8.684  -0.623  0.00  0.00    +0.045 A 
ENDBRANCH  35  36
ENDBRANCH  31  35
ENDBRANCH  11  31
TORSDOF 10
