REMARK  Name = ZINC41650654
REMARK  5 active torsions:
REMARK  status: ('A' for Active; 'I' for Inactive)
REMARK    1  A    between atoms: C_1  and  C_2
REMARK    2  A    between atoms: C_2  and  C_4
REMARK    3  A    between atoms: C_2  and  N_12
REMARK    4  A    between atoms: N_12  and  C_13
REMARK    5  A    between atoms: C_18  and  O_21
REMARK                            x       y       z     vdW  Elec       q    Type
REMARK                         _______ _______ _______ _____ _____    ______ ____
ROOT
ATOM      1  N   UNL     1       0.690  -0.478  -1.207  0.00  0.00    +0.385 N 
ATOM      2  H   UNL     1       1.608  -0.063  -1.256  0.00  0.00    -0.085 HD
ATOM      3  H   UNL     1       0.776  -1.482  -1.172  0.00  0.00    -0.085 HD
ENDROOT
BRANCH   1   4
ATOM      4  C   UNL     1      -0.086  -0.093  -2.394  0.00  0.00    -0.069 C 
ATOM      5  C   UNL     1      -1.431  -0.821  -2.382  0.00  0.00    -0.016 C 
ATOM      6  C   UNL     1      -2.239  -0.420  -3.618  0.00  0.00    +0.001 C 
ATOM      7  C   UNL     1      -1.463  -0.803  -4.880  0.00  0.00    +0.031 C 
ATOM      8  C   UNL     1      -0.117  -0.075  -4.892  0.00  0.00    +0.113 C 
ATOM      9  C   UNL     1       0.690  -0.476  -3.655  0.00  0.00    +0.015 C 
BRANCH   8  10
ATOM     10  O   UNL     1       0.608  -0.433  -6.070  0.00  0.00    -0.392 OA
ATOM     11  H   UNL     1       0.154  -0.207  -6.894  0.00  0.00    +0.210 HD
ENDBRANCH   8  10
ENDBRANCH   1   4
BRANCH   1  13
ATOM     12  C   UNL     1      -0.019   1.526   0.010  0.00  0.00    -0.009 C 
ATOM     13  C   UNL     1       0.002  -0.004   0.002  0.00  0.00    -0.043 C 
BRANCH  13  14
ATOM     14  C   UNL     1       0.731  -0.503   1.223  0.00  0.00    -0.048 A 
ATOM     15  C   UNL     1       2.077  -0.808   1.148  0.00  0.00    +0.004 A 
ATOM     16  C   UNL     1       2.746  -1.265   2.267  0.00  0.00    +0.015 A 
ATOM     17  C   UNL     1       2.069  -1.419   3.464  0.00  0.00    +0.019 A 
ATOM     18  C   UNL     1       0.722  -1.114   3.539  0.00  0.00    +0.030 A 
ATOM     19  C   UNL     1       0.054  -0.651   2.420  0.00  0.00    +0.021 A 
ATOM     20 BR   UNL     1      -1.786  -0.227   2.525  0.00  0.00    -0.050 Br
ATOM     21 BR   UNL     1       2.984  -2.045   4.995  0.00  0.00    -0.050 Br
ENDBRANCH  13  14
ENDBRANCH   1  13
TORSDOF 4
