REMARK  Name = ZINC28363800
REMARK  10 active torsions:
REMARK  status: ('A' for Active; 'I' for Inactive)
REMARK    1  A    between atoms: C_1  and  C_2
REMARK    2  A    between atoms: C_2  and  C_3
REMARK    3  A    between atoms: C_2  and  C_4
REMARK    4  A    between atoms: C_4  and  O_5
REMARK    5  A    between atoms: O_5  and  C_6
REMARK    6  A    between atoms: C_10  and  O_28
REMARK    7  A    between atoms: C_11  and  C_12
REMARK    8  A    between atoms: C_14  and  C_21
REMARK    9  A    between atoms: C_15  and  C_19
REMARK   10  A    between atoms: C_16  and  N_18
REMARK                            x       y       z     vdW  Elec       q    Type
REMARK                         _______ _______ _______ _____ _____    ______ ____
ROOT
ATOM      1  C   UNL     1       0.823   5.617  -1.125  0.00  0.00    +0.080 A 
ATOM      2  C   UNL     1       0.974   4.230  -1.188  0.00  0.00    +0.033 A 
ATOM      3  C   UNL     1       1.562   3.564  -0.132  0.00  0.00    -0.023 A 
ATOM      4  C   UNL     1       1.998   4.312   0.971  0.00  0.00    +0.095 A 
ATOM      5  C   UNL     1       1.818   5.707   0.963  0.00  0.00    +0.135 A 
ATOM      6  N   UNL     1       1.245   6.303  -0.069  0.00  0.00    -0.231 NA
ENDROOT
BRANCH   3   7
ATOM      7  C   UNL     1       1.736   2.068  -0.166  0.00  0.00    +0.003 C 
ATOM      8  C   UNL     1       0.365   1.396  -0.288  0.00  0.00    +0.004 C 
ATOM      9  C   UNL     1       0.555  -0.120  -0.383  0.00  0.00    -0.019 C 
ATOM     10  C   UNL     1       1.451  -0.444  -1.581  0.00  0.00    -0.083 C 
ATOM     11  N   UNL     1       2.750   0.221  -1.416  0.00  0.00    +0.379 N 
ATOM     12  C   UNL     1       2.597   1.681  -1.370  0.00  0.00    -0.074 C 
ATOM     13  H   UNL     1       3.216  -0.113  -0.477  0.00  0.00    -0.086 HD
ATOM     14  H   UNL     1       3.404  -0.037  -2.261  0.00  0.00    -0.086 HD
ENDBRANCH   3   7
BRANCH   1  20
ATOM     15  C   UNL     1       0.791   7.476  -2.790  0.00  0.00    +0.133 A 
ATOM     16  C   UNL     1       0.189   8.140  -3.847  0.00  0.00    +0.046 A 
ATOM     17  C   UNL     1      -1.003   7.677  -4.371  0.00  0.00    +0.007 A 
ATOM     18  C   UNL     1      -1.606   6.548  -3.847  0.00  0.00    +0.046 A 
ATOM     19  C   UNL     1      -1.016   5.868  -2.794  0.00  0.00    +0.130 A 
ATOM     20  C   UNL     1       0.188   6.333  -2.253  0.00  0.00    +0.083 A 
BRANCH  19  21
ATOM     21  O   UNL     1      -1.607   4.757  -2.284  0.00  0.00    -0.506 OA
ATOM     22  H   UNL     1      -1.138   4.218  -1.448  0.00  0.00    +0.292 HD
ENDBRANCH  19  21
BRANCH  15  23
ATOM     23  O   UNL     1       1.963   7.932  -2.277  0.00  0.00    -0.491 OA
BRANCH  23  24
ATOM     24  C   UNL     1       2.520   9.104  -2.875  0.00  0.00    +0.232 C 
BRANCH  24  26
ATOM     25  C   UNL     1       4.859   8.358  -2.410  0.00  0.00    +0.010 C 
ATOM     26  C   UNL     1       3.829   9.464  -2.170  0.00  0.00    +0.020 C 
ATOM     27  C   UNL     1       4.361  10.786  -2.726  0.00  0.00    +0.010 C 
ENDBRANCH  24  26
ENDBRANCH  23  24
ENDBRANCH  15  23
ENDBRANCH   1  20
BRANCH   5  28
ATOM     28  N   UNL     1       2.243   6.460   2.043  0.00  0.00    -0.342 N 
ATOM     29  H   UNL     1       2.104   7.552   2.041  0.00  0.00    +0.144 HD
ATOM     30  H   UNL     1       2.720   5.968   2.903  0.00  0.00    +0.144 HD
ENDBRANCH   5  28
BRANCH   4  31
ATOM     31  C   UNL     1       2.619   3.666   2.087  0.00  0.00    +0.103 C 
ATOM     32  N   UNL     1       3.111   3.153   2.974  0.00  0.00    -0.191 NA
ENDBRANCH   4  31
TORSDOF 8
