REMARK  Name = ZINC46898749
REMARK  5 active torsions:
REMARK  status: ('A' for Active; 'I' for Inactive)
REMARK    1  A    between atoms: C_9  and  C_12
REMARK    2  A    between atoms: N_14  and  N_15
REMARK    3  A    between atoms: C_16  and  C_18
REMARK    4  A    between atoms: C_21  and  O_24
REMARK    5  A    between atoms: O_24  and  C_25
REMARK                            x       y       z     vdW  Elec       q    Type
REMARK                         _______ _______ _______ _____ _____    ______ ____
ROOT
ATOM      1  N   UNL     1       6.430  -4.475  -0.234  0.00  0.00    -0.230 N 
ATOM      2  C   UNL     1       6.655  -5.768  -0.539  0.00  0.00    +0.262 C 
ATOM      3  O   UNL     1       5.814  -6.405  -1.143  0.00  0.00    -0.269 OA
ATOM      4  H   UNL     1       7.101  -3.966   0.248  0.00  0.00    +0.173 HD
ENDROOT
BRANCH   2   5
ATOM      5  C   UNL     1       7.923  -6.411  -0.141  0.00  0.00    +0.056 A 
ATOM      6  C   UNL     1       8.171  -7.755  -0.459  0.00  0.00    +0.020 A 
ATOM      7  C   UNL     1       9.370  -8.311  -0.065  0.00  0.00    +0.068 A 
ATOM      8  C   UNL     1      10.288  -7.528   0.629  0.00  0.00    +0.220 A 
ATOM      9  N   UNL     1      10.025  -6.262   0.914  0.00  0.00    -0.220 NA
ATOM     10  C   UNL     1       8.896  -5.689   0.552  0.00  0.00    +0.127 A 
BRANCH   8  11
ATOM     11  O   UNL     1      11.468  -8.069   1.018  0.00  0.00    -0.438 OA
BRANCH  11  12
ATOM     12  C   UNL     1      12.382  -7.251   1.604  0.00  0.00    +0.130 A 
ATOM     13  C   UNL     1      12.224  -6.869   2.928  0.00  0.00    +0.047 A 
ATOM     14  C   UNL     1      13.155  -6.038   3.522  0.00  0.00    +0.019 A 
ATOM     15  C   UNL     1      14.244  -5.588   2.797  0.00  0.00    +0.018 A 
ATOM     16  C   UNL     1      14.402  -5.968   1.476  0.00  0.00    +0.019 A 
ATOM     17  C   UNL     1      13.477  -6.803   0.880  0.00  0.00    +0.047 A 
ATOM     18 BR   UNL     1      15.516  -4.451   3.612  0.00  0.00    -0.050 Br
ENDBRANCH  11  12
ENDBRANCH   8  11
ENDBRANCH   2   5
BRANCH   1  21
ATOM     19  C   UNL     1       5.002  -2.571  -0.306  0.00  0.00    +0.273 C 
ATOM     20  O   UNL     1       5.841  -1.936   0.296  0.00  0.00    -0.270 OA
ATOM     21  N   UNL     1       5.227  -3.865  -0.612  0.00  0.00    -0.231 N 
ATOM     22  H   UNL     1       4.556  -4.373  -1.093  0.00  0.00    +0.173 HD
BRANCH  19  31
ATOM     23  C   UNL     1       0.149   1.518  -0.438  0.00  0.00    +0.004 A 
ATOM     24  C   UNL     1       1.345   2.210  -0.440  0.00  0.00    +0.004 A 
ATOM     25  C   UNL     1       2.544   1.522  -0.414  0.00  0.00    +0.049 A 
ATOM     26  C   UNL     1       2.549   0.135  -0.388  0.00  0.00    +0.163 A 
ATOM     27  C   UNL     1       1.346  -0.560  -0.388  0.00  0.00    +0.162 A 
ATOM     28  C   UNL     1       0.146   0.136  -0.411  0.00  0.00    +0.049 A 
ATOM     29  O   UNL     1       1.328  -1.921  -0.370  0.00  0.00    -0.484 OA
ATOM     30  C   UNL     1       2.538  -2.575   0.029  0.00  0.00    +0.283 C 
ATOM     31  C   UNL     1       3.708  -1.915  -0.713  0.00  0.00    +0.297 C 
ATOM     32  O   UNL     1       3.737  -0.528  -0.360  0.00  0.00    -0.472 OA
ENDBRANCH  19  31
ENDBRANCH   1  21
TORSDOF 5
