REMARK  Name = ZINC02756350
REMARK  5 active torsions:
REMARK  status: ('A' for Active; 'I' for Inactive)
REMARK    1  A    between atoms: C_3  and  C_6
REMARK    2  A    between atoms: C_6  and  N_7
REMARK    3  A    between atoms: C_8  and  C_10
REMARK    4  A    between atoms: C_15  and  C_28
REMARK    5  A    between atoms: C_18  and  C_21
REMARK                            x       y       z     vdW  Elec       q    Type
REMARK                         _______ _______ _______ _____ _____    ______ ____
ROOT
ATOM      1  C   UNL     1      -5.206   4.702  -0.039  0.00  0.00    +0.149 A 
ATOM      2  C   UNL     1      -4.828   3.731  -0.994  0.00  0.00    +0.078 A 
ATOM      3  C   UNL     1      -4.092   2.799  -0.358  0.00  0.00    +0.119 A 
ATOM      4  N   UNL     1      -4.000   3.155   0.958  0.00  0.00    -0.238 N 
ATOM      5  N   UNL     1      -4.703   4.346   1.130  0.00  0.00    -0.164 NA
ATOM      6  C   UNL     1      -3.276   2.372   1.963  0.00  0.00    +0.215 C 
ATOM      7  C   UNL     1      -3.089   0.943   1.439  0.00  0.00    +0.063 C 
ATOM      8  C   UNL     1      -2.514   0.979   0.019  0.00  0.00    +0.104 C 
ATOM      9  N   UNL     1      -3.489   1.645  -0.866  0.00  0.00    -0.322 N 
ATOM     10  H   UNL     1      -3.703   1.228  -1.861  0.00  0.00    +0.148 HD
ENDROOT
BRANCH   8  11
ATOM     11  C   UNL     1      -1.219   1.751   0.017  0.00  0.00    -0.027 A 
ATOM     12  C   UNL     1      -0.013   1.076   0.008  0.00  0.00    +0.006 A 
ATOM     13  C   UNL     1       1.175   1.783   0.000  0.00  0.00    +0.015 A 
ATOM     14  C   UNL     1       1.156   3.166   0.008  0.00  0.00    +0.018 A 
ATOM     15  C   UNL     1      -0.051   3.841   0.022  0.00  0.00    +0.015 A 
ATOM     16  C   UNL     1      -1.238   3.133   0.030  0.00  0.00    +0.006 A 
ATOM     17 BR   UNL     1       2.780   4.134  -0.003  0.00  0.00    -0.050 Br
ENDBRANCH   8  11
BRANCH   1  19
ATOM     18  N   UNL     1      -6.312   6.755   0.703  0.00  0.00    -0.305 N 
ATOM     19  C   UNL     1      -6.022   5.905  -0.302  0.00  0.00    +0.265 C 
ATOM     20  O   UNL     1      -6.432   6.128  -1.424  0.00  0.00    -0.268 OA
ATOM     21  H   UNL     1      -5.942   6.553   1.719  0.00  0.00    +0.149 HD
BRANCH  18  22
ATOM     22  C   UNL     1      -7.122   7.948   0.443  0.00  0.00    +0.147 C 
BRANCH  22  25
ATOM     23  C   UNL     1      -6.886  10.286   3.441  0.00  0.00    +0.008 A 
ATOM     24  C   UNL     1      -6.523   9.707   2.239  0.00  0.00    +0.013 A 
ATOM     25  C   UNL     1      -7.300   8.724   1.722  0.00  0.00    +0.007 A 
ATOM     26  S   UNL     1      -8.584   8.581   2.954  0.00  0.00    -0.100 S 
ATOM     27  C   UNL     1      -8.002   9.846   4.072  0.00  0.00    +0.045 A 
ENDBRANCH  22  25
ENDBRANCH  18  22
ENDBRANCH   1  19
BRANCH   6  28
ATOM     28  C   UNL     1      -4.079   2.339   3.264  0.00  0.00    +0.412 C 
ATOM     29  F   UNL     1      -5.327   1.752   3.028  0.00  0.00    -0.168 F 
ATOM     30  F   UNL     1      -3.386   1.592   4.222  0.00  0.00    -0.168 F 
ATOM     31  F   UNL     1      -4.260   3.645   3.733  0.00  0.00    -0.168 F 
ENDBRANCH   6  28
TORSDOF 5
