REMARK  Name = ZINC49403913
REMARK  8 active torsions:
REMARK  status: ('A' for Active; 'I' for Inactive)
REMARK    1  A    between atoms: C_1  and  C_2
REMARK    2  A    between atoms: C_5  and  N_9
REMARK    3  A    between atoms: C_6  and  C_8
REMARK    4  A    between atoms: C_10  and  C_12
REMARK    5  A    between atoms: C_12  and  N_13
REMARK    6  A    between atoms: N_21  and  C_24
REMARK    7  A    between atoms: C_24  and  C_25
REMARK    8  A    between atoms: C_24  and  C_26
REMARK                            x       y       z     vdW  Elec       q    Type
REMARK                         _______ _______ _______ _____ _____    ______ ____
ROOT
ATOM      1  N   UNL     1      -0.232  -6.826  -2.567  0.00  0.00    -0.282 N 
ATOM      2  C   UNL     1      -1.502  -6.972  -3.160  0.00  0.00    +0.086 A 
ATOM      3  C   UNL     1      -2.722  -6.715  -2.604  0.00  0.00    +0.093 A 
ATOM      4  S   UNL     1      -3.803  -7.093  -3.824  0.00  0.00    +0.006 S 
ATOM      5  N   UNL     1      -2.795  -7.556  -4.992  0.00  0.00    -0.203 NA
ATOM      6  C   UNL     1      -1.572  -7.439  -4.489  0.00  0.00    +0.161 A 
ATOM      7  C   UNL     1      -0.285  -7.745  -5.172  0.00  0.00    +0.284 A 
ATOM      8  O   UNL     1      -0.279  -8.150  -6.318  0.00  0.00    -0.265 OA
ATOM      9  N   UNL     1       0.869  -7.567  -4.506  0.00  0.00    -0.257 N 
ATOM     10  C   UNL     1       0.887  -7.115  -3.244  0.00  0.00    +0.333 A 
ATOM     11  O   UNL     1       1.960  -6.968  -2.691  0.00  0.00    -0.246 OA
ENDROOT
BRANCH   9  12
ATOM     12  C   UNL     1       2.136  -7.869  -5.178  0.00  0.00    +0.089 C 
ATOM     13  C   UNL     1       2.157  -9.342  -5.590  0.00  0.00    +0.031 C 
ATOM     14  C   UNL     1       2.276  -6.989  -6.422  0.00  0.00    +0.031 C 
ENDBRANCH   9  12
BRANCH   1  15
ATOM     15  C   UNL     1      -0.134  -6.343  -1.187  0.00  0.00    +0.223 C 
BRANCH  15  17
ATOM     16  N   UNL     1       0.059  -4.170  -0.021  0.00  0.00    -0.284 N 
ATOM     17  C   UNL     1      -0.040  -4.839  -1.187  0.00  0.00    +0.237 C 
ATOM     18  O   UNL     1      -0.054  -4.230  -2.236  0.00  0.00    -0.274 OA
ATOM     19  H   UNL     1       0.135  -4.658   0.814  0.00  0.00    +0.155 HD
BRANCH  16  24
ATOM     20  C   UNL     1       0.025   1.503   0.005  0.00  0.00    +0.044 C 
ATOM     21  C   UNL     1       0.034  -0.004  -0.002  0.00  0.00    -0.050 A 
ATOM     22  C   UNL     1       0.632  -0.685  -1.046  0.00  0.00    +0.005 A 
ATOM     23  C   UNL     1       0.641  -2.066  -1.055  0.00  0.00    +0.024 A 
ATOM     24  C   UNL     1       0.051  -2.771  -0.014  0.00  0.00    +0.036 A 
ATOM     25  C   UNL     1      -0.548  -2.083   1.033  0.00  0.00    -0.029 A 
ATOM     26  C   UNL     1      -0.550  -0.702   1.039  0.00  0.00    +0.008 A 
ATOM     27  C   UNL     1      -1.190  -2.843   2.165  0.00  0.00    +0.045 C 
ENDBRANCH  16  24
ENDBRANCH  15  17
ENDBRANCH   1  15
TORSDOF 4
