REMARK  Name = ZINC67292506
REMARK  5 active torsions:
REMARK  status: ('A' for Active; 'I' for Inactive)
REMARK    1  A    between atoms: C_1  and  C_2
REMARK    2  A    between atoms: C_7  and  N_8
REMARK    3  A    between atoms: C_10  and  C_20
REMARK    4  A    between atoms: N_22  and  C_23
REMARK    5  A    between atoms: C_23  and  C_24
REMARK                            x       y       z     vdW  Elec       q    Type
REMARK                         _______ _______ _______ _____ _____    ______ ____
ROOT
ATOM      1  N   UNL     1      -0.038  -0.007   2.390  0.00  0.00    -0.325 N 
ATOM      2  C   UNL     1      -0.102  -0.683   3.517  0.00  0.00    +0.212 A 
ATOM      3  C   UNL     1      -0.186   0.011   4.817  0.00  0.00    +0.097 A 
ATOM      4  C   UNL     1      -0.801  -0.670   5.859  0.00  0.00    +0.030 A 
ATOM      5  C   UNL     1      -1.311  -2.014   5.576  0.00  0.00    +0.019 A 
ATOM      6  C   UNL     1      -2.169  -2.659   6.475  0.00  0.00    +0.026 A 
ATOM      7  C   UNL     1      -2.636  -3.921   6.183  0.00  0.00    +0.019 A 
ATOM      8  C   UNL     1      -2.261  -4.554   5.006  0.00  0.00    +0.019 A 
ATOM      9  C   UNL     1      -1.415  -3.931   4.111  0.00  0.00    +0.048 A 
ATOM     10  C   UNL     1      -0.930  -2.661   4.385  0.00  0.00    +0.137 A 
ATOM     11  O   UNL     1      -0.098  -2.040   3.519  0.00  0.00    -0.439 OA
ATOM     12 BR   UNL     1      -3.795  -4.798   7.394  0.00  0.00    -0.050 Br
ATOM     13  H   UNL     1      -0.034   0.963   2.406  0.00  0.00    +0.169 HD
ENDROOT
BRANCH   1  20
ATOM     14  C   UNL     1      -1.891   0.739   0.369  0.00  0.00    +0.046 C 
ATOM     15  C   UNL     1      -0.865  -0.345   0.167  0.00  0.00    -0.027 A 
ATOM     16  C   UNL     1      -0.795  -1.015  -1.037  0.00  0.00    +0.008 A 
ATOM     17  C   UNL     1       0.146  -2.011  -1.226  0.00  0.00    +0.039 A 
ATOM     18  C   UNL     1       1.026  -2.344  -0.208  0.00  0.00    +0.125 A 
ATOM     19  C   UNL     1       0.967  -1.681   1.003  0.00  0.00    +0.064 A 
ATOM     20  C   UNL     1       0.022  -0.671   1.196  0.00  0.00    +0.048 A 
ATOM     21  F   UNL     1       1.942  -3.318  -0.400  0.00  0.00    -0.205 F 
ENDBRANCH   1  20
BRANCH   3  22
ATOM     22  C   UNL     1       0.357   1.367   5.001  0.00  0.00    +0.249 C 
ATOM     23  O   UNL     1       0.835   1.965   4.055  0.00  0.00    -0.270 OA
ATOM     24  N   UNL     1       0.326   1.947   6.217  0.00  0.00    -0.309 N 
ATOM     25  H   UNL     1      -0.109   1.496   6.958  0.00  0.00    +0.149 HD
BRANCH  24  26
ATOM     26  C   UNL     1       0.949   3.257   6.421  0.00  0.00    +0.136 C 
BRANCH  26  27
ATOM     27  C   UNL     1       0.773   3.685   7.879  0.00  0.00    +0.135 C 
ATOM     28  C   UNL     1       1.395   5.085   8.108  0.00  0.00    +0.035 C 
ATOM     29  C   UNL     1       0.581   5.572   9.338  0.00  0.00    +0.031 C 
ATOM     30  C   UNL     1      -0.805   4.941   9.084  0.00  0.00    +0.160 C 
ATOM     31  O   UNL     1      -0.621   3.836   8.190  0.00  0.00    -0.375 OA
ENDBRANCH  26  27
ENDBRANCH  24  26
ENDBRANCH   3  22
TORSDOF 4
