REMARK  Name = ZINC64426392
REMARK  8 active torsions:
REMARK  status: ('A' for Active; 'I' for Inactive)
REMARK    1  A    between atoms: C_1  and  C_2
REMARK    2  A    between atoms: C_2  and  C_3
REMARK    3  A    between atoms: C_3  and  C_4
REMARK    4  A    between atoms: C_4  and  N_5
REMARK    5  A    between atoms: N_8  and  N_9
REMARK    6  A    between atoms: C_10  and  C_12
REMARK    7  A    between atoms: C_12  and  N_13
REMARK    8  A    between atoms: C_14  and  C_16
REMARK                            x       y       z     vdW  Elec       q    Type
REMARK                         _______ _______ _______ _____ _____    ______ ____
ROOT
ATOM      1  C   UNL     1       3.886  -2.776  -6.824  0.00  0.00    +0.201 C 
ENDROOT
BRANCH   1   3
ATOM      2  N   UNL     1       2.706  -3.334  -4.723  0.00  0.00    -0.232 N 
ATOM      3  C   UNL     1       3.337  -3.769  -5.832  0.00  0.00    +0.246 C 
ATOM      4  O   UNL     1       3.462  -4.958  -6.032  0.00  0.00    -0.273 OA
ATOM      5  H   UNL     1       2.606  -2.382  -4.564  0.00  0.00    +0.173 HD
BRANCH   2   9
ATOM      6  N   UNL     1       1.425  -2.500  -2.470  0.00  0.00    -0.298 N 
ATOM      7  C   UNL     1       1.564  -3.822  -2.692  0.00  0.00    +0.316 C 
ATOM      8  O   UNL     1       1.120  -4.622  -1.892  0.00  0.00    -0.251 OA
ATOM      9  N   UNL     1       2.195  -4.256  -3.801  0.00  0.00    -0.218 N 
ATOM     10  H   UNL     1       1.779  -1.861  -3.109  0.00  0.00    +0.150 HD
ATOM     11  H   UNL     1       2.295  -5.208  -3.961  0.00  0.00    +0.174 HD
BRANCH   6  12
ATOM     12  C   UNL     1       0.739  -2.027  -1.265  0.00  0.00    +0.106 C 
BRANCH  12  13
ATOM     13  C   UNL     1       0.718  -0.497  -1.257  0.00  0.00    +0.018 C 
BRANCH  13  15
ATOM     14  C   UNL     1      -0.019   1.526   0.010  0.00  0.00    +0.004 C 
ATOM     15  C   UNL     1       0.002  -0.004   0.002  0.00  0.00    -0.002 C 
ENDBRANCH  13  15
ENDBRANCH  12  13
ENDBRANCH   6  12
ENDBRANCH   2   9
ENDBRANCH   1   3
BRANCH   1  16
ATOM     16  N   UNL     1       4.520  -3.494  -7.933  0.00  0.00    -0.306 N 
ATOM     17  C   UNL     1       5.085  -2.807  -8.945  0.00  0.00    +0.220 C 
ATOM     18  O   UNL     1       5.069  -1.594  -8.939  0.00  0.00    -0.275 OA
ATOM     19  H   UNL     1       4.533  -4.464  -7.938  0.00  0.00    +0.149 HD
BRANCH  17  20
ATOM     20  C   UNL     1       5.737  -3.546 -10.086  0.00  0.00    +0.048 C 
ATOM     21  C   UNL     1       6.876  -4.413  -9.547  0.00  0.00    +0.019 C 
ATOM     22  C   UNL     1       7.538  -5.162 -10.705  0.00  0.00    -0.009 C 
ATOM     23  C   UNL     1       8.096  -4.155 -11.712  0.00  0.00    +0.007 C 
ATOM     24  C   UNL     1       6.957  -3.288 -12.251  0.00  0.00    -0.009 C 
ATOM     25  C   UNL     1       6.295  -2.538 -11.093  0.00  0.00    +0.019 C 
ATOM     26  C   UNL     1       5.921  -4.178 -12.941  0.00  0.00    +0.007 C 
ATOM     27  C   UNL     1       5.363  -5.185 -11.934  0.00  0.00    -0.009 C 
ATOM     28  C   UNL     1       6.502  -6.053 -11.395  0.00  0.00    +0.007 C 
ATOM     29  C   UNL     1       4.701  -4.436 -10.776  0.00  0.00    +0.019 C 
ENDBRANCH  17  20
ENDBRANCH   1  16
TORSDOF 7
