REMARK  Name = ZINC13059533
REMARK  5 active torsions:
REMARK  status: ('A' for Active; 'I' for Inactive)
REMARK    1  A    between atoms: C_5  and  C_7
REMARK    2  A    between atoms: C_8  and  C_9
REMARK    3  A    between atoms: N_11  and  C_12
REMARK    4  A    between atoms: C_16  and  S_18
REMARK    5  A    between atoms: S_18  and  N_21
REMARK                            x       y       z     vdW  Elec       q    Type
REMARK                         _______ _______ _______ _____ _____    ______ ____
ROOT
ATOM      1  C   UNL     1      -0.944  -6.404   0.065  0.00  0.00    +0.036 A 
ATOM      2  C   UNL     1       0.296  -7.024   0.150  0.00  0.00    +0.023 A 
ATOM      3  C   UNL     1       0.374  -8.400   0.230  0.00  0.00    +0.004 A 
ATOM      4  C   UNL     1      -0.780  -9.162   0.225  0.00  0.00    +0.029 A 
ATOM      5  C   UNL     1      -2.016  -8.548   0.141  0.00  0.00    +0.114 A 
ATOM      6  C   UNL     1      -2.102  -7.171   0.066  0.00  0.00    +0.052 A 
ENDROOT
BRANCH   1   9
ATOM      7  C   UNL     1      -2.044  -4.360   0.583  0.00  0.00    +0.241 C 
ATOM      8  O   UNL     1      -2.934  -4.989   1.124  0.00  0.00    -0.270 OA
ATOM      9  N   UNL     1      -1.027  -5.011  -0.016  0.00  0.00    -0.282 N 
ATOM     10  H   UNL     1      -0.353  -4.512  -0.504  0.00  0.00    +0.155 HD
BRANCH   7  12
ATOM     11  C   UNL     1      -3.094  -2.246   1.185  0.00  0.00    +0.016 C 
ATOM     12  C   UNL     1      -2.076  -2.897   0.585  0.00  0.00    +0.068 C 
BRANCH  11  17
ATOM     13  C   UNL     1      -2.142   1.329   0.575  0.00  0.00    +0.001 A 
ATOM     14  C   UNL     1      -3.188   1.996   1.191  0.00  0.00    +0.003 A 
ATOM     15  C   UNL     1      -4.203   1.287   1.806  0.00  0.00    +0.039 A 
ATOM     16  C   UNL     1      -4.181  -0.095   1.809  0.00  0.00    +0.131 A 
ATOM     17  C   UNL     1      -3.127  -0.776   1.187  0.00  0.00    +0.010 A 
ATOM     18  C   UNL     1      -2.104  -0.049   0.568  0.00  0.00    +0.011 A 
ATOM     19  F   UNL     1      -5.174  -0.787   2.411  0.00  0.00    -0.205 F 
ENDBRANCH  11  17
ENDBRANCH   7  12
ENDBRANCH   1   9
BRANCH   5  20
ATOM     20  S   UNL     1      -3.484  -9.522   0.135  0.00  0.00    +0.100 S 
ATOM     21  O   UNL     1      -4.487  -8.742  -0.501  0.00  0.00    -0.146 OA
ATOM     22  O   UNL     1      -3.113 -10.813  -0.330  0.00  0.00    -0.146 OA
BRANCH  20  23
ATOM     23  N   UNL     1      -3.956  -9.705   1.712  0.00  0.00    -0.118 NA
ATOM     24  C   UNL     1      -5.019 -10.387   1.994  0.00  0.00    +0.117 C 
ATOM     25  C   UNL     1      -5.835 -11.029   0.875  0.00  0.00    +0.073 C 
ATOM     26  C   UNL     1      -5.652 -12.527   0.988  0.00  0.00    +0.008 C 
ATOM     27  C   UNL     1      -6.665 -13.196   1.920  0.00  0.00    +0.002 C 
ATOM     28  C   UNL     1      -6.899 -12.413   3.212  0.00  0.00    +0.019 C 
ATOM     29  C   UNL     1      -5.624 -11.876   3.824  0.00  0.00    +0.102 C 
ATOM     30  N   UNL     1      -5.396 -10.534   3.249  0.00  0.00    -0.331 N 
ATOM     31  H   UNL     1      -5.527  -9.749   3.804  0.00  0.00    +0.147 HD
ENDBRANCH  20  23
ENDBRANCH   5  20
TORSDOF 5
