REMARK  Name = ZINC08555655
REMARK  8 active torsions:
REMARK  status: ('A' for Active; 'I' for Inactive)
REMARK    1  A    between atoms: C_1  and  C_2
REMARK    2  A    between atoms: C_4  and  C_8
REMARK    3  A    between atoms: C_5  and  C_7
REMARK    4  A    between atoms: C_15  and  N_29
REMARK    5  A    between atoms: C_16  and  C_27
REMARK    6  A    between atoms: C_17  and  C_19
REMARK    7  A    between atoms: C_23  and  O_25
REMARK    8  A    between atoms: O_25  and  C_26
REMARK                            x       y       z     vdW  Elec       q    Type
REMARK                         _______ _______ _______ _____ _____    ______ ____
ROOT
ATOM      1  C   UNL     1      -1.848  -3.149  -0.042  0.00  0.00    +0.101 A 
ATOM      2  C   UNL     1      -3.217  -2.892   0.077  0.00  0.00    +0.054 A 
ATOM      3  C   UNL     1      -3.876  -4.087   0.040  0.00  0.00    +0.223 A 
ATOM      4  N   UNL     1      -2.952  -5.061  -0.096  0.00  0.00    -0.246 N 
ATOM      5  H   UNL     1      -3.131  -6.013  -0.151  0.00  0.00    +0.192 HD
ATOM      6  N   UNL     1      -1.688  -4.454  -0.152  0.00  0.00    -0.171 NA
ATOM      7  O   UNL     1      -5.226  -4.182   0.130  0.00  0.00    -0.423 OA
ATOM      8  C   UNL     1      -5.943  -3.049  -0.017  0.00  0.00    +0.200 C 
ATOM      9  C   UNL     1      -5.405  -1.809   0.015  0.00  0.00    +0.098 C 
ATOM     10  C   UNL     1      -3.930  -1.573   0.226  0.00  0.00    +0.102 C 
ENDROOT
BRANCH   1  14
ATOM     11  C   UNL     1       0.265   1.203  -1.587  0.00  0.00    +0.051 C 
ATOM     12  C   UNL     1       0.141  -0.091  -0.826  0.00  0.00    -0.012 A 
ATOM     13  C   UNL     1      -0.865  -0.995  -0.845  0.00  0.00    +0.021 A 
ATOM     14  C   UNL     1      -0.766  -2.133  -0.051  0.00  0.00    +0.013 A 
ATOM     15  C   UNL     1       0.349  -2.294   0.722  0.00  0.00    -0.004 A 
ATOM     16  S   UNL     1       1.288  -0.827   0.327  0.00  0.00    -0.098 S 
ATOM     17  C   UNL     1       0.700  -3.421   1.659  0.00  0.00    +0.052 C 
ENDBRANCH   1  14
BRANCH  10  18
ATOM     18  C   UNL     1      -3.696  -1.021   1.608  0.00  0.00    -0.031 A 
ATOM     19  C   UNL     1      -4.037  -1.771   2.719  0.00  0.00    +0.005 A 
ATOM     20  C   UNL     1      -3.823  -1.267   3.988  0.00  0.00    +0.004 A 
ATOM     21  C   UNL     1      -3.268  -0.012   4.150  0.00  0.00    +0.045 A 
ATOM     22  C   UNL     1      -2.925   0.742   3.038  0.00  0.00    +0.120 A 
ATOM     23  C   UNL     1      -3.135   0.232   1.765  0.00  0.00    +0.050 A 
BRANCH  22  24
ATOM     24  O   UNL     1      -2.379   1.977   3.194  0.00  0.00    -0.495 OA
ATOM     25  C   UNL     1      -2.186   2.436   4.534  0.00  0.00    +0.277 C 
ENDBRANCH  22  24
ENDBRANCH  10  18
BRANCH   8  26
ATOM     26  N   UNL     1      -7.297  -3.161  -0.210  0.00  0.00    -0.328 N 
ATOM     27  H   UNL     1      -7.712  -4.037  -0.237  0.00  0.00    +0.145 HD
ATOM     28  H   UNL     1      -7.839  -2.364  -0.318  0.00  0.00    +0.145 HD
ENDBRANCH   8  26
BRANCH   9  29
ATOM     29  C   UNL     1      -6.266  -0.679  -0.159  0.00  0.00    +0.101 C 
ATOM     30  N   UNL     1      -6.950   0.218  -0.296  0.00  0.00    -0.191 NA
ENDBRANCH   9  29
TORSDOF 5
