REMARK  Name = ZINC12099571
REMARK  7 active torsions:
REMARK  status: ('A' for Active; 'I' for Inactive)
REMARK    1  A    between atoms: C_4  and  C_7
REMARK    2  A    between atoms: C_7  and  C_8
REMARK    3  A    between atoms: C_13  and  C_14
REMARK    4  A    between atoms: C_13  and  N_63
REMARK    5  A    between atoms: C_17  and  C_22
REMARK    6  A    between atoms: N_24  and  C_25
REMARK    7  A    between atoms: C_25  and  C_26
REMARK                            x       y       z     vdW  Elec       q    Type
REMARK                         _______ _______ _______ _____ _____    ______ ____
ROOT
ATOM      1  C   UNL     1      10.003  -2.745  -1.395  0.00  0.00    +0.003 A 
ATOM      2  C   UNL     1      10.424  -2.704  -0.105  0.00  0.00    +0.020 A 
ATOM      3  C   UNL     1       9.580  -2.212   0.891  0.00  0.00    +0.020 A 
ATOM      4  C   UNL     1       8.304  -1.777   0.540  0.00  0.00    +0.101 A 
ATOM      5  C   UNL     1       7.911  -1.839  -0.822  0.00  0.00    +0.261 A 
ATOM      6  O   UNL     1       6.801  -1.459  -1.155  0.00  0.00    -0.267 OA
ATOM      7  N   UNL     1       8.767  -2.318  -1.744  0.00  0.00    -0.327 N 
ATOM      8  H   UNL     1       8.493  -2.358  -2.674  0.00  0.00    +0.169 HD
ENDROOT
BRANCH   4   9
ATOM      9  C   UNL     1       7.383  -1.256   1.562  0.00  0.00    +0.250 C 
ATOM     10  O   UNL     1       7.769  -1.100   2.705  0.00  0.00    -0.270 OA
ATOM     11  N   UNL     1       6.112  -0.953   1.232  0.00  0.00    -0.307 N 
ATOM     12  H   UNL     1       5.825  -1.008   0.308  0.00  0.00    +0.149 HD
BRANCH  11  13
ATOM     13  C   UNL     1       5.165  -0.539   2.270  0.00  0.00    +0.140 C 
BRANCH  13  14
ATOM     14  C   UNL     1       3.823  -0.259   1.644  0.00  0.00    -0.027 A 
ATOM     15  C   UNL     1       2.893  -1.274   1.524  0.00  0.00    +0.009 A 
ATOM     16  C   UNL     1       1.661  -1.023   0.949  0.00  0.00    +0.050 A 
ATOM     17  C   UNL     1       1.356   0.249   0.492  0.00  0.00    +0.166 A 
ATOM     18  C   UNL     1       2.293   1.272   0.613  0.00  0.00    +0.167 A 
ATOM     19  C   UNL     1       3.526   1.012   1.190  0.00  0.00    +0.054 A 
ATOM     20  O   UNL     1       1.760   2.416   0.094  0.00  0.00    -0.453 OA
ATOM     21  C   UNL     1       0.340   2.182   0.027  0.00  0.00    +0.466 C 
ATOM     22  O   UNL     1       0.235   0.752  -0.103  0.00  0.00    -0.453 OA
ENDBRANCH  13  14
ENDBRANCH  11  13
ENDBRANCH   4   9
BRANCH   1  23
ATOM     23  C   UNL     1      10.931  -3.275  -2.458  0.00  0.00    -0.025 C 
BRANCH  23  29
ATOM     24  C   UNL     1       8.564  -6.757  -3.202  0.00  0.00    -0.010 C 
ATOM     25  C   UNL     1       8.706  -5.695  -4.295  0.00  0.00    -0.015 C 
ATOM     26  C   UNL     1       9.138  -4.371  -3.660  0.00  0.00    -0.078 C 
ATOM     27  C   UNL     1      10.293  -5.537  -1.877  0.00  0.00    -0.078 C 
ATOM     28  C   UNL     1       9.896  -6.895  -2.459  0.00  0.00    -0.015 C 
ATOM     29  N   UNL     1      10.437  -4.565  -2.982  0.00  0.00    +0.383 N 
ATOM     30  H   UNL     1      11.115  -4.930  -3.661  0.00  0.00    -0.081 HD
BRANCH  24  31
ATOM     31  C   UNL     1       8.191  -8.098  -3.837  0.00  0.00    +0.038 C 
BRANCH  31  35
ATOM     32  C   UNL     1       7.455 -10.975  -0.766  0.00  0.00    +0.000 A 
ATOM     33  C   UNL     1       6.419 -10.195  -1.245  0.00  0.00    +0.000 A 
ATOM     34  C   UNL     1       6.657  -9.264  -2.239  0.00  0.00    +0.003 A 
ATOM     35  C   UNL     1       7.931  -9.113  -2.754  0.00  0.00    -0.047 A 
ATOM     36  C   UNL     1       8.966  -9.896  -2.278  0.00  0.00    +0.003 A 
ATOM     37  C   UNL     1       8.729 -10.823  -1.281  0.00  0.00    +0.000 A 
ENDBRANCH  31  35
ENDBRANCH  24  31
ENDBRANCH  23  29
ENDBRANCH   1  23
TORSDOF 7
