REMARK  Name = ZINC63068786
REMARK  8 active torsions:
REMARK  status: ('A' for Active; 'I' for Inactive)
REMARK    1  A    between atoms: C_1  and  C_2
REMARK    2  A    between atoms: C_3  and  C_9
REMARK    3  A    between atoms: C_4  and  C_8
REMARK    4  A    between atoms: N_5  and  C_7
REMARK    5  A    between atoms: C_9  and  C_10
REMARK    6  A    between atoms: C_9  and  N_11
REMARK    7  A    between atoms: C_17  and  C_20
REMARK    8  A    between atoms: C_20  and  C_21
REMARK                            x       y       z     vdW  Elec       q    Type
REMARK                         _______ _______ _______ _____ _____    ______ ____
ROOT
ATOM      1  N   UNL     1       0.951   0.754  -2.727  0.00  0.00    -0.293 N 
ATOM      2  C   UNL     1       1.494   1.003  -3.936  0.00  0.00    +0.303 C 
ATOM      3  O   UNL     1       1.257   0.264  -4.872  0.00  0.00    -0.253 OA
ATOM      4  N   UNL     1       2.299   2.070  -4.106  0.00  0.00    -0.286 N 
ATOM      5  C   UNL     1       2.691   2.902  -2.960  0.00  0.00    +0.109 C 
ATOM      6  C   UNL     1       4.219   3.007  -2.927  0.00  0.00    +0.023 C 
ATOM      7  C   UNL     1       4.720   3.522  -4.279  0.00  0.00    +0.001 C 
ATOM      8  C   UNL     1       4.327   2.534  -5.380  0.00  0.00    +0.023 C 
ATOM      9  C   UNL     1       2.805   2.421  -5.440  0.00  0.00    +0.109 C 
ATOM     10  H   UNL     1       1.196   1.300  -1.964  0.00  0.00    +0.151 HD
ENDROOT
BRANCH   1  11
ATOM     11  C   UNL     1      -0.010  -0.341  -2.567  0.00  0.00    +0.105 C 
ATOM     12  C   UNL     1      -1.411   0.153  -2.932  0.00  0.00    +0.033 C 
BRANCH  11  15
ATOM     13  C   UNL     1      -0.032   1.512   0.004  0.00  0.00    +0.068 C 
ATOM     14  C   UNL     1      -0.010   0.005  -0.000  0.00  0.00    +0.065 A 
ATOM     15  C   UNL     1       0.000  -0.812  -1.136  0.00  0.00    +0.016 A 
ATOM     16  C   UNL     1       0.020  -2.100  -0.722  0.00  0.00    +0.041 A 
ATOM     17  N   UNL     1       0.021  -2.098   0.628  0.00  0.00    -0.271 N 
ATOM     18  N   UNL     1       0.008  -0.765   1.057  0.00  0.00    -0.176 NA
ATOM     19  C   UNL     1       0.040  -3.282   1.491  0.00  0.00    +0.172 C 
ATOM     20  C   UNL     1       0.036  -3.318  -1.609  0.00  0.00    +0.065 C 
ENDBRANCH  11  15
ENDBRANCH   1  11
BRANCH   7  21
ATOM     21  C   UNL     1       6.243   3.661  -4.238  0.00  0.00    +0.099 C 
BRANCH  21  22
ATOM     22  C   UNL     1       6.725   4.282  -5.524  0.00  0.00    +0.216 C 
ATOM     23  O   UNL     1       5.929   4.584  -6.387  0.00  0.00    -0.276 OA
ATOM     24  N   UNL     1       8.041   4.503  -5.713  0.00  0.00    -0.301 N 
ATOM     25  C   UNL     1       9.111   4.181  -4.757  0.00  0.00    +0.108 C 
ATOM     26  C   UNL     1      10.443   4.632  -5.391  0.00  0.00    +0.020 C 
ATOM     27  C   UNL     1       9.993   5.697  -6.426  0.00  0.00    +0.020 C 
ATOM     28  C   UNL     1       8.647   5.101  -6.917  0.00  0.00    +0.108 C 
ENDBRANCH  21  22
ENDBRANCH   7  21
TORSDOF 4
