REMARK  Name = ZINC13132969
REMARK  4 active torsions:
REMARK  status: ('A' for Active; 'I' for Inactive)
REMARK    1  A    between atoms: C_9  and  C_13
REMARK    2  A    between atoms: C_13  and  C_14
REMARK    3  A    between atoms: C_13  and  C_20
REMARK    4  A    between atoms: C_30  and  O_31
REMARK                            x       y       z     vdW  Elec       q    Type
REMARK                         _______ _______ _______ _____ _____    ______ ____
ROOT
ATOM      1  C   UNL     1       2.714  -4.241  -0.047  0.00  0.00    +0.119 C 
ENDROOT
BRANCH   1  10
ATOM      2  C   UNL     1       2.647   1.688   1.912  0.00  0.00    +0.001 A 
ATOM      3  C   UNL     1       3.102   2.219   0.714  0.00  0.00    +0.004 A 
ATOM      4  C   UNL     1       3.380   1.398  -0.359  0.00  0.00    +0.047 A 
ATOM      5  C   UNL     1       3.205   0.025  -0.244  0.00  0.00    +0.143 A 
ATOM      6  C   UNL     1       2.745  -0.511   0.968  0.00  0.00    +0.065 A 
ATOM      7  C   UNL     1       2.467   0.328   2.045  0.00  0.00    +0.015 A 
ATOM      8  C   UNL     1       2.567  -1.974   1.067  0.00  0.00    +0.201 A 
ATOM      9  O   UNL     1       2.169  -2.497   2.095  0.00  0.00    -0.287 OA
ATOM     10  C   UNL     1       2.873  -2.743  -0.076  0.00  0.00    +0.098 A 
ATOM     11  C   UNL     1       3.312  -2.124  -1.203  0.00  0.00    +0.345 A 
ATOM     12  O   UNL     1       3.471  -0.797  -1.282  0.00  0.00    -0.422 OA
ATOM     13  O   UNL     1       3.600  -2.877  -2.285  0.00  0.00    -0.245 OA
ENDBRANCH   1  10
BRANCH   1  14
ATOM     14  C   UNL     1       2.221  -4.668   1.312  0.00  0.00    +0.093 A 
ATOM     15  C   UNL     1       0.870  -4.477   1.668  0.00  0.00    +0.200 A 
ATOM     16  O   UNL     1       0.075  -3.968   0.895  0.00  0.00    -0.287 OA
ATOM     17  C   UNL     1       0.455  -4.918   3.016  0.00  0.00    +0.065 A 
ATOM     18  C   UNL     1      -0.860  -4.770   3.454  0.00  0.00    +0.015 A 
ATOM     19  C   UNL     1      -1.206  -5.196   4.719  0.00  0.00    +0.001 A 
ATOM     20  C   UNL     1      -0.254  -5.767   5.550  0.00  0.00    +0.004 A 
ATOM     21  C   UNL     1       1.050  -5.918   5.126  0.00  0.00    +0.047 A 
ATOM     22  C   UNL     1       1.419  -5.496   3.855  0.00  0.00    +0.143 A 
ATOM     23  O   UNL     1       2.688  -5.636   3.420  0.00  0.00    -0.425 OA
ATOM     24  C   UNL     1       3.074  -5.244   2.199  0.00  0.00    +0.292 A 
BRANCH  24  25
ATOM     25  O   UNL     1       4.362  -5.423   1.837  0.00  0.00    -0.480 OA
ATOM     26  H   UNL     1       4.907  -5.838   2.519  0.00  0.00    +0.295 HD
ENDBRANCH  24  25
ENDBRANCH   1  14
BRANCH   1  27
ATOM     27  C   UNL     1       1.719  -4.662  -1.097  0.00  0.00    +0.054 A 
ATOM     28  C   UNL     1       0.650  -3.838  -1.394  0.00  0.00    +0.024 A 
ATOM     29  C   UNL     1      -0.260  -4.234  -2.362  0.00  0.00    +0.003 A 
ATOM     30  C   UNL     1      -0.059  -5.449  -2.999  0.00  0.00    +0.020 A 
ATOM     31  C   UNL     1       1.033  -6.220  -2.650  0.00  0.00    +0.111 A 
ATOM     32  N   UNL     1       1.882  -5.809  -1.727  0.00  0.00    -0.259 NA
ENDBRANCH   1  27
TORSDOF 4
