REMARK  Name = ZINC40425064
REMARK  4 active torsions:
REMARK  status: ('A' for Active; 'I' for Inactive)
REMARK    1  A    between atoms: C_1  and  C_2
REMARK    2  A    between atoms: C_3  and  C_29
REMARK    3  A    between atoms: C_6  and  N_22
REMARK    4  A    between atoms: C_12  and  C_16
REMARK                            x       y       z     vdW  Elec       q    Type
REMARK                         _______ _______ _______ _____ _____    ______ ____
ROOT
ATOM      1  C   UNL     1      -0.450   1.477   0.046  0.00  0.00    +0.065 C 
ATOM      2  C   UNL     1      -0.295  -0.021   0.026  0.00  0.00    +0.034 A 
ATOM      3  C   UNL     1      -0.390  -0.811  -1.067  0.00  0.00    +0.041 A 
ATOM      4  N   UNL     1      -0.187  -2.098  -0.654  0.00  0.00    -0.302 N 
ATOM      5  C   UNL     1      -0.168  -3.292  -1.322  0.00  0.00    +0.119 A 
ATOM      6  C   UNL     1       0.059  -4.451  -0.658  0.00  0.00    +0.071 A 
ATOM      7  C   UNL     1       0.282  -4.444   0.737  0.00  0.00    +0.002 A 
ATOM      8  C   UNL     1       0.271  -3.259   1.407  0.00  0.00    +0.074 A 
ATOM      9  C   UNL     1       0.029  -2.057   0.696  0.00  0.00    +0.138 A 
ATOM     10  N   UNL     1      -0.035  -0.792   1.085  0.00  0.00    -0.342 N 
ATOM     11  N   UNL     1       0.500  -3.204   2.784  0.00  0.00    -0.334 N 
ATOM     12  C   UNL     1       0.455  -4.448   3.565  0.00  0.00    +0.101 C 
ATOM     13  C   UNL     1       1.226  -5.518   2.780  0.00  0.00    +0.032 C 
ATOM     14  C   UNL     1       0.520  -5.751   1.444  0.00  0.00    +0.041 C 
ATOM     15  C   UNL     1      -0.669  -0.356  -2.477  0.00  0.00    +0.066 C 
ATOM     16  H   UNL     1       0.686  -2.357   3.219  0.00  0.00    +0.147 HD
ATOM     17  H   UNL     1       0.085  -0.476   1.994  0.00  0.00    +0.167 HD
ENDROOT
BRANCH   6  18
ATOM     18  N   UNL     1       0.073  -5.665  -1.360  0.00  0.00    -0.282 N 
ATOM     19  C   UNL     1      -0.886  -6.595  -1.112  0.00  0.00    +0.095 A 
ATOM     20  C   UNL     1      -0.892  -7.774  -1.777  0.00  0.00    +0.018 A 
ATOM     21  C   UNL     1       0.097  -8.044  -2.733  0.00  0.00    +0.007 A 
ATOM     22  C   UNL     1       1.058  -7.108  -2.981  0.00  0.00    +0.071 A 
ATOM     23  C   UNL     1       1.033  -5.893  -2.276  0.00  0.00    +0.256 A 
ATOM     24  O   UNL     1       1.884  -5.045  -2.492  0.00  0.00    -0.267 OA
ENDBRANCH   6  18
BRANCH  12  25
ATOM     25  C   UNL     1       1.102  -4.232   4.908  0.00  0.00    -0.027 A 
ATOM     26  C   UNL     1       2.247  -3.465   5.009  0.00  0.00    +0.005 A 
ATOM     27  C   UNL     1       2.841  -3.267   6.241  0.00  0.00    +0.000 A 
ATOM     28  C   UNL     1       2.289  -3.836   7.374  0.00  0.00    +0.000 A 
ATOM     29  C   UNL     1       1.143  -4.603   7.274  0.00  0.00    +0.000 A 
ATOM     30  C   UNL     1       0.547  -4.797   6.042  0.00  0.00    +0.005 A 
ENDBRANCH  12  25
TORSDOF 2
