REMARK  Name = ZINC19830880
REMARK  8 active torsions:
REMARK  status: ('A' for Active; 'I' for Inactive)
REMARK    1  A    between atoms: C_1  and  C_2
REMARK    2  A    between atoms: C_2  and  C_3
REMARK    3  A    between atoms: C_2  and  C_4
REMARK    4  A    between atoms: C_5  and  C_24
REMARK    5  A    between atoms: C_6  and  N_23
REMARK    6  A    between atoms: C_10  and  N_22
REMARK    7  A    between atoms: C_11  and  C_13
REMARK    8  A    between atoms: C_13  and  C_15
REMARK                            x       y       z     vdW  Elec       q    Type
REMARK                         _______ _______ _______ _____ _____    ______ ____
ROOT
ATOM      1  C   UNL     1       0.053  -2.489  -0.571  0.00  0.00    -0.013 A 
ATOM      2  C   UNL     1       0.710  -3.661  -0.919  0.00  0.00    +0.095 A 
ATOM      3  C   UNL     1       1.721  -3.635  -1.903  0.00  0.00    +0.135 A 
ATOM      4  N   UNL     1       2.042  -2.495  -2.493  0.00  0.00    -0.224 NA
ATOM      5  C   UNL     1       1.439  -1.365  -2.187  0.00  0.00    +0.113 A 
ATOM      6  C   UNL     1       0.413  -1.281  -1.214  0.00  0.00    +0.034 A 
ATOM      7  C   UNL     1      -0.136   0.050  -1.009  0.00  0.00    +0.052 A 
ATOM      8  C   UNL     1       0.375   1.091  -1.760  0.00  0.00    +0.083 A 
ATOM      9  S   UNL     1       1.616   0.305  -2.767  0.00  0.00    -0.063 S 
ENDROOT
BRANCH   1  11
ATOM     10  C   UNL     1      -1.793  -3.825   0.407  0.00  0.00    +0.012 C 
ATOM     11  C   UNL     1      -1.028  -2.502   0.479  0.00  0.00    +0.015 C 
ATOM     12  C   UNL     1      -0.396  -2.353   1.864  0.00  0.00    +0.012 C 
ENDBRANCH   1  11
BRANCH   7  13
ATOM     13  N   UNL     1      -1.145   0.267  -0.086  0.00  0.00    -0.356 N 
ATOM     14  H   UNL     1      -1.550   1.280   0.058  0.00  0.00    +0.142 HD
ATOM     15  H   UNL     1      -1.542  -0.572   0.504  0.00  0.00    +0.142 HD
ENDBRANCH   7  13
BRANCH   3  16
ATOM     16  N   UNL     1       2.376  -4.801  -2.251  0.00  0.00    -0.342 N 
ATOM     17  H   UNL     1       3.165  -4.781  -3.018  0.00  0.00    +0.144 HD
ATOM     18  H   UNL     1       2.109  -5.749  -1.761  0.00  0.00    +0.144 HD
ENDBRANCH   3  16
BRANCH   8  19
ATOM     19  C   UNL     1      -0.000   2.453  -1.737  0.00  0.00    +0.202 C 
ATOM     20  O   UNL     1      -1.136   2.767  -1.427  0.00  0.00    -0.286 OA
BRANCH  19  21
ATOM     21  C   UNL     1       0.985   3.498  -2.091  0.00  0.00    +0.023 A 
ATOM     22  C   UNL     1       2.326   3.160  -2.284  0.00  0.00    +0.013 A 
ATOM     23  C   UNL     1       3.239   4.137  -2.620  0.00  0.00    +0.021 A 
ATOM     24  C   UNL     1       2.830   5.454  -2.754  0.00  0.00    +0.041 A 
ATOM     25  C   UNL     1       1.503   5.796  -2.558  0.00  0.00    +0.021 A 
ATOM     26  C   UNL     1       0.579   4.827  -2.228  0.00  0.00    +0.013 A 
ATOM     27 CL   UNL     1       3.987   6.680  -3.170  0.00  0.00    -0.084 Cl
ENDBRANCH  19  21
ENDBRANCH   8  19
BRANCH   2  28
ATOM     28  C   UNL     1       0.362  -4.895  -0.281  0.00  0.00    +0.103 C 
ATOM     29  N   UNL     1       0.086  -5.874   0.225  0.00  0.00    -0.191 NA
ENDBRANCH   2  28
TORSDOF 6
