REMARK  Name = ZINC12762974
REMARK  17 active torsions:
REMARK  status: ('A' for Active; 'I' for Inactive)
REMARK    1  A    between atoms: C_1  and  C_2
REMARK    2  A    between atoms: C_2  and  O_3
REMARK    3  A    between atoms: O_3  and  C_4
REMARK    4  A    between atoms: C_4  and  C_6
REMARK    5  A    between atoms: C_7  and  C_30
REMARK    6  A    between atoms: C_8  and  C_26
REMARK    7  A    between atoms: C_10  and  N_11
REMARK    8  A    between atoms: C_12  and  C_14
REMARK    9  A    between atoms: C_14  and  N_57
REMARK   10  A    between atoms: C_15  and  N_57
REMARK   11  A    between atoms: C_16  and  C_17
REMARK   12  A    between atoms: C_16  and  N_57
REMARK   13  A    between atoms: C_20  and  O_25
REMARK   14  A    between atoms: C_21  and  O_23
REMARK   15  A    between atoms: O_23  and  C_24
REMARK   16  A    between atoms: C_26  and  O_28
REMARK   17  A    between atoms: O_28  and  C_29
REMARK                            x       y       z     vdW  Elec       q    Type
REMARK                         _______ _______ _______ _____ _____    ______ ____
ROOT
ATOM      1  N   UNL     1       1.143   1.898   0.001  0.00  0.00    -0.281 N 
ATOM      2  C   UNL     1      -0.014   1.208   0.009  0.00  0.00    +0.201 C 
ATOM      3  O   UNL     1       0.002  -0.004   0.002  0.00  0.00    -0.278 OA
ATOM      4  H   UNL     1       1.130   2.868   0.007  0.00  0.00    +0.155 HD
ENDROOT
BRANCH   1   9
ATOM      5  C   UNL     1       3.644   1.754  -0.023  0.00  0.00    +0.091 A 
ATOM      6  C   UNL     1       4.705   0.862  -0.037  0.00  0.00    -0.014 A 
ATOM      7  C   UNL     1       4.412  -0.475  -0.041  0.00  0.00    +0.102 A 
ATOM      8  S   UNL     1       2.629  -0.486  -0.018  0.00  0.00    -0.066 S 
ATOM      9  C   UNL     1       2.349   1.224  -0.014  0.00  0.00    +0.087 A 
ATOM     10  C   UNL     1       6.132   1.348  -0.049  0.00  0.00    +0.046 C 
BRANCH   5  11
ATOM     11  C   UNL     1       3.871   3.203  -0.019  0.00  0.00    +0.342 C 
ATOM     12  O   UNL     1       3.975   3.799   1.036  0.00  0.00    -0.245 OA
BRANCH  11  13
ATOM     13  O   UNL     1       3.964   3.875  -1.185  0.00  0.00    -0.461 OA
BRANCH  13  15
ATOM     14  C   UNL     1       4.266   5.891  -2.516  0.00  0.00    +0.048 C 
ATOM     15  C   UNL     1       4.189   5.307  -1.104  0.00  0.00    +0.229 C 
ENDBRANCH  13  15
ENDBRANCH  11  13
ENDBRANCH   5  11
BRANCH   7  16
ATOM     16  C   UNL     1       5.332  -1.612  -0.055  0.00  0.00    +0.346 C 
ATOM     17  O   UNL     1       6.534  -1.422  -0.065  0.00  0.00    -0.244 OA
BRANCH  16  18
ATOM     18  O   UNL     1       4.848  -2.872  -0.057  0.00  0.00    -0.464 OA
ATOM     19  C   UNL     1       5.804  -3.934  -0.071  0.00  0.00    +0.280 C 
ENDBRANCH  16  18
ENDBRANCH   7  16
ENDBRANCH   1   9
BRANCH   2  20
ATOM     20  C   UNL     1      -1.330   1.944   0.019  0.00  0.00    +0.019 C 
BRANCH  20  22
ATOM     21  C   UNL     1      -2.455   0.202   1.268  0.00  0.00    -0.095 C 
ATOM     22  N   UNL     1      -2.429   0.956  -0.003  0.00  0.00    +0.386 N 
ATOM     23  H   UNL     1      -2.272   0.300  -0.777  0.00  0.00    -0.081 HD
BRANCH  22  24
ATOM     24  C   UNL     1      -3.721   1.643  -0.209  0.00  0.00    -0.043 C 
BRANCH  24  25
ATOM     25  C   UNL     1      -4.789   0.607  -0.447  0.00  0.00    -0.060 A 
ATOM     26  C   UNL     1      -5.055   0.173  -1.733  0.00  0.00    +0.005 A 
ATOM     27  C   UNL     1      -6.030  -0.782  -1.956  0.00  0.00    +0.049 A 
ATOM     28  C   UNL     1      -6.751  -1.297  -0.891  0.00  0.00    +0.158 A 
ATOM     29  C   UNL     1      -6.488  -0.856   0.403  0.00  0.00    +0.161 A 
ATOM     30  C   UNL     1      -5.505   0.097   0.620  0.00  0.00    +0.051 A 
BRANCH  29  31
ATOM     31  O   UNL     1      -7.193  -1.359   1.451  0.00  0.00    -0.491 OA
ATOM     32  C   UNL     1      -6.868  -0.860   2.750  0.00  0.00    +0.277 C 
ENDBRANCH  29  31
BRANCH  28  33
ATOM     33  O   UNL     1      -7.714  -2.232  -1.109  0.00  0.00    -0.503 OA
ATOM     34  H   UNL     1      -8.593  -1.862  -1.268  0.00  0.00    +0.292 HD
ENDBRANCH  28  33
ENDBRANCH  24  25
ENDBRANCH  22  24
ENDBRANCH  20  22
ENDBRANCH   2  20
TORSDOF 12
