REMARK  Name = ZINC12149834
REMARK  6 active torsions:
REMARK  status: ('A' for Active; 'I' for Inactive)
REMARK    1  A    between atoms: C_1  and  C_2
REMARK    2  A    between atoms: C_8  and  C_9
REMARK    3  A    between atoms: C_8  and  N_64
REMARK    4  A    between atoms: C_12  and  C_17
REMARK    5  A    between atoms: N_19  and  C_20
REMARK    6  A    between atoms: C_20  and  C_21
REMARK                            x       y       z     vdW  Elec       q    Type
REMARK                         _______ _______ _______ _____ _____    ______ ____
ROOT
ATOM      1  C   UNL     1      -1.171   3.322   0.183  0.00  0.00    +0.003 A 
ATOM      2  C   UNL     1      -0.092   4.138   0.069  0.00  0.00    +0.020 A 
ATOM      3  C   UNL     1       1.196   3.616   0.188  0.00  0.00    +0.020 A 
ATOM      4  C   UNL     1       1.352   2.252   0.425  0.00  0.00    +0.101 A 
ATOM      5  C   UNL     1       0.194   1.440   0.537  0.00  0.00    +0.261 A 
ATOM      6  O   UNL     1       0.303   0.244   0.744  0.00  0.00    -0.267 OA
ATOM      7  N   UNL     1      -1.027   1.994   0.408  0.00  0.00    -0.327 N 
ATOM      8  H   UNL     1      -1.815   1.434   0.481  0.00  0.00    +0.169 HD
ENDROOT
BRANCH   4   9
ATOM      9  C   UNL     1       2.693   1.664   0.557  0.00  0.00    +0.249 C 
ATOM     10  O   UNL     1       3.679   2.346   0.351  0.00  0.00    -0.270 OA
ATOM     11  N   UNL     1       2.831   0.369   0.907  0.00  0.00    -0.311 N 
ATOM     12  H   UNL     1       2.046  -0.193   1.000  0.00  0.00    +0.149 HD
BRANCH  11  13
ATOM     13  C   UNL     1       4.164  -0.188   1.145  0.00  0.00    +0.108 C 
BRANCH  13  14
ATOM     14  C   UNL     1       4.040  -1.665   1.524  0.00  0.00    +0.012 C 
ATOM     15  C   UNL     1       3.305  -1.788   2.861  0.00  0.00    -0.006 C 
ATOM     16  C   UNL     1       3.181  -3.265   3.240  0.00  0.00    +0.007 C 
ATOM     17  C   UNL     1       4.577  -3.878   3.367  0.00  0.00    -0.010 C 
ATOM     18  C   UNL     1       5.362  -3.138   4.451  0.00  0.00    +0.007 C 
ATOM     19  C   UNL     1       5.487  -1.661   4.072  0.00  0.00    -0.010 C 
ATOM     20  C   UNL     1       4.091  -1.048   3.945  0.00  0.00    +0.007 C 
ATOM     21  C   UNL     1       6.221  -1.538   2.735  0.00  0.00    +0.007 C 
ATOM     22  C   UNL     1       5.436  -2.278   1.651  0.00  0.00    -0.006 C 
ATOM     23  C   UNL     1       5.311  -3.755   2.030  0.00  0.00    +0.007 C 
ENDBRANCH  13  14
ENDBRANCH  11  13
ENDBRANCH   4   9
BRANCH   1  24
ATOM     24  C   UNL     1      -2.555   3.904   0.052  0.00  0.00    -0.025 C 
BRANCH  24  31
ATOM     25  C   UNL     1      -4.383   0.016  -2.344  0.00  0.00    +0.005 C 
ATOM     26  C   UNL     1      -4.168   1.530  -2.386  0.00  0.00    -0.031 C 
ATOM     27  C   UNL     1      -3.366   1.899  -3.637  0.00  0.00    -0.001 C 
ATOM     28  C   UNL     1      -3.105   3.408  -3.640  0.00  0.00    -0.018 C 
ATOM     29  C   UNL     1      -2.363   3.795  -2.359  0.00  0.00    -0.078 C 
ATOM     30  C   UNL     1      -3.396   1.972  -1.141  0.00  0.00    -0.075 C 
ATOM     31  N   UNL     1      -3.199   3.436  -1.193  0.00  0.00    +0.384 N 
ATOM     32  H   UNL     1      -4.114   3.892  -1.287  0.00  0.00    -0.081 HD
ENDBRANCH  24  31
ENDBRANCH   1  24
TORSDOF 5
