REMARK  Name = ZINC36275824
REMARK  6 active torsions:
REMARK  status: ('A' for Active; 'I' for Inactive)
REMARK    1  A    between atoms: C_1  and  N_2
REMARK    2  A    between atoms: N_2  and  C_3
REMARK    3  A    between atoms: N_2  and  C_19
REMARK    4  A    between atoms: C_3  and  C_4
REMARK    5  A    between atoms: C_5  and  C_14
REMARK    6  A    between atoms: C_10  and  N_13
REMARK                            x       y       z     vdW  Elec       q    Type
REMARK                         _______ _______ _______ _____ _____    ______ ____
ROOT
ATOM      1  C   UNL     1       2.137  -0.060  -1.158  0.00  0.00    +0.035 A 
ATOM      2  C   UNL     1       2.661   1.105  -1.638  0.00  0.00    +0.098 A 
ATOM      3  N   UNL     1       3.983   1.099  -1.403  0.00  0.00    -0.227 NA
ATOM      4  C   UNL     1       4.310  -0.031  -0.790  0.00  0.00    +0.139 A 
ATOM      5  N   UNL     1       3.171  -0.773  -0.619  0.00  0.00    -0.303 N 
ATOM      6  C   UNL     1       3.224  -1.993  -0.003  0.00  0.00    +0.115 A 
ATOM      7  C   UNL     1       4.403  -2.485   0.450  0.00  0.00    +0.041 A 
ATOM      8  C   UNL     1       5.588  -1.740   0.290  0.00  0.00    +0.028 A 
ATOM      9  C   UNL     1       5.545  -0.530  -0.328  0.00  0.00    +0.048 A 
ENDROOT
BRANCH   2  10
ATOM     10  C   UNL     1       1.904   2.188  -2.303  0.00  0.00    +0.039 A 
ATOM     11  C   UNL     1       2.106   3.541  -2.250  0.00  0.00    +0.018 A 
ATOM     12  C   UNL     1       1.262   4.365  -2.962  0.00  0.00    +0.008 A 
ATOM     13  C   UNL     1       0.260   3.814  -3.693  0.00  0.00    +0.046 A 
ATOM     14  S   UNL     1       0.493   2.070  -3.391  0.00  0.00    -0.095 S 
ENDBRANCH   2  10
BRANCH   7  15
ATOM     15  N   UNL     1       4.443  -3.736   1.080  0.00  0.00    -0.357 N 
ATOM     16  H   UNL     1       3.627  -4.250   1.190  0.00  0.00    +0.142 HD
ATOM     17  H   UNL     1       5.286  -4.089   1.404  0.00  0.00    +0.142 HD
ENDBRANCH   7  15
BRANCH   1  18
ATOM     18  C   UNL     1       0.690  -0.478  -1.207  0.00  0.00    -0.022 C 
BRANCH  18  20
ATOM     19  C   UNL     1      -0.018   1.465   0.010  0.00  0.00    -0.095 C 
ATOM     20  N   UNL     1       0.002  -0.004   0.002  0.00  0.00    +0.383 N 
ATOM     21  H   UNL     1       0.490  -0.338   0.820  0.00  0.00    -0.081 HD
BRANCH  20  22
ATOM     22  C   UNL     1      -1.376  -0.512   0.012  0.00  0.00    -0.068 C 
ATOM     23  C   UNL     1      -2.092  -0.019   1.271  0.00  0.00    -0.015 C 
ATOM     24  C   UNL     1      -3.528  -0.549   1.282  0.00  0.00    -0.002 C 
ATOM     25  C   UNL     1      -3.507  -2.079   1.274  0.00  0.00    -0.000 C 
ATOM     26  C   UNL     1      -2.791  -2.572   0.015  0.00  0.00    -0.002 C 
ATOM     27  C   UNL     1      -1.355  -2.042   0.004  0.00  0.00    -0.015 C 
ENDBRANCH  20  22
ENDBRANCH  18  20
ENDBRANCH   1  18
TORSDOF 5
