REMARK  Name = ZINC20204409
REMARK  14 active torsions:
REMARK  status: ('A' for Active; 'I' for Inactive)
REMARK    1  A    between atoms: C_1  and  C_2
REMARK    2  A    between atoms: C_2  and  N_3
REMARK    3  A    between atoms: C_4  and  C_26
REMARK    4  A    between atoms: C_6  and  C_13
REMARK    5  A    between atoms: C_9  and  C_10
REMARK    6  A    between atoms: C_9  and  C_11
REMARK    7  A    between atoms: C_11  and  O_12
REMARK    8  A    between atoms: C_13  and  N_14
REMARK    9  A    between atoms: N_14  and  C_15
REMARK   10  A    between atoms: C_15  and  C_16
REMARK   11  A    between atoms: C_21  and  O_22
REMARK   12  A    between atoms: O_22  and  C_23
REMARK   13  A    between atoms: C_23  and  C_24
REMARK   14  A    between atoms: C_24  and  O_25
REMARK                            x       y       z     vdW  Elec       q    Type
REMARK                         _______ _______ _______ _____ _____    ______ ____
ROOT
ATOM      1  N   UNL     1       0.253  -2.532   2.403  0.00  0.00    +0.389 N 
ATOM      2  C   UNL     1       0.905  -2.047   1.167  0.00  0.00    -0.035 C 
ATOM      3  C   UNL     1       0.826  -0.509   1.188  0.00  0.00    -0.039 C 
ATOM      4  C   UNL     1       0.122  -0.159   2.519  0.00  0.00    -0.010 C 
ATOM      5  C   UNL     1       0.366  -1.421   3.383  0.00  0.00    -0.044 C 
ATOM      6  C   UNL     1       1.765  -1.389   4.002  0.00  0.00    -0.007 C 
ATOM      7  H   UNL     1      -0.796  -2.812   2.223  0.00  0.00    -0.080 HD
ENDROOT
BRANCH   2   8
ATOM      8  C   UNL     1       0.179  -2.582  -0.040  0.00  0.00    -0.061 A 
ATOM      9  C   UNL     1      -1.198  -2.699  -0.023  0.00  0.00    +0.003 A 
ATOM     10  C   UNL     1      -1.865  -3.184  -1.132  0.00  0.00    +0.020 A 
ATOM     11  C   UNL     1      -1.153  -3.564  -2.255  0.00  0.00    +0.041 A 
ATOM     12  C   UNL     1       0.226  -3.453  -2.270  0.00  0.00    +0.020 A 
ATOM     13  C   UNL     1       0.891  -2.962  -1.162  0.00  0.00    +0.003 A 
ATOM     14 CL   UNL     1      -1.989  -4.181  -3.646  0.00  0.00    -0.084 Cl
ENDBRANCH   2   8
BRANCH   1  16
ATOM     15  C   UNL     1       0.563  -4.926   1.995  0.00  0.00    -0.017 C 
ATOM     16  C   UNL     1       0.910  -3.746   2.905  0.00  0.00    -0.081 C 
ENDBRANCH   1  16
BRANCH   5  17
ATOM     17  C   UNL     1      -0.704  -1.548   4.470  0.00  0.00    +0.143 C 
BRANCH  17  18
ATOM     18  O   UNL     1      -0.642  -0.411   5.333  0.00  0.00    -0.396 OA
ATOM     19  H   UNL     1      -1.340  -0.325   6.180  0.00  0.00    +0.209 HD
ENDBRANCH  17  18
ENDBRANCH   5  17
BRANCH   3  20
ATOM     20  C   UNL     1       0.002  -0.004   0.002  0.00  0.00    -0.080 C 
BRANCH  20  21
ATOM     21  N   UNL     1      -0.018   1.465   0.010  0.00  0.00    +0.382 N 
ATOM     22  H   UNL     1      -0.469   1.820   0.948  0.00  0.00    -0.085 HD
ATOM     23  H   UNL     1       1.011   1.846  -0.069  0.00  0.00    -0.085 HD
BRANCH  21  24
ATOM     24  C   UNL     1      -0.802   1.987  -1.117  0.00  0.00    -0.043 C 
BRANCH  24  25
ATOM     25  C   UNL     1      -0.799   3.493  -1.076  0.00  0.00    -0.023 A 
ATOM     26  C   UNL     1      -1.889   4.173  -0.566  0.00  0.00    +0.005 A 
ATOM     27  C   UNL     1      -1.886   5.554  -0.524  0.00  0.00    +0.000 A 
ATOM     28  C   UNL     1      -0.796   6.260  -1.000  0.00  0.00    +0.004 A 
ATOM     29  C   UNL     1       0.293   5.586  -1.516  0.00  0.00    +0.046 A 
ATOM     30  C   UNL     1       0.294   4.199  -1.555  0.00  0.00    +0.122 A 
BRANCH  30  31
ATOM     31  O   UNL     1       1.365   3.533  -2.061  0.00  0.00    -0.489 OA
BRANCH  31  32
ATOM     32  C   UNL     1       2.456   4.325  -2.536  0.00  0.00    +0.256 C 
BRANCH  32  33
ATOM     33  C   UNL     1       3.561   3.407  -3.065  0.00  0.00    +0.196 C 
BRANCH  33  34
ATOM     34  O   UNL     1       3.083   2.697  -4.209  0.00  0.00    -0.392 OA
ATOM     35  H   UNL     1       3.740   1.985  -4.728  0.00  0.00    +0.210 HD
ENDBRANCH  33  34
ENDBRANCH  32  33
ENDBRANCH  31  32
ENDBRANCH  30  31
ENDBRANCH  24  25
ENDBRANCH  21  24
ENDBRANCH  20  21
ENDBRANCH   3  20
TORSDOF 12
