REMARK  Name = ZINC12637617
REMARK  8 active torsions:
REMARK  status: ('A' for Active; 'I' for Inactive)
REMARK    1  A    between atoms: C_1  and  C_2
REMARK    2  A    between atoms: C_3  and  C_21
REMARK    3  A    between atoms: C_4  and  C_13
REMARK    4  A    between atoms: N_9  and  C_10
REMARK    5  A    between atoms: C_10  and  C_11
REMARK    6  A    between atoms: C_10  and  C_12
REMARK    7  A    between atoms: C_16  and  C_19
REMARK    8  A    between atoms: N_23  and  C_24
REMARK                            x       y       z     vdW  Elec       q    Type
REMARK                         _______ _______ _______ _____ _____    ______ ____
ROOT
ATOM      1  C   UNL     1      -3.877   4.061   1.050  0.00  0.00    +0.061 C 
ATOM      2  C   UNL     1      -3.802   2.756   0.301  0.00  0.00    +0.020 C 
ATOM      3  C   UNL     1      -2.612   2.330  -0.174  0.00  0.00    +0.056 C 
ATOM      4  C   UNL     1      -2.581   1.010  -0.916  0.00  0.00    +0.139 C 
ATOM      5  N   UNL     1      -3.860   0.296  -1.063  0.00  0.00    -0.315 N 
ATOM      6  C   UNL     1      -4.969   0.852  -0.536  0.00  0.00    +0.138 C 
ATOM      7  S   UNL     1      -6.464   0.034  -0.699  0.00  0.00    -0.018 S 
ATOM      8  N   UNL     1      -4.939   2.024   0.110  0.00  0.00    -0.284 N 
ATOM      9  H   UNL     1      -3.904  -0.555  -1.527  0.00  0.00    +0.149 HD
ENDROOT
BRANCH   4  10
ATOM     10  C   UNL     1      -1.619   0.097  -0.199  0.00  0.00    -0.023 A 
ATOM     11  C   UNL     1      -1.983  -0.475   1.007  0.00  0.00    +0.007 A 
ATOM     12  C   UNL     1      -1.110  -1.315   1.667  0.00  0.00    +0.019 A 
ATOM     13  C   UNL     1       0.148  -1.579   1.120  0.00  0.00    +0.052 A 
ATOM     14  C   UNL     1       0.510  -0.993  -0.095  0.00  0.00    +0.019 A 
ATOM     15  C   UNL     1      -0.375  -0.160  -0.746  0.00  0.00    +0.007 A 
BRANCH  13  16
ATOM     16  C   UNL     1       1.062  -2.445   1.802  0.00  0.00    +0.099 C 
ATOM     17  N   UNL     1       1.787  -3.131   2.344  0.00  0.00    -0.191 NA
ENDBRANCH  13  16
ENDBRANCH   4  10
BRANCH   3  18
ATOM     18  C   UNL     1      -1.433   3.091   0.018  0.00  0.00    +0.248 C 
ATOM     19  O   UNL     1      -0.966   3.733  -0.904  0.00  0.00    -0.270 OA
ATOM     20  N   UNL     1      -0.828   3.102   1.223  0.00  0.00    -0.282 N 
ATOM     21  H   UNL     1      -1.158   2.535   1.937  0.00  0.00    +0.155 HD
BRANCH  20  22
ATOM     22  C   UNL     1       0.279   3.929   1.441  0.00  0.00    +0.034 A 
ATOM     23  C   UNL     1       1.194   4.151   0.420  0.00  0.00    +0.025 A 
ATOM     24  C   UNL     1       2.283   4.972   0.636  0.00  0.00    +0.022 A 
ATOM     25  C   UNL     1       2.470   5.563   1.874  0.00  0.00    +0.041 A 
ATOM     26  C   UNL     1       1.564   5.339   2.895  0.00  0.00    +0.022 A 
ATOM     27  C   UNL     1       0.469   4.523   2.682  0.00  0.00    +0.025 A 
ATOM     28 CL   UNL     1       3.845   6.588   2.145  0.00  0.00    -0.084 Cl
ENDBRANCH  20  22
ENDBRANCH   3  18
BRANCH   8  29
ATOM     29  C   UNL     1      -6.197   2.549   0.649  0.00  0.00    +0.074 C 
ATOM     30  C   UNL     1      -7.200   2.738  -0.491  0.00  0.00    +0.028 C 
ATOM     31  C   UNL     1      -6.766   1.562   1.670  0.00  0.00    +0.028 C 
ENDBRANCH   8  29
TORSDOF 5
