REMARK  Name = ZINC01119781
REMARK  6 active torsions:
REMARK  status: ('A' for Active; 'I' for Inactive)
REMARK    1  A    between atoms: C_1  and  C_2
REMARK    2  A    between atoms: C_3  and  C_26
REMARK    3  A    between atoms: C_4  and  C_14
REMARK    4  A    between atoms: C_16  and  N_23
REMARK    5  A    between atoms: C_18  and  O_20
REMARK    6  A    between atoms: O_20  and  C_21
REMARK                            x       y       z     vdW  Elec       q    Type
REMARK                         _______ _______ _______ _____ _____    ______ ____
ROOT
ATOM      1  C   UNL     1       4.650   4.317   0.780  0.00  0.00    +0.061 C 
ATOM      2  C   UNL     1       3.491   3.444   0.372  0.00  0.00    +0.014 C 
ATOM      3  C   UNL     1       3.595   2.109   0.471  0.00  0.00    +0.043 C 
ATOM      4  C   UNL     1       2.466   1.208   0.067  0.00  0.00    +0.090 C 
ATOM      5  C   UNL     1       1.167   1.971  -0.015  0.00  0.00    +0.024 C 
ATOM      6  C   UNL     1       1.164   3.318  -0.101  0.00  0.00    +0.015 C 
ATOM      7  N   UNL     1       2.341   4.018  -0.097  0.00  0.00    -0.321 N 
ATOM      8  C   UNL     1      -0.130   4.087  -0.201  0.00  0.00    +0.051 C 
ATOM      9  C   UNL     1      -1.234   3.333   0.543  0.00  0.00    +0.014 C 
ATOM     10  C   UNL     1      -1.367   1.935  -0.076  0.00  0.00    +0.080 C 
ATOM     11  C   UNL     1      -0.034   1.242  -0.002  0.00  0.00    +0.162 C 
ATOM     12  O   UNL     1       0.004   0.029   0.065  0.00  0.00    -0.292 OA
ATOM     13  H   UNL     1       2.356   5.050  -0.476  0.00  0.00    +0.152 HD
ENDROOT
BRANCH   3  14
ATOM     14  C   UNL     1       4.794   1.540   0.967  0.00  0.00    +0.245 C 
ATOM     15  O   UNL     1       5.584   1.020   0.201  0.00  0.00    -0.270 OA
ATOM     16  N   UNL     1       5.061   1.576   2.288  0.00  0.00    -0.293 N 
ATOM     17  C   UNL     1       4.073   2.095   3.247  0.00  0.00    +0.136 C 
ATOM     18  C   UNL     1       3.907   1.060   4.371  0.00  0.00    +0.179 C 
ATOM     19  O   UNL     1       5.194   0.734   4.901  0.00  0.00    -0.377 OA
ATOM     20  C   UNL     1       6.077   0.121   3.958  0.00  0.00    +0.179 C 
ATOM     21  C   UNL     1       6.351   1.102   2.813  0.00  0.00    +0.136 C 
ENDBRANCH   3  14
BRANCH   4  22
ATOM     22  C   UNL     1       2.771   0.605  -1.280  0.00  0.00    -0.029 A 
ATOM     23  C   UNL     1       3.022   1.427  -2.362  0.00  0.00    +0.041 A 
ATOM     24  C   UNL     1       3.307   0.879  -3.599  0.00  0.00    +0.177 A 
ATOM     25  C   UNL     1       3.332  -0.498  -3.757  0.00  0.00    +0.250 A 
ATOM     26  C   UNL     1       3.075  -1.325  -2.669  0.00  0.00    +0.169 A 
ATOM     27  C   UNL     1       2.794  -0.769  -1.431  0.00  0.00    +0.054 A 
ATOM     28  O   UNL     1       3.608  -1.039  -4.974  0.00  0.00    -0.282 OA
BRANCH  24  29
ATOM     29  N   UNL     1       3.580   1.762  -4.755  0.00  0.00    +0.060 N 
ATOM     30  O   UNL     1       3.558   2.972  -4.616  0.00  0.00    -0.126 OA
ATOM     31  O   UNL     1       3.828   1.279  -5.845  0.00  0.00    -0.126 OA
ENDBRANCH  24  29
BRANCH  26  32
ATOM     32  O   UNL     1       3.099  -2.676  -2.819  0.00  0.00    -0.491 OA
ATOM     33  C   UNL     1       2.938  -3.464  -1.637  0.00  0.00    +0.277 C 
ENDBRANCH  26  32
ENDBRANCH   4  22
TORSDOF 4
