REMARK  Name = ZINC66247573
REMARK  4 active torsions:
REMARK  status: ('A' for Active; 'I' for Inactive)
REMARK    1  A    between atoms: C_4  and  S_11
REMARK    2  A    between atoms: S_11  and  N_14
REMARK    3  A    between atoms: N_14  and  C_15
REMARK    4  A    between atoms: C_17  and  C_20
REMARK                            x       y       z     vdW  Elec       q    Type
REMARK                         _______ _______ _______ _____ _____    ______ ____
ROOT
ATOM      1  S   UNL     1       4.465   3.320  -0.024  0.00  0.00    +0.096 S 
ATOM      2  O   UNL     1       3.805   4.035   1.012  0.00  0.00    -0.148 OA
ATOM      3  O   UNL     1       5.878   3.170  -0.066  0.00  0.00    -0.148 OA
ENDROOT
BRANCH   1   7
ATOM      4  C   UNL     1      -0.017   1.382   0.010  0.00  0.00    +0.020 A 
ATOM      5  C   UNL     1       1.178   2.077   0.002  0.00  0.00    +0.015 A 
ATOM      6  C   UNL     1       2.365   1.342  -0.013  0.00  0.00    +0.045 A 
ATOM      7  C   UNL     1       3.786   1.694  -0.025  0.00  0.00    +0.137 A 
ATOM      8  C   UNL     1       4.473   0.541  -0.038  0.00  0.00    +0.114 A 
ATOM      9  N   UNL     1       3.606  -0.519  -0.036  0.00  0.00    -0.344 N 
ATOM     10  H   UNL     1       3.868  -1.453  -0.043  0.00  0.00    +0.167 HD
ATOM     11  C   UNL     1       2.309  -0.065  -0.020  0.00  0.00    +0.140 A 
ATOM     12  N   UNL     1       1.132  -0.678  -0.012  0.00  0.00    -0.237 NA
ATOM     13  C   UNL     1       0.002  -0.004   0.002  0.00  0.00    +0.113 A 
ENDBRANCH   1   7
BRANCH   1  14
ATOM     14  N   UNL     1       4.023   4.036  -1.450  0.00  0.00    -0.070 NA
BRANCH  14  15
ATOM     15  C   UNL     1       4.421   5.334  -1.725  0.00  0.00    +0.202 A 
ATOM     16  N   UNL     1       4.171   6.076  -2.788  0.00  0.00    -0.222 NA
ATOM     17  C   UNL     1       4.639   7.319  -2.886  0.00  0.00    +0.080 A 
ATOM     18  C   UNL     1       5.391   7.832  -1.867  0.00  0.00    +0.077 A 
ATOM     19  S   UNL     1       5.402   6.450  -0.732  0.00  0.00    -0.057 S 
BRANCH  17  20
ATOM     20  C   UNL     1       4.349   8.136  -4.088  0.00  0.00    +0.004 A 
ATOM     21  C   UNL     1       4.840   9.440  -4.206  0.00  0.00    +0.030 A 
ATOM     22  C   UNL     1       4.546  10.166  -5.341  0.00  0.00    +0.111 A 
ATOM     23  N   UNL     1       3.812   9.645  -6.306  0.00  0.00    -0.263 NA
ATOM     24  C   UNL     1       3.329   8.419  -6.235  0.00  0.00    +0.111 A 
ATOM     25  C   UNL     1       3.580   7.622  -5.138  0.00  0.00    +0.030 A 
ENDBRANCH  17  20
ENDBRANCH  14  15
ENDBRANCH   1  14
TORSDOF 4
