REMARK  Name = ZINC40501911
REMARK  6 active torsions:
REMARK  status: ('A' for Active; 'I' for Inactive)
REMARK    1  A    between atoms: C_1  and  C_2
REMARK    2  A    between atoms: C_2  and  N_3
REMARK    3  A    between atoms: C_7  and  N_10
REMARK    4  A    between atoms: N_10  and  S_11
REMARK    5  A    between atoms: S_11  and  C_14
REMARK    6  A    between atoms: C_19  and  N_20
REMARK                            x       y       z     vdW  Elec       q    Type
REMARK                         _______ _______ _______ _____ _____    ______ ____
ROOT
ATOM      1  S   UNL     1      -3.826  -4.749   1.357  0.00  0.00    +0.060 S 
ATOM      2  O   UNL     1      -3.566  -6.144   1.445  0.00  0.00    -0.153 OA
ATOM      3  O   UNL     1      -3.787  -3.894   2.491  0.00  0.00    -0.153 OA
ENDROOT
BRANCH   1   4
ATOM      4  C   UNL     1      -5.433  -4.580   0.653  0.00  0.00    +0.126 A 
ATOM      5  C   UNL     1      -6.372  -3.770   1.261  0.00  0.00    +0.031 A 
ATOM      6  C   UNL     1      -7.632  -3.636   0.710  0.00  0.00    +0.017 A 
ATOM      7  C   UNL     1      -7.958  -4.313  -0.452  0.00  0.00    +0.020 A 
ATOM      8  C   UNL     1      -7.024  -5.126  -1.064  0.00  0.00    +0.040 A 
ATOM      9  C   UNL     1      -5.754  -5.257  -0.516  0.00  0.00    +0.052 A 
ATOM     10 BR   UNL     1      -9.684  -4.127  -1.201  0.00  0.00    -0.050 Br
BRANCH   9  11
ATOM     11  N   UNL     1      -4.805  -6.073  -1.136  0.00  0.00    -0.356 N 
ATOM     12  H   UNL     1      -3.897  -6.107  -0.794  0.00  0.00    +0.142 HD
ATOM     13  H   UNL     1      -5.053  -6.606  -1.907  0.00  0.00    +0.142 HD
ENDBRANCH   9  11
ENDBRANCH   1   4
BRANCH   1  14
ATOM     14  N   UNL     1      -2.745  -4.135   0.263  0.00  0.00    -0.189 NA
ATOM     15  H   UNL     1      -2.092  -4.718  -0.153  0.00  0.00    +0.148 HD
BRANCH  14  20
ATOM     16  N   UNL     1      -1.481  -0.631  -0.014  0.00  0.00    +0.381 N 
ATOM     17  C   UNL     1      -1.603  -0.469  -1.468  0.00  0.00    -0.079 C 
ATOM     18  C   UNL     1      -2.934  -1.059  -1.940  0.00  0.00    -0.017 C 
ATOM     19  C   UNL     1      -2.980  -2.548  -1.586  0.00  0.00    +0.017 C 
ATOM     20  C   UNL     1      -2.776  -2.710  -0.076  0.00  0.00    +0.060 C 
ATOM     21  C   UNL     1      -1.452  -2.058   0.327  0.00  0.00    -0.058 C 
ATOM     22  H   UNL     1      -2.269  -0.194   0.439  0.00  0.00    -0.082 HD
BRANCH  16  24
ATOM     23  C   UNL     1      -0.320   1.514   0.203  0.00  0.00    -0.017 C 
ATOM     24  C   UNL     1      -0.239   0.006   0.445  0.00  0.00    -0.082 C 
ENDBRANCH  16  24
ENDBRANCH  14  20
ENDBRANCH   1  14
TORSDOF 5
