REMARK  Name = ZINC17819141
REMARK  9 active torsions:
REMARK  status: ('A' for Active; 'I' for Inactive)
REMARK    1  A    between atoms: C_1  and  C_2
REMARK    2  A    between atoms: C_4  and  C_35
REMARK    3  A    between atoms: C_5  and  S_9
REMARK    4  A    between atoms: C_6  and  C_8
REMARK    5  A    between atoms: S_9  and  N_12
REMARK    6  A    between atoms: C_15  and  C_18
REMARK    7  A    between atoms: N_20  and  N_21
REMARK    8  A    between atoms: C_22  and  C_24
REMARK    9  A    between atoms: C_24  and  C_25
REMARK                            x       y       z     vdW  Elec       q    Type
REMARK                         _______ _______ _______ _____ _____    ______ ____
ROOT
ATOM      1  C   UNL     1      -3.253   4.109  -5.087  0.00  0.00    +0.232 C 
ATOM      2  O   UNL     1      -2.820   3.071  -5.539  0.00  0.00    -0.274 OA
ATOM      3  N   UNL     1      -3.244   5.228  -5.838  0.00  0.00    -0.234 N 
ATOM      4  H   UNL     1      -3.591   6.058  -5.477  0.00  0.00    +0.173 HD
ENDROOT
BRANCH   1   8
ATOM      5  N   UNL     1      -3.620   3.854  -0.877  0.00  0.00    -0.177 NA
ATOM      6  C   UNL     1      -3.589   5.214  -1.432  0.00  0.00    +0.110 C 
ATOM      7  C   UNL     1      -3.001   5.149  -2.850  0.00  0.00    +0.030 C 
ATOM      8  C   UNL     1      -3.803   4.149  -3.684  0.00  0.00    +0.079 C 
ATOM      9  C   UNL     1      -3.697   2.757  -3.055  0.00  0.00    +0.030 C 
ATOM     10  C   UNL     1      -4.288   2.793  -1.643  0.00  0.00    +0.110 C 
BRANCH   5  11
ATOM     11  S   UNL     1      -2.920   3.524   0.587  0.00  0.00    +0.061 S 
ATOM     12  O   UNL     1      -3.626   2.420   1.136  0.00  0.00    -0.153 OA
ATOM     13  O   UNL     1      -2.799   4.765   1.268  0.00  0.00    -0.153 OA
BRANCH  11  18
ATOM     14  C   UNL     1       2.695   1.605  -0.509  0.00  0.00    +0.044 C 
ATOM     15  C   UNL     1       1.292   2.084  -0.236  0.00  0.00    -0.050 A 
ATOM     16  C   UNL     1       1.017   3.439  -0.214  0.00  0.00    +0.008 A 
ATOM     17  C   UNL     1      -0.269   3.878   0.042  0.00  0.00    -0.024 A 
ATOM     18  C   UNL     1      -1.280   2.964   0.267  0.00  0.00    +0.111 A 
ATOM     19  C   UNL     1      -1.005   1.609   0.244  0.00  0.00    -0.024 A 
ATOM     20  C   UNL     1       0.281   1.169  -0.007  0.00  0.00    +0.008 A 
ATOM     21  C   UNL     1      -2.107   0.612   0.494  0.00  0.00    +0.046 C 
ATOM     22  C   UNL     1      -0.568   5.355   0.071  0.00  0.00    +0.046 C 
ENDBRANCH  11  18
ENDBRANCH   5  11
ENDBRANCH   1   8
BRANCH   3  23
ATOM     23  N   UNL     1      -2.733   5.191  -7.142  0.00  0.00    -0.234 N 
ATOM     24  C   UNL     1      -2.723   6.309  -7.894  0.00  0.00    +0.233 C 
ATOM     25  O   UNL     1      -3.157   7.348  -7.442  0.00  0.00    -0.274 OA
ATOM     26  H   UNL     1      -2.386   4.360  -7.504  0.00  0.00    +0.173 HD
BRANCH  24  27
ATOM     27  C   UNL     1      -2.173   6.270  -9.297  0.00  0.00    +0.134 C 
BRANCH  27  28
ATOM     28  C   UNL     1      -2.277   7.640  -9.916  0.00  0.00    -0.014 A 
ATOM     29  C   UNL     1      -3.268   8.086 -10.704  0.00  0.00    +0.087 A 
ATOM     30  N   UNL     1      -3.022   9.380 -11.075  0.00  0.00    -0.360 N 
ATOM     31  H   UNL     1      -3.598   9.917 -11.641  0.00  0.00    +0.165 HD
ATOM     32  C   UNL     1      -1.832   9.806 -10.527  0.00  0.00    +0.047 A 
ATOM     33  C   UNL     1      -1.314   8.734  -9.777  0.00  0.00    +0.003 A 
ATOM     34  C   UNL     1      -0.101   8.880  -9.101  0.00  0.00    +0.010 A 
ATOM     35  C   UNL     1       0.577  10.064  -9.171  0.00  0.00    +0.001 A 
ATOM     36  C   UNL     1       0.070  11.124  -9.909  0.00  0.00    +0.002 A 
ATOM     37  C   UNL     1      -1.125  11.002 -10.585  0.00  0.00    +0.026 A 
ENDBRANCH  27  28
ENDBRANCH  24  27
ENDBRANCH   3  23
TORSDOF 6
