REMARK  Name = ZINC00752584
REMARK  4 active torsions:
REMARK  status: ('A' for Active; 'I' for Inactive)
REMARK    1  A    between atoms: C_4  and  C_7
REMARK    2  A    between atoms: C_12  and  C_20
REMARK    3  A    between atoms: C_14  and  C_18
REMARK    4  A    between atoms: C_15  and  N_17
REMARK                            x       y       z     vdW  Elec       q    Type
REMARK                         _______ _______ _______ _____ _____    ______ ____
ROOT
ATOM      1  C   UNL     1      -2.083   2.185   3.710  0.00  0.00    +0.034 C 
ATOM      2  C   UNL     1      -0.768   2.947   3.535  0.00  0.00    +0.083 C 
ATOM      3  C   UNL     1      -0.048   2.444   2.306  0.00  0.00    +0.115 C 
ATOM      4  C   UNL     1      -0.739   1.987   1.245  0.00  0.00    +0.046 C 
ATOM      5  C   UNL     1      -0.018   1.503   0.010  0.00  0.00    +0.103 C 
ATOM      6  C   UNL     1       1.393   2.021  -0.000  0.00  0.00    +0.098 C 
ATOM      7  C   UNL     1       1.965   2.476   1.141  0.00  0.00    +0.198 C 
ATOM      8  O   UNL     1       1.298   2.474   2.305  0.00  0.00    -0.445 OA
ATOM      9  C   UNL     1      -2.146   1.942   1.252  0.00  0.00    +0.164 C 
ATOM     10  O   UNL     1      -2.735   1.534   0.271  0.00  0.00    -0.292 OA
ATOM     11  C   UNL     1      -2.935   2.390   2.453  0.00  0.00    +0.088 C 
ENDROOT
BRANCH   5  12
ATOM     12  C   UNL     1       0.002  -0.004   0.002  0.00  0.00    -0.010 A 
ATOM     13  C   UNL     1       0.566  -0.800   0.924  0.00  0.00    +0.088 A 
ATOM     14  N   UNL     1       0.381  -2.112   0.584  0.00  0.00    -0.360 N 
ATOM     15  H   UNL     1       0.697  -2.872   1.098  0.00  0.00    +0.165 HD
ATOM     16  C   UNL     1      -0.317  -2.195  -0.601  0.00  0.00    +0.047 A 
ATOM     17  C   UNL     1      -0.585  -0.878  -1.017  0.00  0.00    +0.004 A 
ATOM     18  C   UNL     1      -1.287  -0.651  -2.202  0.00  0.00    +0.010 A 
ATOM     19  C   UNL     1      -1.712  -1.712  -2.952  0.00  0.00    +0.001 A 
ATOM     20  C   UNL     1      -1.450  -3.013  -2.546  0.00  0.00    +0.002 A 
ATOM     21  C   UNL     1      -0.758  -3.259  -1.380  0.00  0.00    +0.026 A 
ENDBRANCH   5  12
BRANCH   1  25
ATOM     22  C   UNL     1      -4.171   3.687   7.120  0.00  0.00    +0.000 A 
ATOM     23  C   UNL     1      -3.793   2.358   7.071  0.00  0.00    +0.000 A 
ATOM     24  C   UNL     1      -3.117   1.872   5.968  0.00  0.00    +0.004 A 
ATOM     25  C   UNL     1      -2.820   2.715   4.913  0.00  0.00    -0.043 A 
ATOM     26  C   UNL     1      -3.193   4.045   4.964  0.00  0.00    +0.004 A 
ATOM     27  C   UNL     1      -3.873   4.530   6.066  0.00  0.00    +0.000 A 
ENDBRANCH   1  25
BRANCH   7  28
ATOM     28  N   UNL     1       3.253   2.948   1.105  0.00  0.00    -0.328 N 
ATOM     29  H   UNL     1       3.744   2.954   0.269  0.00  0.00    +0.145 HD
ATOM     30  H   UNL     1       3.672   3.276   1.916  0.00  0.00    +0.145 HD
ENDBRANCH   7  28
BRANCH   6  31
ATOM     31  C   UNL     1       2.137   2.033  -1.224  0.00  0.00    +0.101 C 
ATOM     32  N   UNL     1       2.728   2.043  -2.194  0.00  0.00    -0.191 NA
ENDBRANCH   6  31
TORSDOF 4
