REMARK  Name = ZINC09727974
REMARK  6 active torsions:
REMARK  status: ('A' for Active; 'I' for Inactive)
REMARK    1  A    between atoms: C_1  and  C_2
REMARK    2  A    between atoms: C_9  and  C_11
REMARK    3  A    between atoms: C_14  and  S_16
REMARK    4  A    between atoms: S_16  and  C_17
REMARK    5  A    between atoms: C_17  and  C_19
REMARK    6  A    between atoms: C_17  and  C_20
REMARK                            x       y       z     vdW  Elec       q    Type
REMARK                         _______ _______ _______ _____ _____    ______ ____
ROOT
ATOM      1  S   UNL     1      -0.885   3.118   8.744  0.00  0.00    -0.053 S 
ENDROOT
BRANCH   1   5
ATOM      2  C   UNL     1      -0.438   2.221   4.995  0.00  0.00    +0.256 A 
ATOM      3  N   UNL     1       0.741   1.917   5.489  0.00  0.00    -0.106 NA
ATOM      4  N   UNL     1       0.752   2.164   6.751  0.00  0.00    -0.101 NA
ATOM      5  C   UNL     1      -0.417   2.635   7.116  0.00  0.00    +0.278 A 
ATOM      6  O   UNL     1      -1.193   2.688   6.015  0.00  0.00    -0.410 OA
BRANCH   2  14
ATOM      7  C   UNL     1      -0.149   0.967  -2.482  0.00  0.00    +0.008 C 
ATOM      8  C   UNL     1      -0.758   1.595  -1.226  0.00  0.00    -0.009 C 
ATOM      9  C   UNL     1      -2.239   1.218  -1.137  0.00  0.00    +0.009 C 
ATOM     10  C   UNL     1      -2.897   2.062  -0.035  0.00  0.00    +0.043 C 
ATOM     11  C   UNL     1      -2.029   2.007   1.181  0.00  0.00    -0.006 A 
ATOM     12  C   UNL     1      -0.733   1.581   1.260  0.00  0.00    -0.036 A 
ATOM     13  C   UNL     1      -0.136   1.624   2.510  0.00  0.00    +0.024 A 
ATOM     14  C   UNL     1      -0.856   2.085   3.592  0.00  0.00    +0.076 A 
ATOM     15  S   UNL     1      -2.430   2.475   2.843  0.00  0.00    -0.088 S 
ATOM     16  C   UNL     1      -0.013   1.086   0.008  0.00  0.00    +0.039 C 
ENDBRANCH   2  14
ENDBRANCH   1   5
BRANCH   1  17
ATOM     17  C   UNL     1       0.654   2.768   9.630  0.00  0.00    +0.139 C 
ATOM     18  C   UNL     1       1.759   3.694   9.119  0.00  0.00    +0.029 C 
BRANCH  17  19
ATOM     19  C   UNL     1       0.449   2.998  11.105  0.00  0.00    +0.233 C 
ATOM     20  O   UNL     1      -0.472   3.689  11.489  0.00  0.00    -0.274 OA
ATOM     21  N   UNL     1       1.287   2.436  11.998  0.00  0.00    -0.260 N 
ATOM     22  C   UNL     1       2.406   1.589  11.559  0.00  0.00    +0.209 C 
ATOM     23  C   UNL     1       2.507   0.392  12.464  0.00  0.00    +0.235 C 
ATOM     24  O   UNL     1       2.955  -0.648  12.032  0.00  0.00    -0.274 OA
ATOM     25  N   UNL     1       2.101   0.461  13.746  0.00  0.00    -0.283 N 
ATOM     26  C   UNL     1       1.534   1.634  14.256  0.00  0.00    +0.055 A 
ATOM     27  C   UNL     1       1.116   2.635  13.377  0.00  0.00    +0.058 A 
ATOM     28  C   UNL     1       0.547   3.796  13.866  0.00  0.00    +0.025 A 
ATOM     29  C   UNL     1       0.396   3.965  15.231  0.00  0.00    +0.002 A 
ATOM     30  C   UNL     1       0.812   2.977  16.104  0.00  0.00    +0.002 A 
ATOM     31  C   UNL     1       1.381   1.812  15.621  0.00  0.00    +0.025 A 
ATOM     32  H   UNL     1       2.204  -0.312  14.323  0.00  0.00    +0.155 HD
ENDBRANCH  17  19
ENDBRANCH   1  17
TORSDOF 4
