REMARK  Name = ZINC39698162
REMARK  6 active torsions:
REMARK  status: ('A' for Active; 'I' for Inactive)
REMARK    1  A    between atoms: C_1  and  C_2
REMARK    2  A    between atoms: N_16  and  N_17
REMARK    3  A    between atoms: C_18  and  C_19
REMARK    4  A    between atoms: C_21  and  O_27
REMARK    5  A    between atoms: C_22  and  O_26
REMARK    6  A    between atoms: O_27  and  C_28
REMARK                            x       y       z     vdW  Elec       q    Type
REMARK                         _______ _______ _______ _____ _____    ______ ____
ROOT
ATOM      1  C   UNL     1      -0.018   1.503   0.010  0.00  0.00    +0.044 C 
ATOM      2  C   UNL     1       0.002  -0.004   0.002  0.00  0.00    -0.050 A 
ATOM      3  C   UNL     1       0.005  -0.672  -1.230  0.00  0.00    +0.005 A 
ATOM      4  C   UNL     1       0.029  -2.022  -1.308  0.00  0.00    +0.026 A 
ATOM      5  C   UNL     1       0.052  -2.812  -0.071  0.00  0.00    +0.046 A 
ATOM      6  N   UNL     1       0.045  -4.107   0.140  0.00  0.00    -0.359 N 
ATOM      7  C   UNL     1       0.203  -4.351   1.563  0.00  0.00    +0.229 C 
ATOM      8  C   UNL     1       0.043  -2.999   2.235  0.00  0.00    +0.115 C 
ATOM      9  C   UNL     1       0.037  -2.075   1.218  0.00  0.00    +0.025 A 
ATOM     10  C   UNL     1       0.022  -0.662   1.184  0.00  0.00    +0.015 A 
ATOM     11  N   UNL     1      -0.184  -2.888   3.546  0.00  0.00    -0.146 NA
ATOM     12  N   UNL     1      -0.780  -3.902   4.098  0.00  0.00    -0.113 NA
ATOM     13  C   UNL     1      -1.202  -4.969   3.377  0.00  0.00    +0.230 C 
ATOM     14  N   UNL     1      -0.805  -5.230   2.152  0.00  0.00    -0.330 N 
ATOM     15  N   UNL     1      -2.101  -5.835   3.965  0.00  0.00    -0.206 N 
ATOM     16  H   UNL     1      -2.422  -6.608   3.474  0.00  0.00    +0.177 HD
ATOM     17  H   UNL     1      -0.051  -4.789  -0.543  0.00  0.00    +0.162 HD
ATOM     18  H   UNL     1      -1.170  -5.979   1.654  0.00  0.00    +0.165 HD
ENDROOT
BRANCH  15  19
ATOM     19  N   UNL     1      -2.550  -5.598   5.271  0.00  0.00    -0.188 NA
ATOM     20  C   UNL     1      -3.396  -6.414   5.824  0.00  0.00    +0.138 C 
BRANCH  20  21
ATOM     21  C   UNL     1      -3.868  -6.165   7.199  0.00  0.00    -0.001 A 
ATOM     22  C   UNL     1      -4.774  -7.044   7.798  0.00  0.00    +0.059 A 
ATOM     23  C   UNL     1      -5.213  -6.807   9.087  0.00  0.00    +0.163 A 
ATOM     24  C   UNL     1      -4.753  -5.692   9.786  0.00  0.00    +0.173 A 
ATOM     25  C   UNL     1      -3.854  -4.818   9.191  0.00  0.00    +0.063 A 
ATOM     26  C   UNL     1      -3.406  -5.052   7.907  0.00  0.00    +0.028 A 
ATOM     27 BR   UNL     1      -3.236  -3.308  10.145  0.00  0.00    -0.046 Br
BRANCH  24  28
ATOM     28  O   UNL     1      -5.187  -5.460  11.053  0.00  0.00    -0.503 OA
ATOM     29  H   UNL     1      -4.640  -5.870  11.737  0.00  0.00    +0.292 HD
ENDBRANCH  24  28
BRANCH  23  30
ATOM     30  O   UNL     1      -6.094  -7.661   9.673  0.00  0.00    -0.491 OA
ATOM     31  C   UNL     1      -6.524  -8.782   8.898  0.00  0.00    +0.277 C 
ENDBRANCH  23  30
ENDBRANCH  20  21
ENDBRANCH  15  19
TORSDOF 4
