REMARK  Name = ZINC13125961
REMARK  4 active torsions:
REMARK  status: ('A' for Active; 'I' for Inactive)
REMARK    1  A    between atoms: C_1  and  C_2
REMARK    2  A    between atoms: C_2  and  N_3
REMARK    3  A    between atoms: C_7  and  C_8
REMARK    4  A    between atoms: N_20  and  C_21
REMARK                            x       y       z     vdW  Elec       q    Type
REMARK                         _______ _______ _______ _____ _____    ______ ____
ROOT
ATOM      1  N   UNL     1      -1.740   0.291   0.106  0.00  0.00    -0.246 N 
ATOM      2  C   UNL     1      -2.266  -0.153   1.234  0.00  0.00    +0.259 C 
ATOM      3  O   UNL     1      -1.768   0.130   2.309  0.00  0.00    -0.269 OA
ATOM      4  C   UNL     1      -3.431  -0.972   1.162  0.00  0.00    +0.078 C 
ATOM      5  C   UNL     1      -4.148  -1.542   2.169  0.00  0.00    +0.030 C 
ATOM      6  S   UNL     1      -3.701  -1.049  -0.603  0.00  0.00    -0.049 S 
ATOM      7  C   UNL     1      -2.319  -0.034  -1.104  0.00  0.00    +0.168 C 
ATOM      8  N   UNL     1      -1.948   0.314  -2.317  0.00  0.00    -0.225 NA
ENDROOT
BRANCH   5   9
ATOM      9  C   UNL     1      -3.653  -1.482   3.544  0.00  0.00    +0.001 A 
ATOM     10  C   UNL     1      -2.355  -1.608   3.953  0.00  0.00    +0.091 A 
ATOM     11  N   UNL     1      -2.288  -1.496   5.305  0.00  0.00    -0.360 N 
ATOM     12  H   UNL     1      -1.471  -1.552   5.825  0.00  0.00    +0.165 HD
ATOM     13  C   UNL     1      -3.546  -1.292   5.833  0.00  0.00    +0.047 A 
ATOM     14  C   UNL     1      -4.455  -1.266   4.763  0.00  0.00    +0.007 A 
ATOM     15  C   UNL     1      -5.812  -1.068   5.005  0.00  0.00    +0.010 A 
ATOM     16  C   UNL     1      -6.257  -0.893   6.297  0.00  0.00    +0.001 A 
ATOM     17  C   UNL     1      -5.359  -0.914   7.355  0.00  0.00    +0.002 A 
ATOM     18  C   UNL     1      -4.015  -1.118   7.131  0.00  0.00    +0.026 A 
ENDBRANCH   5   9
BRANCH   8  19
ATOM     19  C   UNL     1      -2.663  -0.116  -3.401  0.00  0.00    +0.067 A 
ATOM     20  C   UNL     1      -3.079  -1.447  -3.484  0.00  0.00    +0.028 A 
ATOM     21  C   UNL     1      -3.800  -1.873  -4.580  0.00  0.00    +0.002 A 
ATOM     22  C   UNL     1      -4.111  -0.986  -5.595  0.00  0.00    +0.000 A 
ATOM     23  C   UNL     1      -3.702   0.334  -5.519  0.00  0.00    +0.002 A 
ATOM     24  C   UNL     1      -2.985   0.775  -4.427  0.00  0.00    +0.028 A 
ENDBRANCH   8  19
BRANCH   1  26
ATOM     25  C   UNL     1      -0.958   2.605   0.234  0.00  0.00    +0.025 C 
ATOM     26  C   UNL     1      -0.543   1.135   0.140  0.00  0.00    +0.112 C 
ENDBRANCH   1  26
TORSDOF 3
