REMARK  Name = ZINC00038207
REMARK  5 active torsions:
REMARK  status: ('A' for Active; 'I' for Inactive)
REMARK    1  A    between atoms: C_9  and  C_11
REMARK    2  A    between atoms: C_12  and  C_23
REMARK    3  A    between atoms: C_16  and  O_22
REMARK    4  A    between atoms: C_23  and  C_24
REMARK    5  A    between atoms: C_24  and  C_25
REMARK                            x       y       z     vdW  Elec       q    Type
REMARK                         _______ _______ _______ _____ _____    ______ ____
ROOT
ATOM      1  C   UNL     1       1.280   6.226  -0.220  0.00  0.00    +0.102 A 
ATOM      2  C   UNL     1       2.376   5.453   0.020  0.00  0.00    +0.120 A 
ATOM      3  O   UNL     1       2.291   4.143   0.252  0.00  0.00    -0.459 OA
ATOM      4  C   UNL     1       1.125   3.467   0.270  0.00  0.00    +0.142 A 
ATOM      5  C   UNL     1       1.105   2.101   0.519  0.00  0.00    +0.092 A 
ATOM      6  C   UNL     1      -0.101   1.421   0.535  0.00  0.00    +0.120 A 
ATOM      7  C   UNL     1      -1.298   2.094   0.298  0.00  0.00    +0.046 A 
ATOM      8  C   UNL     1      -1.296   3.439   0.058  0.00  0.00    +0.019 A 
ATOM      9  C   UNL     1      -0.088   4.137   0.038  0.00  0.00    +0.065 A 
ATOM     10  C   UNL     1      -0.049   5.588  -0.224  0.00  0.00    +0.203 A 
ATOM     11  O   UNL     1      -1.065   6.227  -0.433  0.00  0.00    -0.286 OA
ENDROOT
BRANCH   1  20
ATOM     12  C   UNL     1       1.238  12.142  -1.240  0.00  0.00    +0.002 A 
ATOM     13  C   UNL     1       2.614  11.965  -1.246  0.00  0.00    +0.002 A 
ATOM     14  C   UNL     1       3.158  10.728  -1.047  0.00  0.00    +0.030 A 
ATOM     15  C   UNL     1       2.325   9.625  -0.834  0.00  0.00    +0.089 A 
ATOM     16  C   UNL     1       0.930   9.805  -0.827  0.00  0.00    +0.066 A 
ATOM     17  C   UNL     1       0.396  11.069  -1.031  0.00  0.00    +0.028 A 
ATOM     18  N   UNL     1       0.382   8.556  -0.603  0.00  0.00    -0.338 N 
ATOM     19  H   UNL     1      -0.593   8.337  -0.545  0.00  0.00    +0.167 HD
ATOM     20  C   UNL     1       1.421   7.674  -0.473  0.00  0.00    +0.146 A 
ATOM     21  N   UNL     1       2.561   8.308  -0.613  0.00  0.00    -0.228 NA
ENDBRANCH   1  20
BRANCH   6  22
ATOM     22  O   UNL     1      -0.117   0.086   0.777  0.00  0.00    -0.507 OA
ATOM     23  H   UNL     1      -0.200  -0.143   1.713  0.00  0.00    +0.292 HD
ENDBRANCH   6  22
BRANCH   2  24
ATOM     24  C   UNL     1       3.735   6.104   0.024  0.00  0.00    +0.086 C 
BRANCH  24  25
ATOM     25  C   UNL     1       4.259   6.199  -1.411  0.00  0.00    +0.133 C 
BRANCH  25  26
ATOM     26  C   UNL     1       5.618   6.849  -1.407  0.00  0.00    +0.356 C 
ATOM     27  O   UNL     1       6.117   7.200  -0.364  0.00  0.00    -0.246 OA
ATOM     28  O   UNL     1       6.275   7.038  -2.562  0.00  0.00    -0.246 OA
ENDBRANCH  25  26
ENDBRANCH  24  25
ENDBRANCH   2  24
TORSDOF 5
