REMARK  Name = ZINC12250408
REMARK  10 active torsions:
REMARK  status: ('A' for Active; 'I' for Inactive)
REMARK    1  A    between atoms: C_1  and  C_2
REMARK    2  A    between atoms: C_7  and  N_8
REMARK    3  A    between atoms: C_9  and  C_11
REMARK    4  A    between atoms: C_11  and  S_12
REMARK    5  A    between atoms: S_12  and  C_13
REMARK    6  A    between atoms: C_14  and  C_33
REMARK    7  A    between atoms: C_15  and  C_26
REMARK    8  A    between atoms: C_17  and  C_22
REMARK    9  A    between atoms: C_22  and  O_24
REMARK   10  A    between atoms: O_24  and  C_25
REMARK                            x       y       z     vdW  Elec       q    Type
REMARK                         _______ _______ _______ _____ _____    ______ ____
ROOT
ATOM      1  C   UNL     1      -0.853  -2.361  -3.472  0.00  0.00    +0.082 C 
ATOM      2  C   UNL     1       0.496  -2.218  -3.578  0.00  0.00    +0.066 C 
ATOM      3  C   UNL     1       1.380  -2.474  -2.385  0.00  0.00    +0.084 C 
ATOM      4  C   UNL     1       0.649  -2.052  -1.109  0.00  0.00    +0.196 C 
ATOM      5  C   UNL     1      -0.748  -2.615  -1.119  0.00  0.00    +0.232 C 
ATOM      6  O   UNL     1      -1.266  -2.958  -0.078  0.00  0.00    -0.275 OA
ATOM      7  N   UNL     1      -1.425  -2.740  -2.275  0.00  0.00    -0.279 N 
ATOM      8  H   UNL     1      -2.325  -3.101  -2.267  0.00  0.00    +0.155 HD
ENDROOT
BRANCH   3   9
ATOM      9  C   UNL     1       1.712  -3.943  -2.312  0.00  0.00    -0.038 A 
ATOM     10  C   UNL     1       0.699  -4.874  -2.178  0.00  0.00    +0.006 A 
ATOM     11  C   UNL     1       1.002  -6.221  -2.116  0.00  0.00    +0.020 A 
ATOM     12  C   UNL     1       2.320  -6.637  -2.177  0.00  0.00    +0.041 A 
ATOM     13  C   UNL     1       3.334  -5.704  -2.305  0.00  0.00    +0.020 A 
ATOM     14  C   UNL     1       3.029  -4.357  -2.372  0.00  0.00    +0.006 A 
ATOM     15 CL   UNL     1       2.702  -8.328  -2.093  0.00  0.00    -0.084 Cl
ENDBRANCH   3   9
BRANCH   4  16
ATOM     16  C   UNL     1       0.584  -0.548  -1.043  0.00  0.00    +0.320 C 
ATOM     17  O   UNL     1       1.072   0.118  -1.925  0.00  0.00    -0.250 OA
BRANCH  16  18
ATOM     18  O   UNL     1      -0.017   0.052  -0.003  0.00  0.00    -0.467 OA
ATOM     19  C   UNL     1      -0.042   1.504  -0.005  0.00  0.00    +0.280 C 
ENDBRANCH  16  18
ENDBRANCH   4  16
BRANCH   2  20
ATOM     20  C   UNL     1       1.077  -1.824  -4.826  0.00  0.00    +0.098 C 
ATOM     21  N   UNL     1       1.538  -1.511  -5.816  0.00  0.00    -0.191 NA
ENDBRANCH   2  20
BRANCH   1  22
ATOM     22  S   UNL     1      -1.877  -2.059  -4.873  0.00  0.00    -0.100 S 
BRANCH  22  23
ATOM     23  C   UNL     1      -3.503  -2.395  -4.153  0.00  0.00    +0.171 C 
BRANCH  23  25
ATOM     24  N   UNL     1      -5.865  -2.390  -4.889  0.00  0.00    -0.285 N 
ATOM     25  C   UNL     1      -4.568  -2.195  -5.200  0.00  0.00    +0.227 C 
ATOM     26  O   UNL     1      -4.258  -1.858  -6.323  0.00  0.00    -0.275 OA
ATOM     27  H   UNL     1      -6.107  -2.736  -4.016  0.00  0.00    +0.155 HD
BRANCH  24  34
ATOM     28  C   UNL     1      -8.361  -3.739  -4.668  0.00  0.00    +0.045 C 
ATOM     29  C   UNL     1      -8.094  -2.729  -5.754  0.00  0.00    -0.029 A 
ATOM     30  C   UNL     1      -9.076  -2.434  -6.680  0.00  0.00    +0.005 A 
ATOM     31  C   UNL     1      -8.832  -1.507  -7.676  0.00  0.00    +0.000 A 
ATOM     32  C   UNL     1      -7.606  -0.872  -7.750  0.00  0.00    +0.002 A 
ATOM     33  C   UNL     1      -6.622  -1.159  -6.824  0.00  0.00    +0.023 A 
ATOM     34  C   UNL     1      -6.862  -2.094  -5.825  0.00  0.00    +0.036 A 
ENDBRANCH  24  34
ENDBRANCH  23  25
ENDBRANCH  22  23
ENDBRANCH   1  22
TORSDOF 8
