REMARK  Name = ZINC04371582
REMARK  8 active torsions:
REMARK  status: ('A' for Active; 'I' for Inactive)
REMARK    1  A    between atoms: C_1  and  C_2
REMARK    2  A    between atoms: C_2  and  C_4
REMARK    3  A    between atoms: C_2  and  O_11
REMARK    4  A    between atoms: N_9  and  C_10
REMARK    5  A    between atoms: O_11  and  C_12
REMARK    6  A    between atoms: C_12  and  C_14
REMARK    7  A    between atoms: C_16  and  C_25
REMARK    8  A    between atoms: N_18  and  C_19
REMARK                            x       y       z     vdW  Elec       q    Type
REMARK                         _______ _______ _______ _____ _____    ______ ____
ROOT
ATOM      1  C   UNL     1       2.122   7.315  -0.592  0.00  0.00    +0.152 A 
ATOM      2  C   UNL     1       1.922   6.003  -0.964  0.00  0.00    +0.065 A 
ATOM      3  C   UNL     1       0.539   5.761  -0.940  0.00  0.00    +0.100 A 
ATOM      4  N   UNL     1      -0.073   6.867  -0.564  0.00  0.00    -0.165 NA
ATOM      5  N   UNL     1       0.890   7.859  -0.338  0.00  0.00    -0.225 N 
ENDROOT
BRANCH   5   6
ATOM      6  C   UNL     1       0.638   9.172   0.073  0.00  0.00    +0.066 A 
ATOM      7  C   UNL     1       1.397   9.741   1.088  0.00  0.00    +0.028 A 
ATOM      8  C   UNL     1       1.150  11.040   1.487  0.00  0.00    +0.002 A 
ATOM      9  C   UNL     1       0.140  11.770   0.886  0.00  0.00    +0.000 A 
ATOM     10  C   UNL     1      -0.620  11.204  -0.121  0.00  0.00    +0.002 A 
ATOM     11  C   UNL     1      -0.375   9.908  -0.529  0.00  0.00    +0.028 A 
ENDBRANCH   5   6
BRANCH   3  12
ATOM     12  C   UNL     1      -0.120   4.479  -1.274  0.00  0.00    +0.039 A 
ATOM     13  C   UNL     1      -1.453   4.168  -1.269  0.00  0.00    +0.018 A 
ATOM     14  C   UNL     1      -1.837   2.893  -1.627  0.00  0.00    +0.008 A 
ATOM     15  C   UNL     1      -0.885   1.985  -1.962  0.00  0.00    +0.046 A 
ATOM     16  S   UNL     1       0.616   2.936  -1.789  0.00  0.00    -0.095 S 
ENDBRANCH   3  12
BRANCH   1  17
ATOM     17  C   UNL     1       3.417   8.002  -0.482  0.00  0.00    +0.359 C 
ATOM     18  O   UNL     1       3.454   9.194  -0.250  0.00  0.00    -0.243 OA
BRANCH  17  19
ATOM     19  O   UNL     1       4.563   7.309  -0.637  0.00  0.00    -0.448 OA
BRANCH  19  21
ATOM     20  C   UNL     1       6.141   7.983   1.091  0.00  0.00    +0.062 C 
ATOM     21  C   UNL     1       5.803   8.025  -0.401  0.00  0.00    +0.259 C 
BRANCH  21  22
ATOM     22  C   UNL     1       6.915   7.377  -1.186  0.00  0.00    +0.261 C 
ATOM     23  O   UNL     1       6.722   6.323  -1.753  0.00  0.00    -0.271 OA
ATOM     24  N   UNL     1       8.124   7.969  -1.257  0.00  0.00    -0.237 N 
ATOM     25  C   UNL     1       9.118   7.389  -1.959  0.00  0.00    +0.306 C 
ATOM     26  O   UNL     1       8.924   6.332  -2.527  0.00  0.00    -0.252 OA
ATOM     27  N   UNL     1      10.326   7.981  -2.030  0.00  0.00    -0.302 N 
ATOM     28  C   UNL     1      11.407   7.351  -2.792  0.00  0.00    +0.129 C 
ATOM     29  H   UNL     1       8.278   8.812  -0.803  0.00  0.00    +0.159 HD
ATOM     30  H   UNL     1      10.481   8.824  -1.576  0.00  0.00    +0.150 HD
ENDBRANCH  21  22
ENDBRANCH  19  21
ENDBRANCH  17  19
ENDBRANCH   1  17
TORSDOF 6
