REMARK  Name = ZINC41603998
REMARK  4 active torsions:
REMARK  status: ('A' for Active; 'I' for Inactive)
REMARK    1  A    between atoms: C_9  and  C_12
REMARK    2  A    between atoms: C_12  and  N_13
REMARK    3  A    between atoms: C_18  and  C_21
REMARK    4  A    between atoms: C_21  and  C_22
REMARK                            x       y       z     vdW  Elec       q    Type
REMARK                         _______ _______ _______ _____ _____    ______ ____
ROOT
ATOM      1  N   UNL     1       6.008  -2.071   0.712  0.00  0.00    -0.309 N 
ATOM      2  C   UNL     1       7.308  -2.507   0.520  0.00  0.00    +0.238 A 
ATOM      3  N   UNL     1       8.289  -1.982   1.243  0.00  0.00    -0.173 NA
ATOM      4  C   UNL     1       9.535  -2.404   1.054  0.00  0.00    +0.297 A 
ATOM      5  O   UNL     1      10.557  -1.886   1.778  0.00  0.00    -0.264 OA
ATOM      6  C   UNL     1       9.770  -3.391   0.096  0.00  0.00    +0.134 A 
ATOM      7  N   UNL     1       8.753  -3.875  -0.592  0.00  0.00    -0.145 NA
ATOM      8  N   UNL     1       7.558  -3.448  -0.381  0.00  0.00    -0.113 NA
ATOM      9  H   UNL     1       5.820  -1.383   1.369  0.00  0.00    +0.149 HD
ENDROOT
BRANCH   1  10
ATOM     10  C   UNL     1       4.918  -2.649  -0.077  0.00  0.00    +0.152 C 
BRANCH  10  19
ATOM     11  C   UNL     1      -0.017   1.378   0.010  0.00  0.00    +0.004 A 
ATOM     12  C   UNL     1       1.170   2.088   0.002  0.00  0.00    +0.004 A 
ATOM     13  C   UNL     1       2.378   1.418  -0.014  0.00  0.00    +0.049 A 
ATOM     14  C   UNL     1       2.404   0.031  -0.023  0.00  0.00    +0.163 A 
ATOM     15  C   UNL     1       1.212  -0.683  -0.013  0.00  0.00    +0.162 A 
ATOM     16  C   UNL     1       0.002  -0.004   0.002  0.00  0.00    +0.049 A 
ATOM     17  O   UNL     1       1.214  -2.044  -0.013  0.00  0.00    -0.485 OA
ATOM     18  C   UNL     1       2.434  -2.685  -0.404  0.00  0.00    +0.275 C 
ATOM     19  C   UNL     1       3.594  -1.997   0.328  0.00  0.00    +0.228 C 
ATOM     20  O   UNL     1       3.602  -0.615  -0.043  0.00  0.00    -0.480 OA
ENDBRANCH  10  19
ENDBRANCH   1  10
BRANCH   6  21
ATOM     21  C   UNL     1      11.167  -3.898  -0.150  0.00  0.00    +0.098 C 
BRANCH  21  22
ATOM     22  C   UNL     1      11.443  -5.070   0.756  0.00  0.00    -0.041 A 
ATOM     23  C   UNL     1      11.983  -4.861   2.011  0.00  0.00    +0.007 A 
ATOM     24  C   UNL     1      12.236  -5.936   2.843  0.00  0.00    +0.038 A 
ATOM     25  C   UNL     1      11.949  -7.222   2.418  0.00  0.00    +0.123 A 
ATOM     26  C   UNL     1      11.409  -7.430   1.160  0.00  0.00    +0.038 A 
ATOM     27  C   UNL     1      11.152  -6.354   0.333  0.00  0.00    +0.007 A 
ATOM     28  F   UNL     1      12.196  -8.273   3.230  0.00  0.00    -0.205 F 
ENDBRANCH  21  22
ENDBRANCH   6  21
TORSDOF 4
