REMARK  Name = ZINC08674174
REMARK  9 active torsions:
REMARK  status: ('A' for Active; 'I' for Inactive)
REMARK    1  A    between atoms: C_1  and  C_2
REMARK    2  A    between atoms: C_4  and  C_33
REMARK    3  A    between atoms: C_9  and  C_13
REMARK    4  A    between atoms: C_10  and  O_12
REMARK    5  A    between atoms: C_13  and  C_15
REMARK    6  A    between atoms: C_13  and  N_64
REMARK    7  A    between atoms: N_19  and  C_20
REMARK    8  A    between atoms: C_20  and  C_21
REMARK    9  A    between atoms: C_29  and  C_32
REMARK                            x       y       z     vdW  Elec       q    Type
REMARK                         _______ _______ _______ _____ _____    ______ ____
ROOT
ATOM      1  C   UNL     1      -0.783   1.974   1.156  0.00  0.00    +0.039 C 
ENDROOT
BRANCH   1  10
ATOM      2  C   UNL     1       2.350   8.382  -0.886  0.00  0.00    +0.044 C 
ATOM      3  C   UNL     1       1.324   7.606  -0.101  0.00  0.00    -0.050 A 
ATOM      4  C   UNL     1       0.418   8.287   0.709  0.00  0.00    +0.008 A 
ATOM      5  C   UNL     1      -0.521   7.616   1.431  0.00  0.00    -0.024 A 
ATOM      6  C   UNL     1      -0.584   6.214   1.361  0.00  0.00    +0.078 A 
ATOM      7  C   UNL     1       0.338   5.523   0.537  0.00  0.00    +0.001 A 
ATOM      8  C   UNL     1       1.294   6.248  -0.193  0.00  0.00    +0.013 A 
ATOM      9  C   UNL     1       0.278   4.117   0.470  0.00  0.00    +0.017 A 
ATOM     10  C   UNL     1      -0.679   3.477   1.201  0.00  0.00    +0.008 A 
ATOM     11  C   UNL     1      -1.561   4.217   1.997  0.00  0.00    +0.215 A 
ATOM     12  N   UNL     1      -1.497   5.530   2.058  0.00  0.00    -0.213 NA
ATOM     13  C   UNL     1      -1.491   8.374   2.300  0.00  0.00    +0.046 C 
BRANCH  11  14
ATOM     14  O   UNL     1      -2.504   3.566   2.721  0.00  0.00    -0.492 OA
ATOM     15  H   UNL     1      -2.215   3.317   3.610  0.00  0.00    +0.294 HD
ENDBRANCH  11  14
ENDBRANCH   1  10
BRANCH   1  22
ATOM     16  C   UNL     1      -0.168   0.023  -0.138  0.00  0.00    -0.077 C 
ATOM     17  C   UNL     1       0.492  -0.437  -1.440  0.00  0.00    -0.015 C 
ATOM     18  C   UNL     1      -0.354   0.030  -2.628  0.00  0.00    -0.018 C 
ATOM     19  C   UNL     1      -0.496   1.554  -2.575  0.00  0.00    -0.015 C 
ATOM     20  C   UNL     1      -1.127   1.956  -1.240  0.00  0.00    -0.077 C 
ATOM     21  C   UNL     1       0.332  -0.374  -3.934  0.00  0.00    +0.007 C 
ATOM     22  N   UNL     1      -0.253   1.498  -0.139  0.00  0.00    +0.389 N 
ATOM     23  H   UNL     1       0.687   1.886  -0.277  0.00  0.00    -0.080 HD
ENDBRANCH   1  22
BRANCH   1  24
ATOM     24  C   UNL     1       0.039   1.380   2.271  0.00  0.00    +0.143 A 
ATOM     25  N   UNL     1       1.345   1.279   2.312  0.00  0.00    -0.115 NA
ATOM     26  N   UNL     1       1.666   0.719   3.426  0.00  0.00    -0.023 NA
ATOM     27  N   UNL     1       0.599   0.453   4.094  0.00  0.00    -0.044 NA
ATOM     28  N   UNL     1      -0.426   0.845   3.415  0.00  0.00    -0.228 N 
BRANCH  28  29
ATOM     29  C   UNL     1      -1.831   0.731   3.814  0.00  0.00    +0.178 C 
BRANCH  29  30
ATOM     30  C   UNL     1      -2.395  -0.602   3.318  0.00  0.00    +0.140 C 
ATOM     31  C   UNL     1      -3.904  -0.681   3.634  0.00  0.00    +0.035 C 
ATOM     32  C   UNL     1      -4.075  -2.166   4.056  0.00  0.00    +0.031 C 
ATOM     33  C   UNL     1      -2.719  -2.429   4.759  0.00  0.00    +0.160 C 
ATOM     34  O   UNL     1      -1.753  -1.685   4.000  0.00  0.00    -0.375 OA
ENDBRANCH  29  30
ENDBRANCH  28  29
ENDBRANCH   1  24
TORSDOF 6
