REMARK  Name = ZINC35345369
REMARK  3 active torsions:
REMARK  status: ('A' for Active; 'I' for Inactive)
REMARK    1  A    between atoms: C_6  and  N_7
REMARK    2  A    between atoms: N_7  and  C_8
REMARK    3  A    between atoms: C_13  and  N_14
REMARK                            x       y       z     vdW  Elec       q    Type
REMARK                         _______ _______ _______ _____ _____    ______ ____
ROOT
ATOM      1  C   UNL     1      -1.179  -2.116  -0.104  0.00  0.00    +0.054 A 
ATOM      2  C   UNL     1       0.029  -2.793  -0.113  0.00  0.00    +0.048 A 
ATOM      3  C   UNL     1       0.052  -4.181  -0.226  0.00  0.00    +0.039 A 
ATOM      4  C   UNL     1      -1.149  -4.872  -0.328  0.00  0.00    -0.016 A 
ATOM      5  C   UNL     1      -2.354  -4.204  -0.318  0.00  0.00    +0.030 A 
ATOM      6  C   UNL     1      -2.379  -2.821  -0.201  0.00  0.00    +0.046 A 
ATOM      7  C   UNL     1      -0.789  -6.336  -0.435  0.00  0.00    +0.133 C 
ATOM      8  C   UNL     1       0.723  -6.350  -0.379  0.00  0.00    +0.222 C 
ATOM      9  O   UNL     1       1.437  -7.329  -0.432  0.00  0.00    -0.275 OA
ATOM     10  N   UNL     1       1.127  -5.074  -0.259  0.00  0.00    -0.285 N 
ATOM     11  H   UNL     1       2.057  -4.804  -0.202  0.00  0.00    +0.155 HD
ENDROOT
BRANCH   6  12
ATOM     12  N   UNL     1      -3.602  -2.137  -0.186  0.00  0.00    -0.357 N 
ATOM     13  H   UNL     1      -3.616  -1.170  -0.107  0.00  0.00    +0.142 HD
ATOM     14  H   UNL     1      -4.435  -2.630  -0.254  0.00  0.00    +0.142 HD
ENDBRANCH   6  12
BRANCH   1  15
ATOM     15  N   UNL     1      -1.197  -0.720   0.010  0.00  0.00    -0.313 N 
ATOM     16  H   UNL     1      -2.040  -0.254   0.128  0.00  0.00    +0.152 HD
BRANCH  15  22
ATOM     17  C   UNL     1       0.969  -0.336  -0.983  0.00  0.00    +0.024 A 
ATOM     18  C   UNL     1       2.150   0.379  -1.037  0.00  0.00    +0.016 A 
ATOM     19  C   UNL     1       2.366   1.428  -0.162  0.00  0.00    +0.013 A 
ATOM     20  C   UNL     1       1.401   1.765   0.770  0.00  0.00    +0.016 A 
ATOM     21  C   UNL     1       0.218   1.054   0.830  0.00  0.00    +0.024 A 
ATOM     22  C   UNL     1      -0.002   0.000  -0.048  0.00  0.00    +0.031 A 
ATOM     23  I   UNL     1       4.159   2.508  -0.247  0.00  0.00    -0.044 I 
ENDBRANCH  15  22
ENDBRANCH   1  15
TORSDOF 3
