REMARK  Name = ZINC17137684
REMARK  12 active torsions:
REMARK  status: ('A' for Active; 'I' for Inactive)
REMARK    1  A    between atoms: C_1  and  C_2
REMARK    2  A    between atoms: N_6  and  O_7
REMARK    3  A    between atoms: O_7  and  C_8
REMARK    4  A    between atoms: C_8  and  C_9
REMARK    5  A    between atoms: N_11  and  C_12
REMARK    6  A    between atoms: C_12  and  C_14
REMARK    7  A    between atoms: C_12  and  C_20
REMARK    8  A    between atoms: C_20  and  O_22
REMARK    9  A    between atoms: O_22  and  C_23
REMARK   10  A    between atoms: C_34  and  C_43
REMARK   11  A    between atoms: C_39  and  C_40
REMARK   12  A    between atoms: C_39  and  O_42
REMARK                            x       y       z     vdW  Elec       q    Type
REMARK                         _______ _______ _______ _____ _____    ______ ____
ROOT
ATOM      1  C   UNL     1      -2.613   0.162   1.421  0.00  0.00    +0.016 C 
ATOM      2  C   UNL     1      -2.181   1.628   1.266  0.00  0.00    -0.007 C 
ATOM      3  C   UNL     1      -2.788   2.303   2.472  0.00  0.00    +0.017 C 
ATOM      4  C   UNL     1      -3.212   3.741   2.189  0.00  0.00    +0.059 C 
ATOM      5  C   UNL     1      -4.128   3.742   0.980  0.00  0.00    +0.080 C 
ATOM      6  N   UNL     1      -5.237   4.415   0.973  0.00  0.00    -0.089 NA
ATOM      7  C   UNL     1      -3.683   2.967  -0.193  0.00  0.00    +0.026 C 
ATOM      8  C   UNL     1      -2.743   2.043  -0.050  0.00  0.00    -0.062 C 
ATOM      9  C   UNL     1      -2.185   1.366  -1.289  0.00  0.00    +0.031 C 
ATOM     10  C   UNL     1      -0.676   1.561  -1.277  0.00  0.00    +0.008 C 
ATOM     11  C   UNL     1      -0.013   1.086   0.008  0.00  0.00    -0.003 C 
ATOM     12  C   UNL     1      -0.681   1.571   1.279  0.00  0.00    +0.002 C 
ATOM     13  C   UNL     1      -0.025   2.846   1.794  0.00  0.00    +0.005 C 
ATOM     14  C   UNL     1       1.383   2.528   2.325  0.00  0.00    +0.011 C 
ATOM     15  C   UNL     1       2.052   1.536   1.402  0.00  0.00    +0.011 C 
ATOM     16  C   UNL     1       1.420   1.610  -0.003  0.00  0.00    +0.002 C 
ATOM     17  C   UNL     1       2.393   0.765  -0.842  0.00  0.00    +0.008 C 
ATOM     18  C   UNL     1       3.785   1.111  -0.254  0.00  0.00    +0.049 C 
ATOM     19  C   UNL     1       3.527   1.844   1.086  0.00  0.00    +0.132 C 
ATOM     20  C   UNL     1       1.984   0.123   1.982  0.00  0.00    +0.015 C 
ENDROOT
BRANCH  19  21
ATOM     21  C   UNL     1       4.394   1.303   2.142  0.00  0.00    -0.070 C 
ATOM     22  C   UNL     1       5.086   0.871   2.986  0.00  0.00    +0.007 C 
ENDBRANCH  19  21
BRANCH  19  23
ATOM     23  O   UNL     1       3.725   3.247   0.933  0.00  0.00    -0.376 OA
ATOM     24  H   UNL     1       4.624   3.491   0.674  0.00  0.00    +0.211 HD
ENDBRANCH  19  23
BRANCH   6  25
ATOM     25  O   UNL     1      -6.054   4.419  -0.183  0.00  0.00    -0.384 OA
BRANCH  25  26
ATOM     26  C   UNL     1      -7.243   5.201  -0.052  0.00  0.00    +0.358 C 
BRANCH  26  27
ATOM     27  C   UNL     1      -8.033   5.134  -1.334  0.00  0.00    +0.254 C 
ATOM     28  O   UNL     1      -7.619   4.481  -2.268  0.00  0.00    -0.272 OA
ATOM     29  N   UNL     1      -9.200   5.800  -1.442  0.00  0.00    -0.296 N 
ATOM     30  H   UNL     1      -9.531   6.323  -0.694  0.00  0.00    +0.150 HD
BRANCH  29  31
ATOM     31  C   UNL     1      -9.967   5.735  -2.688  0.00  0.00    +0.213 C 
BRANCH  31  32
ATOM     32  C   UNL     1     -10.834   6.962  -2.808  0.00  0.00    -0.017 A 
ATOM     33  C   UNL     1     -11.481   7.463  -1.694  0.00  0.00    +0.006 A 
ATOM     34  C   UNL     1     -12.272   8.592  -1.803  0.00  0.00    +0.000 A 
ATOM     35  C   UNL     1     -12.425   9.213  -3.029  0.00  0.00    +0.000 A 
ATOM     36  C   UNL     1     -11.783   8.708  -4.144  0.00  0.00    +0.000 A 
ATOM     37  C   UNL     1     -10.987   7.583  -4.034  0.00  0.00    +0.006 A 
ENDBRANCH  31  32
BRANCH  31  38
ATOM     38  C   UNL     1     -10.837   4.505  -2.678  0.00  0.00    +0.332 C 
ATOM     39  O   UNL     1     -10.818   3.758  -1.728  0.00  0.00    -0.248 OA
BRANCH  38  40
ATOM     40  O   UNL     1     -11.633   4.238  -3.725  0.00  0.00    -0.466 OA
ATOM     41  C   UNL     1     -12.443   3.035  -3.648  0.00  0.00    +0.280 C 
ENDBRANCH  38  40
ENDBRANCH  31  38
ENDBRANCH  29  31
ENDBRANCH  26  27
ENDBRANCH  25  26
ENDBRANCH   6  25
TORSDOF 9
