REMARK  Name = ZINC57420340
REMARK  7 active torsions:
REMARK  status: ('A' for Active; 'I' for Inactive)
REMARK    1  A    between atoms: C_1  and  C_2
REMARK    2  A    between atoms: C_2  and  N_3
REMARK    3  A    between atoms: C_12  and  C_14
REMARK    4  A    between atoms: N_16  and  N_17
REMARK    5  A    between atoms: C_20  and  C_26
REMARK    6  A    between atoms: C_24  and  C_25
REMARK    7  A    between atoms: C_26  and  C_28
REMARK                            x       y       z     vdW  Elec       q    Type
REMARK                         _______ _______ _______ _____ _____    ______ ____
ROOT
ATOM      1  C   UNL     1       4.176  -1.276   1.907  0.00  0.00    +0.284 C 
ATOM      2  O   UNL     1       4.864  -1.675   2.827  0.00  0.00    -0.267 OA
ATOM      3  N   UNL     1       4.741  -0.995   0.716  0.00  0.00    -0.201 N 
ATOM      4  H   UNL     1       4.193  -0.677  -0.018  0.00  0.00    +0.178 HD
ENDROOT
BRANCH   1  14
ATOM      5  N   UNL     1       0.711  -0.489   1.189  0.00  0.00    -0.229 N 
ATOM      6  C   UNL     1      -0.005  -0.723   2.308  0.00  0.00    +0.275 A 
ATOM      7  O   UNL     1      -1.208  -0.535   2.329  0.00  0.00    -0.266 OA
ATOM      8  C   UNL     1       0.701  -1.211   3.501  0.00  0.00    +0.050 A 
ATOM      9  C   UNL     1       0.055  -1.481   4.704  0.00  0.00    +0.014 A 
ATOM     10  C   UNL     1       0.790  -1.936   5.778  0.00  0.00    +0.001 A 
ATOM     11  C   UNL     1       2.162  -2.124   5.671  0.00  0.00    +0.001 A 
ATOM     12  C   UNL     1       2.820  -1.861   4.488  0.00  0.00    +0.011 A 
ATOM     13  C   UNL     1       2.098  -1.403   3.392  0.00  0.00    +0.020 A 
ATOM     14  C   UNL     1       2.724  -1.099   2.095  0.00  0.00    +0.155 A 
ATOM     15  N   UNL     1       1.974  -0.674   1.107  0.00  0.00    -0.163 NA
BRANCH   5  17
ATOM     16  C   UNL     1      -0.019   1.526   0.010  0.00  0.00    +0.029 C 
ATOM     17  C   UNL     1       0.002  -0.004   0.002  0.00  0.00    +0.144 C 
ENDBRANCH   5  17
ENDBRANCH   1  14
BRANCH   3  18
ATOM     18  N   UNL     1       6.121  -1.163   0.538  0.00  0.00    -0.184 NA
ATOM     19  C   UNL     1       6.665  -0.892  -0.611  0.00  0.00    +0.062 C 
ATOM     20  C   UNL     1       5.834  -0.388  -1.773  0.00  0.00    +0.065 C 
ATOM     21  C   UNL     1       6.328  -1.111  -3.034  0.00  0.00    +0.024 C 
ATOM     22  C   UNL     1       7.794  -0.751  -3.273  0.00  0.00    +0.035 C 
ATOM     23  C   UNL     1       8.621  -1.004  -2.048  0.00  0.00    -0.021 C 
ATOM     24  C   UNL     1       8.111  -1.060  -0.826  0.00  0.00    -0.032 C 
ATOM     25  C   UNL     1       9.018  -1.302   0.353  0.00  0.00    +0.045 C 
BRANCH  21  26
ATOM     26  C   UNL     1       5.502  -0.679  -4.219  0.00  0.00    -0.076 C 
ATOM     27  C   UNL     1       4.816  -1.566  -4.896  0.00  0.00    +0.007 C 
ATOM     28  C   UNL     1       5.464   0.772  -4.623  0.00  0.00    +0.039 C 
ENDBRANCH  21  26
ENDBRANCH   3  18
TORSDOF 4
