REMARK  Name = ZINC00943130
REMARK  4 active torsions:
REMARK  status: ('A' for Active; 'I' for Inactive)
REMARK    1  A    between atoms: N_9  and  N_10
REMARK    2  A    between atoms: N_10  and  C_11
REMARK    3  A    between atoms: C_11  and  N_13
REMARK    4  A    between atoms: C_15  and  C_18
REMARK                            x       y       z     vdW  Elec       q    Type
REMARK                         _______ _______ _______ _____ _____    ______ ____
ROOT
ATOM      1  C   UNL     1      -3.967   7.249  -1.318  0.00  0.00    +0.042 A 
ATOM      2  C   UNL     1      -3.670   5.900  -1.372  0.00  0.00    +0.049 A 
ATOM      3  C   UNL     1      -2.767   5.350  -0.476  0.00  0.00    +0.130 A 
ATOM      4  C   UNL     1      -2.160   6.177   0.479  0.00  0.00    +0.042 A 
ATOM      5  C   UNL     1      -2.464   7.534   0.530  0.00  0.00    +0.051 A 
ATOM      6  C   UNL     1      -3.369   8.066  -0.371  0.00  0.00    +0.124 A 
ATOM      7  F   UNL     1      -3.669   9.382  -0.329  0.00  0.00    -0.205 F 
ATOM      8  C   UNL     1      -1.192   5.584   1.428  0.00  0.00    +0.074 C 
ATOM      9  N   UNL     1      -0.432   6.322   2.180  0.00  0.00    -0.185 NA
ATOM     10  C   UNL     1      -1.132   4.067   1.477  0.00  0.00    +0.107 C 
ATOM     11  C   UNL     1      -1.253   3.564   0.031  0.00  0.00    +0.213 C 
ATOM     12  O   UNL     1      -2.481   4.026  -0.530  0.00  0.00    -0.483 OA
ENDROOT
BRANCH  11  13
ATOM     13  C   UNL     1      -1.229   2.057   0.019  0.00  0.00    +0.036 A 
ATOM     14  C   UNL     1      -2.415   1.348   0.027  0.00  0.00    +0.031 A 
ATOM     15  C   UNL     1      -2.394  -0.035   0.017  0.00  0.00    +0.042 A 
ATOM     16  C   UNL     1      -1.186  -0.710   0.004  0.00  0.00    +0.029 A 
ATOM     17  C   UNL     1       0.002  -0.004   0.002  0.00  0.00    +0.022 A 
ATOM     18  C   UNL     1      -0.017   1.382   0.010  0.00  0.00    +0.136 A 
ATOM     19  O   UNL     1       1.145   2.089   0.002  0.00  0.00    -0.465 OA
ATOM     20  C   UNL     1       2.337   1.377   0.349  0.00  0.00    +0.394 C 
ATOM     21  O   UNL     1       2.363   0.146  -0.383  0.00  0.00    -0.339 OA
ATOM     22  C   UNL     1       1.312  -0.750  -0.009  0.00  0.00    +0.202 C 
ATOM     23 CL   UNL     1      -3.885  -0.925   0.019  0.00  0.00    -0.084 Cl
ENDBRANCH  11  13
BRANCH   9  24
ATOM     24  N   UNL     1       0.472   5.721   3.066  0.00  0.00    -0.218 N 
ATOM     25  H   UNL     1       0.531   4.754   3.118  0.00  0.00    +0.176 HD
BRANCH  24  26
ATOM     26  C   UNL     1       1.260   6.487   3.846  0.00  0.00    +0.147 C 
ATOM     27  S   UNL     1       2.365   5.754   4.928  0.00  0.00    -0.017 S 
BRANCH  26  28
ATOM     28  N   UNL     1       1.178   7.830   3.774  0.00  0.00    -0.339 N 
ATOM     29  H   UNL     1       0.552   8.246   3.160  0.00  0.00    +0.144 HD
ATOM     30  H   UNL     1       1.746   8.382   4.335  0.00  0.00    +0.144 HD
ENDBRANCH  26  28
ENDBRANCH  24  26
ENDBRANCH   9  24
TORSDOF 4
