REMARK  Name = ZINC02279632
REMARK  3 active torsions:
REMARK  status: ('A' for Active; 'I' for Inactive)
REMARK    1  A    between atoms: C_12  and  N_16
REMARK    2  A    between atoms: N_16  and  C_17
REMARK    3  A    between atoms: C_17  and  C_18
REMARK                            x       y       z     vdW  Elec       q    Type
REMARK                         _______ _______ _______ _____ _____    ______ ____
ROOT
ATOM      1  C   UNL     1       1.816  -4.224  -0.045  0.00  0.00    +0.001 A 
ATOM      2  C   UNL     1       3.203  -4.286  -0.055  0.00  0.00    +0.001 A 
ATOM      3  C   UNL     1       3.955  -3.134  -0.053  0.00  0.00    +0.012 A 
ATOM      4  C   UNL     1       3.328  -1.883  -0.039  0.00  0.00    +0.033 A 
ATOM      5  C   UNL     1       1.914  -1.822  -0.028  0.00  0.00    +0.031 A 
ATOM      6  C   UNL     1       1.173  -3.008  -0.030  0.00  0.00    +0.012 A 
ATOM      7  C   UNL     1       1.234  -0.526  -0.013  0.00  0.00    +0.176 A 
ATOM      8  C   UNL     1       2.045   0.580  -0.013  0.00  0.00    +0.062 A 
ATOM      9  C   UNL     1       1.180   1.754   0.000  0.00  0.00    +0.115 A 
ATOM     10  C   UNL     1       1.890   3.031  -0.003  0.00  0.00    +0.033 A 
ATOM     11  C   UNL     1       3.248   3.041  -0.014  0.00  0.00    +0.026 A 
ATOM     12  C   UNL     1       4.069   1.894  -0.026  0.00  0.00    +0.039 A 
ATOM     13  C   UNL     1       3.481   0.627  -0.026  0.00  0.00    +0.056 A 
ATOM     14  C   UNL     1       4.169  -0.663  -0.038  0.00  0.00    +0.196 C 
ATOM     15  O   UNL     1       5.387  -0.732  -0.047  0.00  0.00    -0.287 OA
ATOM     16  N   UNL     1      -0.015   1.226   0.009  0.00  0.00    -0.078 NA
ATOM     17  O   UNL     1       0.002  -0.004   0.002  0.00  0.00    -0.353 OA
ENDROOT
BRANCH  12  18
ATOM     18  N   UNL     1       5.440   2.022  -0.036  0.00  0.00    -0.342 N 
ATOM     19  H   UNL     1       6.001   1.231  -0.044  0.00  0.00    +0.146 HD
BRANCH  18  20
ATOM     20  C   UNL     1       6.051   3.353  -0.036  0.00  0.00    +0.113 C 
BRANCH  20  21
ATOM     21  C   UNL     1       7.575   3.215  -0.048  0.00  0.00    +0.098 C 
ATOM     22 BR   UNL     1       8.396   5.002  -0.048  0.00  0.00    -0.090 Br
ENDBRANCH  20  21
ENDBRANCH  18  20
ENDBRANCH  12  18
TORSDOF 3
