REMARK  Name = ZINC47264216
REMARK  5 active torsions:
REMARK  status: ('A' for Active; 'I' for Inactive)
REMARK    1  A    between atoms: C_1  and  C_2
REMARK    2  A    between atoms: C_8  and  C_10
REMARK    3  A    between atoms: N_13  and  C_16
REMARK    4  A    between atoms: C_16  and  C_17
REMARK    5  A    between atoms: C_22  and  C_27
REMARK                            x       y       z     vdW  Elec       q    Type
REMARK                         _______ _______ _______ _____ _____    ______ ____
ROOT
ATOM      1  C   UNL     1      -0.004  -5.018   3.410  0.00  0.00    +0.078 C 
ATOM      2  C   UNL     1       1.236  -4.800   4.281  0.00  0.00    +0.028 C 
ATOM      3  C   UNL     1       1.310  -5.902   5.340  0.00  0.00    +0.085 C 
ATOM      4  N   UNL     1       1.376  -7.213   4.682  0.00  0.00    -0.297 NA
ATOM      5  C   UNL     1       0.174  -7.464   3.878  0.00  0.00    +0.085 C 
ATOM      6  C   UNL     1       0.066  -6.409   2.774  0.00  0.00    +0.028 C 
ENDROOT
BRANCH   1  14
ATOM      7  C   UNL     1      -0.328   1.896   0.865  0.00  0.00    +0.066 C 
ATOM      8  C   UNL     1      -0.255   0.397   0.727  0.00  0.00    +0.047 A 
ATOM      9  C   UNL     1      -0.221  -0.201  -0.489  0.00  0.00    +0.071 A 
ATOM     10  S   UNL     1      -0.139  -1.920  -0.013  0.00  0.00    -0.060 S 
ATOM     11  C   UNL     1      -0.157  -1.700   1.655  0.00  0.00    +0.165 A 
ATOM     12  N   UNL     1      -0.216  -0.392   1.784  0.00  0.00    -0.230 NA
ATOM     13  N   UNL     1      -0.115  -2.666   2.654  0.00  0.00    -0.264 N 
ATOM     14  C   UNL     1      -0.050  -3.971   2.327  0.00  0.00    +0.222 C 
ATOM     15  O   UNL     1      -0.029  -4.304   1.161  0.00  0.00    -0.275 OA
ATOM     16  H   UNL     1      -0.132  -2.400   3.587  0.00  0.00    +0.157 HD
ENDBRANCH   1  14
BRANCH   4  17
ATOM     17  C   UNL     1       1.587  -8.285   5.664  0.00  0.00    +0.137 C 
BRANCH  17  18
ATOM     18  C   UNL     1       3.023  -8.273   6.119  0.00  0.00    +0.037 A 
ATOM     19  C   UNL     1       3.342  -7.983   7.429  0.00  0.00    +0.093 A 
ATOM     20  C   UNL     1       4.677  -7.978   7.832  0.00  0.00    +0.259 A 
ATOM     21  O   UNL     1       4.965  -7.722   8.991  0.00  0.00    -0.267 OA
ATOM     22  N   UNL     1       5.663  -8.260   6.929  0.00  0.00    -0.261 N 
ATOM     23  C   UNL     1       7.015  -8.294   7.172  0.00  0.00    +0.033 A 
ATOM     24  C   UNL     1       7.882  -8.583   6.202  0.00  0.00    +0.070 A 
ATOM     25  S   UNL     1       6.796  -8.841   4.807  0.00  0.00    -0.059 S 
ATOM     26  C   UNL     1       5.259  -8.536   5.651  0.00  0.00    +0.158 A 
ATOM     27  N   UNL     1       4.007  -8.548   5.266  0.00  0.00    -0.337 N 
ATOM     28  C   UNL     1       7.527  -7.999   8.559  0.00  0.00    +0.064 C 
ATOM     29  H   UNL     1       3.793  -8.757   4.343  0.00  0.00    +0.168 HD
ENDBRANCH  17  18
ENDBRANCH   4  17
TORSDOF 3
