REMARK  Name = ZINC01375636
REMARK  12 active torsions:
REMARK  status: ('A' for Active; 'I' for Inactive)
REMARK    1  A    between atoms: C_1  and  C_2
REMARK    2  A    between atoms: C_2  and  C_3
REMARK    3  A    between atoms: C_3  and  C_5
REMARK    4  A    between atoms: C_3  and  N_16
REMARK    5  A    between atoms: N_9  and  C_10
REMARK    6  A    between atoms: C_10  and  C_11
REMARK    7  A    between atoms: N_16  and  C_17
REMARK    8  A    between atoms: N_16  and  C_27
REMARK    9  A    between atoms: C_17  and  C_18
REMARK   10  A    between atoms: C_27  and  C_28
REMARK   11  A    between atoms: C_31  and  C_41
REMARK   12  A    between atoms: C_34  and  C_40
REMARK                            x       y       z     vdW  Elec       q    Type
REMARK                         _______ _______ _______ _____ _____    ______ ____
ROOT
ATOM      1  N   UNL     1       2.154  -0.037  -1.366  0.00  0.00    -0.284 NA
ENDROOT
BRANCH   1   2
ATOM      2  C   UNL     1       0.967  -0.900  -1.311  0.00  0.00    +0.127 C 
BRANCH   2   3
ATOM      3  C   UNL     1       0.252  -0.855  -2.637  0.00  0.00    +0.169 A 
ATOM      4  N   UNL     1       0.746  -1.185  -3.805  0.00  0.00    -0.112 NA
ATOM      5  N   UNL     1      -0.173  -1.010  -4.690  0.00  0.00    -0.023 NA
ATOM      6  N   UNL     1      -1.242  -0.577  -4.117  0.00  0.00    -0.043 NA
ATOM      7  N   UNL     1      -1.021  -0.473  -2.850  0.00  0.00    -0.220 N 
BRANCH   7   8
ATOM      8  C   UNL     1      -1.976  -0.021  -1.835  0.00  0.00    +0.221 C 
BRANCH   8   9
ATOM      9  C   UNL     1      -2.040   1.484  -1.841  0.00  0.00    +0.126 A 
ATOM     10  C   UNL     1      -2.947   2.231  -2.497  0.00  0.00    +0.046 A 
ATOM     11  C   UNL     1      -2.637   3.583  -2.227  0.00  0.00    +0.041 A 
ATOM     12  C   UNL     1      -1.559   3.583  -1.423  0.00  0.00    +0.195 A 
ATOM     13  O   UNL     1      -1.205   2.308  -1.187  0.00  0.00    -0.466 OA
ENDBRANCH   8   9
ENDBRANCH   7   8
ENDBRANCH   2   3
BRANCH   2  15
ATOM     14  C   UNL     1       2.014  -2.405   0.386  0.00  0.00    +0.006 C 
ATOM     15  C   UNL     1       1.395  -2.338  -1.012  0.00  0.00    +0.023 C 
ENDBRANCH   2  15
ENDBRANCH   1   2
BRANCH   1  16
ATOM     16  C   UNL     1       2.886  -0.228  -2.625  0.00  0.00    +0.120 C 
BRANCH  16  17
ATOM     17  C   UNL     1       4.281   0.325  -2.484  0.00  0.00    -0.030 A 
ATOM     18  C   UNL     1       4.548   1.628  -2.862  0.00  0.00    +0.009 A 
ATOM     19  C   UNL     1       5.826   2.140  -2.734  0.00  0.00    +0.050 A 
ATOM     20  C   UNL     1       6.843   1.347  -2.227  0.00  0.00    +0.166 A 
ATOM     21  C   UNL     1       6.574   0.035  -1.847  0.00  0.00    +0.167 A 
ATOM     22  C   UNL     1       5.290  -0.470  -1.972  0.00  0.00    +0.054 A 
ATOM     23  O   UNL     1       7.727  -0.530  -1.385  0.00  0.00    -0.453 OA
ATOM     24  C   UNL     1       8.789   0.315  -1.866  0.00  0.00    +0.466 C 
ATOM     25  O   UNL     1       8.165   1.605  -2.003  0.00  0.00    -0.453 OA
ENDBRANCH  16  17
ENDBRANCH   1  16
BRANCH   1  26
ATOM     26  C   UNL     1       1.789   1.373  -1.179  0.00  0.00    +0.126 C 
BRANCH  26  27
ATOM     27  C   UNL     1       1.790   1.701   0.292  0.00  0.00    +0.032 A 
ATOM     28  C   UNL     1       2.888   2.256   0.861  0.00  0.00    +0.020 A 
ATOM     29  C   UNL     1       2.856   2.563   2.292  0.00  0.00    +0.002 A 
ATOM     30  C   UNL     1       3.959   3.137   2.934  0.00  0.00    -0.041 A 
ATOM     31  C   UNL     1       3.897   3.412   4.270  0.00  0.00    +0.004 A 
ATOM     32  C   UNL     1       2.750   3.126   4.998  0.00  0.00    +0.005 A 
ATOM     33  C   UNL     1       1.652   2.560   4.386  0.00  0.00    -0.026 A 
ATOM     34  C   UNL     1       1.691   2.272   3.026  0.00  0.00    +0.052 A 
ATOM     35  N   UNL     1       0.607   1.707   2.389  0.00  0.00    -0.322 N 
ATOM     36  H   UNL     1      -0.195   1.508   2.896  0.00  0.00    +0.169 HD
ATOM     37  C   UNL     1       0.644   1.434   1.073  0.00  0.00    +0.254 A 
ATOM     38  O   UNL     1      -0.335   0.939   0.541  0.00  0.00    -0.268 OA
ATOM     39  C   UNL     1       0.413   2.254   5.189  0.00  0.00    +0.046 C 
ATOM     40  C   UNL     1       5.210   3.451   2.154  0.00  0.00    +0.044 C 
ENDBRANCH  26  27
ENDBRANCH   1  26
TORSDOF 9
