REMARK  Name = ZINC63375651
REMARK  11 active torsions:
REMARK  status: ('A' for Active; 'I' for Inactive)
REMARK    1  A    between atoms: C_1  and  C_2
REMARK    2  A    between atoms: N_20  and  C_23
REMARK    3  A    between atoms: C_28  and  C_29
REMARK    4  A    between atoms: N_31  and  C_32
REMARK    5  A    between atoms: C_32  and  C_34
REMARK    6  A    between atoms: C_32  and  C_35
REMARK    7  A    between atoms: C_35  and  C_36
REMARK    8  A    between atoms: C_36  and  C_37
REMARK    9  A    between atoms: C_37  and  C_38
REMARK   10  A    between atoms: C_38  and  C_39
REMARK   11  A    between atoms: C_38  and  C_40
REMARK                            x       y       z     vdW  Elec       q    Type
REMARK                         _______ _______ _______ _____ _____    ______ ____
ROOT
ATOM      1  C   UNL     1      -0.019   1.526   0.010  0.00  0.00    +0.030 C 
ATOM      2  C   UNL     1       0.002  -0.004   0.002  0.00  0.00    +0.102 C 
ATOM      3  C   UNL     1      -1.434  -0.540   0.026  0.00  0.00    +0.126 C 
ATOM      4  C   UNL     1      -1.437  -1.832   0.826  0.00  0.00    -0.035 C 
ATOM      5  C   UNL     1      -1.889  -2.779   0.005  0.00  0.00    -0.001 A 
ATOM      6  C   UNL     1      -2.149  -4.212   0.219  0.00  0.00    +0.010 A 
ATOM      7  C   UNL     1      -2.612  -4.903  -0.857  0.00  0.00    +0.001 A 
ATOM      8  C   UNL     1      -2.838  -4.319  -2.107  0.00  0.00    +0.002 A 
ATOM      9  C   UNL     1      -2.629  -3.009  -2.391  0.00  0.00    +0.026 A 
ATOM     10  C   UNL     1      -2.145  -2.178  -1.338  0.00  0.00    +0.043 A 
ATOM     11  N   UNL     1      -1.877  -0.886  -1.330  0.00  0.00    -0.376 N 
ATOM     12  C   UNL     1      -0.964  -1.942   2.253  0.00  0.00    +0.065 C 
ATOM     13  C   UNL     1       0.068  -0.829   2.485  0.00  0.00    +0.169 C 
ATOM     14  N   UNL     1       0.699  -0.495   1.194  0.00  0.00    -0.268 N 
ATOM     15  C   UNL     1       2.012  -0.737   1.329  0.00  0.00    +0.317 C 
ATOM     16  O   UNL     1       2.834  -0.513   0.462  0.00  0.00    -0.252 OA
ATOM     17  N   UNL     1       2.314  -1.253   2.527  0.00  0.00    -0.192 N 
ATOM     18  C   UNL     1       1.208  -1.363   3.328  0.00  0.00    +0.248 C 
ATOM     19  O   UNL     1       1.141  -1.794   4.459  0.00  0.00    -0.273 OA
ATOM     20  H   UNL     1      -1.952  -0.271  -2.076  0.00  0.00    +0.160 HD
ENDROOT
BRANCH  17  21
ATOM     21  C   UNL     1       3.601  -1.625   2.919  0.00  0.00    +0.058 A 
ATOM     22  C   UNL     1       4.431  -0.708   3.549  0.00  0.00    +0.025 A 
ATOM     23  C   UNL     1       5.703  -1.078   3.936  0.00  0.00    +0.002 A 
ATOM     24  C   UNL     1       6.162  -2.364   3.700  0.00  0.00    +0.001 A 
ATOM     25  C   UNL     1       5.352  -3.288   3.076  0.00  0.00    +0.015 A 
ATOM     26  C   UNL     1       4.060  -2.929   2.683  0.00  0.00    +0.059 A 
BRANCH  26  27
ATOM     27  C   UNL     1       3.185  -3.915   2.020  0.00  0.00    +0.246 C 
ATOM     28  O   UNL     1       2.063  -3.597   1.675  0.00  0.00    -0.270 OA
ATOM     29  N   UNL     1       3.630  -5.167   1.795  0.00  0.00    -0.309 N 
ATOM     30  H   UNL     1       4.525  -5.420   2.070  0.00  0.00    +0.149 HD
BRANCH  29  31
ATOM     31  C   UNL     1       2.762  -6.146   1.136  0.00  0.00    +0.070 C 
ATOM     32  C   UNL     1       2.877  -5.990  -0.382  0.00  0.00    +0.028 C 
BRANCH  31  33
ATOM     33  C   UNL     1       3.189  -7.559   1.538  0.00  0.00    +0.022 C 
BRANCH  33  34
ATOM     34  C   UNL     1       2.956  -7.756   3.037  0.00  0.00    +0.002 C 
BRANCH  34  35
ATOM     35  C   UNL     1       3.383  -9.169   3.438  0.00  0.00    +0.003 C 
BRANCH  35  36
ATOM     36  C   UNL     1       3.150  -9.366   4.938  0.00  0.00    -0.017 C 
ATOM     37  C   UNL     1       3.459 -10.815   5.316  0.00  0.00    +0.007 C 
ATOM     38  C   UNL     1       4.067  -8.427   5.724  0.00  0.00    +0.007 C 
ENDBRANCH  35  36
ENDBRANCH  34  35
ENDBRANCH  33  34
ENDBRANCH  31  33
ENDBRANCH  29  31
ENDBRANCH  26  27
ENDBRANCH  17  21
TORSDOF 7
