REMARK  Name = ZINC38744395
REMARK  5 active torsions:
REMARK  status: ('A' for Active; 'I' for Inactive)
REMARK    1  A    between atoms: C_1  and  C_2
REMARK    2  A    between atoms: C_2  and  C_3
REMARK    3  A    between atoms: C_2  and  C_4
REMARK    4  A    between atoms: C_6  and  C_10
REMARK    5  A    between atoms: C_14  and  C_19
REMARK                            x       y       z     vdW  Elec       q    Type
REMARK                         _______ _______ _______ _____ _____    ______ ____
ROOT
ATOM      1  C   UNL     1      -3.607  -3.034  -0.220  0.00  0.00    +0.182 C 
ATOM      2  N   UNL     1      -4.997  -3.293   0.240  0.00  0.00    -0.265 N 
ATOM      3  N   UNL     1      -5.122  -4.288   1.164  0.00  0.00    -0.220 N 
ATOM      4  C   UNL     1      -6.129  -5.125   1.635  0.00  0.00    +0.182 A 
ATOM      5  N   UNL     1      -5.621  -5.861   2.592  0.00  0.00    -0.127 NA
ATOM      6  N   UNL     1      -4.379  -5.571   2.757  0.00  0.00    -0.120 NA
ATOM      7  C   UNL     1      -4.030  -4.648   1.912  0.00  0.00    +0.211 A 
ATOM      8  S   UNL     1      -2.708  -3.638   1.274  0.00  0.00    -0.058 S 
ATOM      9  H   UNL     1      -5.436  -2.443   0.562  0.00  0.00    +0.168 HD
ENDROOT
BRANCH   4  10
ATOM     10  C   UNL     1      -7.522  -5.177   1.142  0.00  0.00    +0.021 A 
ATOM     11  C   UNL     1      -8.020  -4.148   0.341  0.00  0.00    +0.013 A 
ATOM     12  C   UNL     1      -9.321  -4.201  -0.116  0.00  0.00    +0.016 A 
ATOM     13  C   UNL     1     -10.131  -5.273   0.218  0.00  0.00    +0.018 A 
ATOM     14  C   UNL     1      -9.643  -6.297   1.012  0.00  0.00    +0.016 A 
ATOM     15  C   UNL     1      -8.342  -6.257   1.470  0.00  0.00    +0.013 A 
ATOM     16 BR   UNL     1     -11.913  -5.339  -0.413  0.00  0.00    -0.050 Br
ENDBRANCH   4  10
BRANCH   1  19
ATOM     17  C   UNL     1      -1.412  -0.526   0.013  0.00  0.00    +0.064 C 
ATOM     18  C   UNL     1      -1.940  -1.303  -0.935  0.00  0.00    +0.029 C 
ATOM     19  C   UNL     1      -3.362  -1.543  -0.460  0.00  0.00    +0.185 C 
ATOM     20  N   UNL     1      -3.420  -0.792   0.805  0.00  0.00    -0.177 NA
ATOM     21  N   UNL     1      -2.315  -0.275   0.986  0.00  0.00    -0.158 NA
BRANCH  17  23
ATOM     22  C   UNL     1      -0.019   1.526   0.010  0.00  0.00    +0.014 C 
ATOM     23  C   UNL     1       0.002  -0.004   0.002  0.00  0.00    +0.033 C 
ATOM     24  C   UNL     1       0.742  -0.511   1.242  0.00  0.00    +0.014 C 
ENDBRANCH  17  23
ENDBRANCH   1  19
TORSDOF 3
