REMARK  Name = ZINC14584212
REMARK  10 active torsions:
REMARK  status: ('A' for Active; 'I' for Inactive)
REMARK    1  A    between atoms: C_1  and  C_2
REMARK    2  A    between atoms: C_2  and  N_3
REMARK    3  A    between atoms: N_3  and  C_4
REMARK    4  A    between atoms: C_5  and  N_20
REMARK    5  A    between atoms: N_6  and  C_13
REMARK    6  A    between atoms: C_13  and  C_14
REMARK    7  A    between atoms: C_21  and  C_23
REMARK    8  A    between atoms: N_32  and  C_34
REMARK    9  A    between atoms: C_34  and  C_35
REMARK   10  A    between atoms: C_34  and  C_36
REMARK                            x       y       z     vdW  Elec       q    Type
REMARK                         _______ _______ _______ _____ _____    ______ ____
ROOT
ATOM      1  N   UNL     1       1.322   3.663  -0.038  0.00  0.00    -0.259 N 
ATOM      2  C   UNL     1       2.559   4.196  -0.069  0.00  0.00    +0.272 C 
ATOM      3  O   UNL     1       3.528   3.475  -0.223  0.00  0.00    -0.268 OA
ENDROOT
BRANCH   2   4
ATOM      4  C   UNL     1       2.740   5.653   0.082  0.00  0.00    +0.154 A 
ATOM      5  C   UNL     1       4.066   6.262  -0.106  0.00  0.00    +0.020 A 
ATOM      6  C   UNL     1       5.195   5.522  -0.439  0.00  0.00    +0.011 A 
ATOM      7  C   UNL     1       6.403   6.167  -0.604  0.00  0.00    +0.001 A 
ATOM      8  C   UNL     1       6.501   7.543  -0.447  0.00  0.00    +0.001 A 
ATOM      9  C   UNL     1       5.393   8.296  -0.122  0.00  0.00    +0.014 A 
ATOM     10  C   UNL     1       4.165   7.665   0.049  0.00  0.00    +0.050 A 
ATOM     11  C   UNL     1       2.936   8.390   0.395  0.00  0.00    +0.275 A 
ATOM     12  O   UNL     1       2.947   9.598   0.549  0.00  0.00    -0.266 OA
ATOM     13  N   UNL     1       1.793   7.687   0.539  0.00  0.00    -0.226 N 
ATOM     14  N   UNL     1       1.721   6.419   0.390  0.00  0.00    -0.163 NA
BRANCH  13  15
ATOM     15  C   UNL     1       0.570   8.415   0.885  0.00  0.00    +0.105 C 
ATOM     16  C   UNL     1      -0.475   8.207  -0.212  0.00  0.00    +0.032 C 
ATOM     17  C   UNL     1       0.024   7.892   2.215  0.00  0.00    +0.032 C 
ENDBRANCH  13  15
ENDBRANCH   2   4
BRANCH   1  18
ATOM     18  C   UNL     1       1.156   2.263  -0.055  0.00  0.00    +0.140 A 
ATOM     19  C   UNL     1       0.546   1.641  -1.126  0.00  0.00    +0.128 A 
ATOM     20  N   UNL     1       0.398   0.274  -1.114  0.00  0.00    -0.276 N 
ATOM     21  C   UNL     1       0.844  -0.450  -0.071  0.00  0.00    +0.331 A 
ATOM     22  O   UNL     1       0.703  -1.658  -0.079  0.00  0.00    -0.246 OA
ATOM     23  N   UNL     1       1.441   0.138   0.981  0.00  0.00    -0.273 N 
ATOM     24  H   UNL     1       1.763  -0.423   1.743  0.00  0.00    +0.173 HD
ATOM     25  C   UNL     1       1.610   1.474   1.019  0.00  0.00    +0.277 A 
ATOM     26  O   UNL     1       2.148   1.998   1.980  0.00  0.00    -0.266 OA
BRANCH  19  27
ATOM     27  N   UNL     1       0.090   2.380  -2.191  0.00  0.00    -0.343 N 
ATOM     28  H   UNL     1      -0.272   1.933  -2.972  0.00  0.00    +0.144 HD
ATOM     29  H   UNL     1       0.131   3.349  -2.163  0.00  0.00    +0.144 HD
ENDBRANCH  19  27
BRANCH  20  30
ATOM     30  C   UNL     1      -0.248  -0.399  -2.244  0.00  0.00    +0.163 C 
BRANCH  30  31
ATOM     31  C   UNL     1      -1.731  -0.487  -1.994  0.00  0.00    -0.028 A 
ATOM     32  C   UNL     1      -2.258  -1.588  -1.343  0.00  0.00    +0.005 A 
ATOM     33  C   UNL     1      -3.618  -1.667  -1.110  0.00  0.00    +0.000 A 
ATOM     34  C   UNL     1      -4.453  -0.651  -1.536  0.00  0.00    +0.000 A 
ATOM     35  C   UNL     1      -3.927   0.447  -2.191  0.00  0.00    +0.000 A 
ATOM     36  C   UNL     1      -2.566   0.529  -2.420  0.00  0.00    +0.005 A 
ENDBRANCH  30  31
ENDBRANCH  20  30
ENDBRANCH   1  18
BRANCH   1  38
ATOM     37  C   UNL     1      -0.265   4.749   1.473  0.00  0.00    +0.025 C 
ATOM     38  C   UNL     1       0.148   4.538   0.015  0.00  0.00    +0.111 C 
ENDBRANCH   1  38
TORSDOF 7
