REMARK  Name = ZINC39622838
REMARK  7 active torsions:
REMARK  status: ('A' for Active; 'I' for Inactive)
REMARK    1  A    between atoms: C_10  and  C_12
REMARK    2  A    between atoms: C_18  and  C_20
REMARK    3  A    between atoms: C_20  and  O_22
REMARK    4  A    between atoms: O_22  and  C_23
REMARK    5  A    between atoms: C_23  and  C_24
REMARK    6  A    between atoms: N_29  and  C_30
REMARK    7  A    between atoms: C_30  and  C_31
REMARK                            x       y       z     vdW  Elec       q    Type
REMARK                         _______ _______ _______ _____ _____    ______ ____
ROOT
ATOM      1  C   UNL     1       7.316   0.580   0.948  0.00  0.00    +0.311 C 
ATOM      2  O   UNL     1       6.643   0.088   1.823  0.00  0.00    -0.251 OA
ENDROOT
BRANCH   1   8
ATOM      3  C   UNL     1       5.137   1.002  -0.158  0.00  0.00    +0.089 C 
ATOM      4  C   UNL     1       4.466   1.592  -1.400  0.00  0.00    +0.013 C 
ATOM      5  C   UNL     1       4.816   3.078  -1.511  0.00  0.00    +0.001 C 
ATOM      6  C   UNL     1       6.333   3.237  -1.627  0.00  0.00    +0.001 C 
ATOM      7  C   UNL     1       7.004   2.647  -0.386  0.00  0.00    +0.015 C 
ATOM      8  C   UNL     1       6.654   1.161  -0.275  0.00  0.00    +0.110 C 
BRANCH   3  18
ATOM      9  C   UNL     1       2.054  -4.614   1.280  0.00  0.00    +0.000 A 
ATOM     10  C   UNL     1       3.129  -4.534   0.413  0.00  0.00    +0.002 A 
ATOM     11  C   UNL     1       3.741  -3.322   0.179  0.00  0.00    +0.024 A 
ATOM     12  C   UNL     1       3.282  -2.166   0.814  0.00  0.00    +0.039 A 
ATOM     13  C   UNL     1       2.204  -2.257   1.679  0.00  0.00    -0.024 A 
ATOM     14  C   UNL     1       1.593  -3.475   1.911  0.00  0.00    +0.005 A 
ATOM     15  C   UNL     1       1.909  -0.879   2.228  0.00  0.00    +0.056 C 
ATOM     16  C   UNL     1       2.957   0.032   1.569  0.00  0.00    +0.118 C 
ATOM     17  N   UNL     1       3.755  -0.854   0.716  0.00  0.00    -0.271 N 
ATOM     18  C   UNL     1       4.793  -0.461  -0.049  0.00  0.00    +0.224 C 
ATOM     19  O   UNL     1       5.450  -1.285  -0.649  0.00  0.00    -0.275 OA
ENDBRANCH   3  18
ENDBRANCH   1   8
BRANCH   1  20
ATOM     20  O   UNL     1       8.653   0.608   1.066  0.00  0.00    -0.455 OA
BRANCH  20  21
ATOM     21  C   UNL     1       9.212   0.039   2.252  0.00  0.00    +0.328 C 
BRANCH  21  22
ATOM     22  C   UNL     1      10.713   0.160   2.207  0.00  0.00    +0.258 C 
ATOM     23  O   UNL     1      11.251   0.683   1.255  0.00  0.00    -0.272 OA
ATOM     24  N   UNL     1      11.458  -0.311   3.227  0.00  0.00    -0.237 N 
ATOM     25  C   UNL     1      12.801  -0.203   3.187  0.00  0.00    +0.306 C 
ATOM     26  O   UNL     1      13.340   0.321   2.232  0.00  0.00    -0.252 OA
ATOM     27  N   UNL     1      13.545  -0.675   4.207  0.00  0.00    -0.292 N 
ATOM     28  H   UNL     1      11.027  -0.730   3.989  0.00  0.00    +0.159 HD
ATOM     29  H   UNL     1      13.115  -1.093   4.969  0.00  0.00    +0.151 HD
BRANCH  27  30
ATOM     30  C   UNL     1      15.005  -0.556   4.163  0.00  0.00    +0.180 C 
BRANCH  30  31
ATOM     31  C   UNL     1      15.595  -1.157   5.414  0.00  0.00    +0.122 A 
ATOM     32  C   UNL     1      15.971  -2.438   5.569  0.00  0.00    +0.046 A 
ATOM     33  C   UNL     1      16.465  -2.564   6.888  0.00  0.00    +0.041 A 
ATOM     34  C   UNL     1      16.361  -1.351   7.459  0.00  0.00    +0.195 A 
ATOM     35  O   UNL     1      15.838  -0.501   6.560  0.00  0.00    -0.466 OA
ENDBRANCH  30  31
ENDBRANCH  27  30
ENDBRANCH  21  22
ENDBRANCH  20  21
ENDBRANCH   1  20
TORSDOF 7
