REMARK  Name = ZINC28382160
REMARK  7 active torsions:
REMARK  status: ('A' for Active; 'I' for Inactive)
REMARK    1  A    between atoms: C_6  and  C_11
REMARK    2  A    between atoms: C_11  and  C_13
REMARK    3  A    between atoms: C_13  and  S_14
REMARK    4  A    between atoms: S_14  and  C_15
REMARK    5  A    between atoms: C_18  and  C_21
REMARK    6  A    between atoms: N_19  and  N_20
REMARK    7  A    between atoms: C_23  and  C_27
REMARK                            x       y       z     vdW  Elec       q    Type
REMARK                         _______ _______ _______ _____ _____    ______ ____
ROOT
ATOM      1  C   UNL     1       3.676  10.591   0.018  0.00  0.00    +0.209 A 
ATOM      2  N   UNL     1       4.782   9.882   0.010  0.00  0.00    -0.120 NA
ATOM      3  N   UNL     1       5.806  10.659  -0.002  0.00  0.00    -0.125 NA
ATOM      4  C   UNL     1       5.415  11.914   0.008  0.00  0.00    +0.199 A 
ATOM      5  N   UNL     1       4.038  11.908   0.021  0.00  0.00    -0.223 N 
ENDROOT
BRANCH   4   6
ATOM      6  C   UNL     1       6.287  13.102   0.005  0.00  0.00    +0.105 A 
ATOM      7  C   UNL     1       7.622  13.125  -0.288  0.00  0.00    +0.061 A 
ATOM      8  C   UNL     1       8.062  14.454  -0.176  0.00  0.00    +0.093 A 
ATOM      9  N   UNL     1       7.038  15.202   0.178  0.00  0.00    -0.173 NA
ATOM     10  N   UNL     1       5.909  14.381   0.299  0.00  0.00    -0.273 N 
ATOM     11  H   UNL     1       4.865  14.598   0.571  0.00  0.00    +0.189 HD
BRANCH   8  12
ATOM     12  C   UNL     1       9.447  14.933  -0.410  0.00  0.00    +0.002 A 
ATOM     13  C   UNL     1      10.445  14.032  -0.777  0.00  0.00    +0.011 A 
ATOM     14  C   UNL     1      11.731  14.483  -0.998  0.00  0.00    +0.020 A 
ATOM     15  C   UNL     1      12.031  15.826  -0.847  0.00  0.00    +0.041 A 
ATOM     16  C   UNL     1      11.044  16.724  -0.478  0.00  0.00    +0.020 A 
ATOM     17  C   UNL     1       9.755  16.283  -0.259  0.00  0.00    +0.011 A 
ATOM     18 CL   UNL     1      13.652  16.386  -1.121  0.00  0.00    -0.084 Cl
ENDBRANCH   8  12
ENDBRANCH   4   6
BRANCH   5  19
ATOM     19  N   UNL     1       3.208  12.993   0.034  0.00  0.00    -0.295 N 
ATOM     20  H   UNL     1       3.631  14.008   0.035  0.00  0.00    +0.163 HD
ATOM     21  H   UNL     1       2.118  12.851   0.044  0.00  0.00    +0.163 HD
ENDBRANCH   5  19
BRANCH   1  22
ATOM     22  S   UNL     1       2.030   9.960   0.031  0.00  0.00    -0.077 S 
BRANCH  22  23
ATOM     23  C   UNL     1       2.375   8.183   0.019  0.00  0.00    +0.157 C 
BRANCH  23  24
ATOM     24  C   UNL     1       1.075   7.420   0.028  0.00  0.00    +0.173 C 
ATOM     25  O   UNL     1       0.021   8.018   0.041  0.00  0.00    -0.291 OA
BRANCH  24  31
ATOM     26  C   UNL     1      -0.013   1.076   0.008  0.00  0.00    +0.001 A 
ATOM     27  C   UNL     1      -1.235   1.745   0.017  0.00  0.00    +0.001 A 
ATOM     28  C   UNL     1      -1.288   3.105   0.030  0.00  0.00    +0.008 A 
ATOM     29  C   UNL     1      -0.093   3.849   0.023  0.00  0.00    -0.017 A 
ATOM     30  C   UNL     1      -0.113   5.251   0.029  0.00  0.00    +0.020 A 
ATOM     31  C   UNL     1       1.087   5.949   0.021  0.00  0.00    +0.019 A 
ATOM     32  C   UNL     1       2.315   5.259   0.007  0.00  0.00    +0.012 A 
ATOM     33  C   UNL     1       2.350   3.903  -0.000  0.00  0.00    +0.009 A 
ATOM     34  C   UNL     1       1.150   3.167   0.008  0.00  0.00    -0.018 A 
ATOM     35  C   UNL     1       1.163   1.762   0.000  0.00  0.00    +0.008 A 
ENDBRANCH  24  31
ENDBRANCH  23  24
ENDBRANCH  22  23
ENDBRANCH   1  22
TORSDOF 7
