REMARK  Name = ZINC09358998
REMARK  2 active torsions:
REMARK  status: ('A' for Active; 'I' for Inactive)
REMARK    1  A    between atoms: C_1  and  C_2
REMARK    2  A    between atoms: C_7  and  C_22
REMARK                            x       y       z     vdW  Elec       q    Type
REMARK                         _______ _______ _______ _____ _____    ______ ____
ROOT
ATOM      1  C   UNL     1       5.368   3.504  -0.647  0.00  0.00    +0.008 C 
ATOM      2  C   UNL     1       3.962   2.904  -0.700  0.00  0.00    -0.001 C 
ATOM      3  C   UNL     1       3.834   1.799   0.351  0.00  0.00    +0.055 C 
ATOM      4  C   UNL     1       2.432   1.246   0.335  0.00  0.00    +0.020 C 
ATOM      5  C   UNL     1       1.378   2.021  -0.000  0.00  0.00    +0.041 C 
ATOM      6  C   UNL     1      -0.018   1.452   0.010  0.00  0.00    +0.173 C 
ATOM      7  N   UNL     1       0.002  -0.004   0.002  0.00  0.00    -0.243 NA
ATOM      8  C   UNL     1       1.054  -0.690   0.314  0.00  0.00    +0.186 C 
ATOM      9  N   UNL     1       2.230  -0.067   0.669  0.00  0.00    -0.290 N 
ATOM     10  N   UNL     1       0.997  -2.067   0.291  0.00  0.00    -0.266 N 
ATOM     11  C   UNL     1      -0.178  -2.705  -0.064  0.00  0.00    +0.165 A 
ATOM     12  N   UNL     1      -0.425  -3.992  -0.144  0.00  0.00    -0.225 NA
ATOM     13  C   UNL     1      -1.632  -4.478  -0.507  0.00  0.00    +0.080 A 
ATOM     14  C   UNL     1      -2.027  -5.830  -0.631  0.00  0.00    +0.029 A 
ATOM     15  C   UNL     1      -3.302  -6.155  -1.015  0.00  0.00    +0.002 A 
ATOM     16  C   UNL     1      -4.246  -5.178  -1.293  0.00  0.00    +0.001 A 
ATOM     17  C   UNL     1      -3.894  -3.845  -1.181  0.00  0.00    +0.017 A 
ATOM     18  C   UNL     1      -2.620  -3.510  -0.798  0.00  0.00    +0.041 A 
ATOM     19  S   UNL     1      -1.749  -1.986  -0.524  0.00  0.00    -0.052 S 
ATOM     20  C   UNL     1       1.555   3.366  -0.365  0.00  0.00    +0.163 C 
ATOM     21  O   UNL     1       0.586   4.037  -0.661  0.00  0.00    -0.292 OA
ATOM     22  C   UNL     1       2.924   3.989  -0.397  0.00  0.00    +0.083 C 
ATOM     23  H   UNL     1       3.005  -0.620   1.219  0.00  0.00    +0.154 HD
ATOM     24  H   UNL     1       1.886  -2.659   0.555  0.00  0.00    +0.157 HD
ENDROOT
BRANCH   6  25
ATOM     25  C   UNL     1      -0.759   1.942  -1.207  0.00  0.00    -0.013 A 
ATOM     26  C   UNL     1      -0.578   1.313  -2.425  0.00  0.00    +0.044 A 
ATOM     27  C   UNL     1      -1.262   1.759  -3.543  0.00  0.00    +0.126 A 
ATOM     28  C   UNL     1      -2.119   2.842  -3.444  0.00  0.00    +0.076 A 
ATOM     29  C   UNL     1      -2.295   3.473  -2.225  0.00  0.00    +0.126 A 
ATOM     30  C   UNL     1      -1.615   3.022  -1.107  0.00  0.00    +0.044 A 
ATOM     31  F   UNL     1      -3.131   4.530  -2.126  0.00  0.00    -0.205 F 
ATOM     32  F   UNL     1      -1.088   1.142  -4.733  0.00  0.00    -0.205 F 
ENDBRANCH   6  25
TORSDOF 1
