REMARK  Name = ZINC02784324
REMARK  10 active torsions:
REMARK  status: ('A' for Active; 'I' for Inactive)
REMARK    1  A    between atoms: C_1  and  C_2
REMARK    2  A    between atoms: C_3  and  C_28
REMARK    3  A    between atoms: C_4  and  C_21
REMARK    4  A    between atoms: C_10  and  C_15
REMARK    5  A    between atoms: C_24  and  O_27
REMARK    6  A    between atoms: C_28  and  O_30
REMARK    7  A    between atoms: O_30  and  C_31
REMARK    8  A    between atoms: C_31  and  C_32
REMARK    9  A    between atoms: C_32  and  O_33
REMARK   10  A    between atoms: O_33  and  C_34
REMARK                            x       y       z     vdW  Elec       q    Type
REMARK                         _______ _______ _______ _____ _____    ______ ____
ROOT
ATOM      1  C   UNL     1       4.985   2.608  -2.523  0.00  0.00    +0.061 C 
ATOM      2  C   UNL     1       4.263   2.269  -1.245  0.00  0.00    +0.016 C 
ATOM      3  C   UNL     1       3.238   1.400  -1.268  0.00  0.00    +0.065 C 
ATOM      4  C   UNL     1       2.490   1.045  -0.016  0.00  0.00    +0.092 C 
ATOM      5  C   UNL     1       3.282   1.417   1.212  0.00  0.00    +0.024 C 
ATOM      6  C   UNL     1       4.311   2.288   1.131  0.00  0.00    +0.016 C 
ATOM      7  N   UNL     1       4.655   2.847  -0.070  0.00  0.00    -0.321 N 
ATOM      8  C   UNL     1       5.109   2.663   2.355  0.00  0.00    +0.059 C 
ATOM      9  C   UNL     1       4.213   2.596   3.594  0.00  0.00    +0.032 C 
ATOM     10  C   UNL     1       3.649   1.176   3.709  0.00  0.00    +0.088 C 
ATOM     11  C   UNL     1       2.918   0.836   2.439  0.00  0.00    +0.162 C 
ATOM     12  O   UNL     1       1.996   0.045   2.475  0.00  0.00    -0.292 OA
ATOM     13  H   UNL     1       5.252   3.771  -0.084  0.00  0.00    +0.152 HD
ENDROOT
BRANCH   9  14
ATOM     14  C   UNL     1       5.023   2.920   4.823  0.00  0.00    -0.044 A 
ATOM     15  C   UNL     1       6.109   2.135   5.162  0.00  0.00    +0.004 A 
ATOM     16  C   UNL     1       6.855   2.435   6.287  0.00  0.00    +0.000 A 
ATOM     17  C   UNL     1       6.509   3.515   7.077  0.00  0.00    +0.000 A 
ATOM     18  C   UNL     1       5.420   4.297   6.741  0.00  0.00    +0.000 A 
ATOM     19  C   UNL     1       4.677   4.000   5.614  0.00  0.00    +0.004 A 
ENDBRANCH   9  14
BRANCH   4  20
ATOM     20  C   UNL     1       1.176   1.783   0.000  0.00  0.00    -0.035 A 
ATOM     21  C   UNL     1      -0.013   1.076   0.008  0.00  0.00    +0.008 A 
ATOM     22  C   UNL     1      -1.218   1.750   0.017  0.00  0.00    +0.046 A 
ATOM     23  C   UNL     1      -1.237   3.137   0.031  0.00  0.00    +0.117 A 
ATOM     24  C   UNL     1      -0.043   3.844   0.023  0.00  0.00    +0.046 A 
ATOM     25  C   UNL     1       1.160   3.165   0.007  0.00  0.00    +0.008 A 
BRANCH  23  26
ATOM     26  O   UNL     1      -2.422   3.802   0.045  0.00  0.00    -0.507 OA
ATOM     27  H   UNL     1      -2.435   4.902   0.056  0.00  0.00    +0.292 HD
ENDBRANCH  23  26
ENDBRANCH   4  20
BRANCH   3  28
ATOM     28  C   UNL     1       2.857   0.808  -2.494  0.00  0.00    +0.338 C 
ATOM     29  O   UNL     1       3.456   1.087  -3.516  0.00  0.00    -0.245 OA
BRANCH  28  30
ATOM     30  O   UNL     1       1.830  -0.066  -2.532  0.00  0.00    -0.458 OA
BRANCH  30  31
ATOM     31  C   UNL     1       1.500  -0.625  -3.805  0.00  0.00    +0.273 C 
BRANCH  31  32
ATOM     32  C   UNL     1       0.319  -1.586  -3.649  0.00  0.00    +0.270 C 
BRANCH  32  33
ATOM     33  O   UNL     1      -0.840  -0.855  -3.246  0.00  0.00    -0.489 OA
BRANCH  33  34
ATOM     34  C   UNL     1      -1.984  -1.565  -3.062  0.00  0.00    +0.121 A 
ATOM     35  C   UNL     1      -1.992  -2.936  -3.271  0.00  0.00    +0.045 A 
ATOM     36  C   UNL     1      -3.155  -3.656  -3.077  0.00  0.00    +0.004 A 
ATOM     37  C   UNL     1      -4.313  -3.010  -2.687  0.00  0.00    +0.000 A 
ATOM     38  C   UNL     1      -4.309  -1.642  -2.483  0.00  0.00    +0.004 A 
ATOM     39  C   UNL     1      -3.148  -0.918  -2.670  0.00  0.00    +0.045 A 
ENDBRANCH  33  34
ENDBRANCH  32  33
ENDBRANCH  31  32
ENDBRANCH  30  31
ENDBRANCH  28  30
ENDBRANCH   3  28
TORSDOF 9
