REMARK  Name = ZINC57797596
REMARK  3 active torsions:
REMARK  status: ('A' for Active; 'I' for Inactive)
REMARK    1  A    between atoms: C_4  and  C_7
REMARK    2  A    between atoms: C_7  and  C_8
REMARK    3  A    between atoms: C_7  and  C_14
REMARK                            x       y       z     vdW  Elec       q    Type
REMARK                         _______ _______ _______ _____ _____    ______ ____
ROOT
ATOM      1  C   UNL     1       3.711  -0.707  -0.038  0.00  0.00    +0.115 C 
ENDROOT
BRANCH   1   2
ATOM      2  C   UNL     1       3.705  -1.661  -1.204  0.00  0.00    +0.120 A 
ATOM      3  N   UNL     1       3.079  -2.870  -1.220  0.00  0.00    -0.341 N 
ATOM      4  H   UNL     1       2.567  -3.262  -0.495  0.00  0.00    +0.167 HD
ATOM      5  C   UNL     1       3.308  -3.435  -2.460  0.00  0.00    +0.070 A 
ATOM      6  C   UNL     1       2.935  -4.631  -3.058  0.00  0.00    +0.077 A 
ATOM      7  C   UNL     1       3.336  -4.911  -4.350  0.00  0.00    +0.168 A 
ATOM      8  C   UNL     1       4.117  -3.993  -5.059  0.00  0.00    +0.168 A 
ATOM      9  C   UNL     1       4.493  -2.802  -4.475  0.00  0.00    +0.079 A 
ATOM     10  C   UNL     1       4.092  -2.510  -3.168  0.00  0.00    +0.093 A 
ATOM     11  N   UNL     1       4.293  -1.448  -2.345  0.00  0.00    -0.231 NA
ATOM     12  O   UNL     1       4.372  -4.508  -6.299  0.00  0.00    -0.453 OA
ATOM     13  C   UNL     1       4.091  -5.916  -6.196  0.00  0.00    +0.466 C 
ATOM     14  O   UNL     1       3.107  -5.995  -5.149  0.00  0.00    -0.453 OA
ENDBRANCH   1   2
BRANCH   1  18
ATOM     15  C   UNL     1       0.166   1.674  -0.130  0.00  0.00    +0.000 A 
ATOM     16  C   UNL     1       1.407   2.283  -0.090  0.00  0.00    +0.000 A 
ATOM     17  C   UNL     1       2.554   1.512  -0.060  0.00  0.00    +0.004 A 
ATOM     18  C   UNL     1       2.461   0.133  -0.069  0.00  0.00    -0.033 A 
ATOM     19  C   UNL     1       1.220  -0.476  -0.108  0.00  0.00    +0.004 A 
ATOM     20  C   UNL     1       0.073   0.295  -0.140  0.00  0.00    +0.000 A 
ENDBRANCH   1  18
BRANCH   1  21
ATOM     21  C   UNL     1       3.759  -1.488   1.250  0.00  0.00    -0.033 A 
ATOM     22  C   UNL     1       4.502  -2.651   1.326  0.00  0.00    +0.004 A 
ATOM     23  C   UNL     1       4.546  -3.368   2.507  0.00  0.00    +0.000 A 
ATOM     24  C   UNL     1       3.847  -2.921   3.613  0.00  0.00    +0.000 A 
ATOM     25  C   UNL     1       3.105  -1.757   3.538  0.00  0.00    +0.000 A 
ATOM     26  C   UNL     1       3.064  -1.038   2.358  0.00  0.00    +0.004 A 
ENDBRANCH   1  21
TORSDOF 3
