REMARK  Name = ZINC31056211
REMARK  7 active torsions:
REMARK  status: ('A' for Active; 'I' for Inactive)
REMARK    1  A    between atoms: C_1  and  C_2
REMARK    2  A    between atoms: C_5  and  N_9
REMARK    3  A    between atoms: C_6  and  C_8
REMARK    4  A    between atoms: C_10  and  C_12
REMARK    5  A    between atoms: N_17  and  C_19
REMARK    6  A    between atoms: C_19  and  C_20
REMARK    7  A    between atoms: C_22  and  C_25
REMARK                            x       y       z     vdW  Elec       q    Type
REMARK                         _______ _______ _______ _____ _____    ______ ____
ROOT
ATOM      1  C   UNL     1      -4.034   7.594  -2.824  0.00  0.00    +0.059 C 
ATOM      2  C   UNL     1      -2.712   7.674  -3.593  0.00  0.00    +0.009 C 
ATOM      3  C   UNL     1      -1.994   6.324  -3.499  0.00  0.00    -0.018 C 
ATOM      4  C   UNL     1      -1.770   5.972  -2.027  0.00  0.00    -0.078 C 
ATOM      5  N   UNL     1      -3.064   5.908  -1.335  0.00  0.00    +0.386 N 
ATOM      6  C   UNL     1      -3.750   7.205  -1.371  0.00  0.00    -0.065 C 
ATOM      7  H   UNL     1      -3.693   5.181  -1.869  0.00  0.00    -0.081 HD
ENDROOT
BRANCH   1   9
ATOM      8  N   UNL     1      -5.066   9.483  -4.043  0.00  0.00    -0.285 N 
ATOM      9  C   UNL     1      -4.719   8.936  -2.861  0.00  0.00    +0.219 C 
ATOM     10  O   UNL     1      -4.957   9.524  -1.827  0.00  0.00    -0.275 OA
ATOM     11  H   UNL     1      -4.770   8.994  -4.983  0.00  0.00    +0.155 HD
BRANCH   8  16
ATOM     12  C   UNL     1      -8.058  14.301  -4.169  0.00  0.00    +0.044 C 
ATOM     13  C   UNL     1      -7.263  13.021  -4.136  0.00  0.00    -0.050 A 
ATOM     14  C   UNL     1      -7.330  12.197  -3.027  0.00  0.00    +0.005 A 
ATOM     15  C   UNL     1      -6.607  11.020  -2.996  0.00  0.00    +0.024 A 
ATOM     16  C   UNL     1      -5.804  10.671  -4.074  0.00  0.00    +0.036 A 
ATOM     17  C   UNL     1      -5.739  11.501  -5.185  0.00  0.00    -0.029 A 
ATOM     18  C   UNL     1      -6.469  12.674  -5.213  0.00  0.00    +0.008 A 
ATOM     19  C   UNL     1      -4.874  11.123  -6.360  0.00  0.00    +0.045 C 
ENDBRANCH   8  16
ENDBRANCH   1   9
BRANCH   5  20
ATOM     20  C   UNL     1      -2.899   5.437   0.047  0.00  0.00    +0.022 C 
BRANCH  20  21
ATOM     21  C   UNL     1      -2.420   4.008   0.037  0.00  0.00    +0.211 A 
ATOM     22  N   UNL     1      -1.174   3.607   0.033  0.00  0.00    -0.192 NA
ATOM     23  C   UNL     1      -1.228   2.254   0.022  0.00  0.00    +0.209 A 
ATOM     24  N   UNL     1      -2.494   1.919   0.029  0.00  0.00    -0.056 NA
ATOM     25  O   UNL     1      -3.188   2.914   0.037  0.00  0.00    -0.340 OA
BRANCH  23  26
ATOM     26  C   UNL     1      -0.075   1.330   0.010  0.00  0.00    +0.060 A 
ATOM     27  C   UNL     1      -0.068  -0.040   0.004  0.00  0.00    +0.019 A 
ATOM     28  C   UNL     1       1.143  -0.695  -0.012  0.00  0.00    +0.008 A 
ATOM     29  C   UNL     1       2.290   0.033  -0.021  0.00  0.00    +0.046 A 
ATOM     30  S   UNL     1       1.670   1.707  -0.007  0.00  0.00    -0.093 S 
ENDBRANCH  23  26
ENDBRANCH  20  21
ENDBRANCH   5  20
TORSDOF 5
