REMARK  Name = ZINC47741016
REMARK  11 active torsions:
REMARK  status: ('A' for Active; 'I' for Inactive)
REMARK    1  A    between atoms: C_1  and  C_2
REMARK    2  A    between atoms: C_4  and  S_22
REMARK    3  A    between atoms: C_6  and  N_9
REMARK    4  A    between atoms: C_7  and  C_8
REMARK    5  A    between atoms: C_10  and  C_12
REMARK    6  A    between atoms: C_14  and  C_21
REMARK    7  A    between atoms: N_15  and  C_18
REMARK    8  A    between atoms: C_16  and  C_17
REMARK    9  A    between atoms: C_18  and  C_19
REMARK   10  A    between atoms: C_18  and  C_20
REMARK   11  A    between atoms: S_22  and  N_25
REMARK                            x       y       z     vdW  Elec       q    Type
REMARK                         _______ _______ _______ _____ _____    ______ ____
ROOT
ATOM      1  C   UNL     1       1.225   1.177  -0.247  0.00  0.00    +0.044 C 
ATOM      2  C   UNL     1       0.601  -0.192  -0.148  0.00  0.00    -0.044 A 
ATOM      3  C   UNL     1       0.006  -0.762  -1.259  0.00  0.00    +0.032 A 
ATOM      4  C   UNL     1      -0.568  -2.017  -1.172  0.00  0.00    +0.107 A 
ATOM      5  C   UNL     1      -0.548  -2.705   0.026  0.00  0.00    +0.052 A 
ATOM      6  C   UNL     1       0.048  -2.135   1.143  0.00  0.00    +0.039 A 
ATOM      7  C   UNL     1       0.628  -0.876   1.051  0.00  0.00    -0.026 A 
ATOM      8  C   UNL     1       1.281  -0.257   2.259  0.00  0.00    +0.046 C 
ENDROOT
BRANCH   6   9
ATOM      9  N   UNL     1       0.069  -2.829   2.357  0.00  0.00    -0.281 N 
ATOM     10  C   UNL     1      -0.011  -4.175   2.366  0.00  0.00    +0.250 C 
ATOM     11  O   UNL     1       0.005  -4.792   1.317  0.00  0.00    -0.270 OA
ATOM     12  H   UNL     1       0.140  -2.342   3.193  0.00  0.00    +0.155 HD
BRANCH  10  13
ATOM     13  C   UNL     1      -0.117  -4.898   3.644  0.00  0.00    +0.058 A 
ATOM     14  C   UNL     1      -0.155  -4.312   4.988  0.00  0.00    +0.035 A 
ATOM     15  C   UNL     1      -0.255  -5.341   5.847  0.00  0.00    +0.017 A 
ATOM     16  N   UNL     1      -0.281  -6.507   5.138  0.00  0.00    -0.345 N 
ATOM     17  C   UNL     1      -0.204  -6.252   3.818  0.00  0.00    +0.028 A 
ATOM     18  C   UNL     1      -0.210  -7.283   2.719  0.00  0.00    +0.064 C 
ATOM     19  C   UNL     1      -0.328  -5.227   7.348  0.00  0.00    +0.063 C 
BRANCH  16  20
ATOM     20  C   UNL     1      -0.383  -7.844   5.728  0.00  0.00    +0.081 C 
ATOM     21  C   UNL     1       0.879  -8.140   6.541  0.00  0.00    +0.030 C 
ATOM     22  C   UNL     1      -1.607  -7.905   6.644  0.00  0.00    +0.030 C 
ENDBRANCH  16  20
ENDBRANCH  10  13
ENDBRANCH   6   9
BRANCH   4  23
ATOM     23  S   UNL     1      -1.324  -2.739  -2.590  0.00  0.00    +0.056 S 
ATOM     24  O   UNL     1      -2.267  -3.687  -2.109  0.00  0.00    -0.153 OA
ATOM     25  O   UNL     1      -1.691  -1.665  -3.445  0.00  0.00    -0.153 OA
BRANCH  23  26
ATOM     26  N   UNL     1      -0.153  -3.599  -3.385  0.00  0.00    -0.204 NA
ATOM     27  H   UNL     1      -0.394  -4.386  -3.898  0.00  0.00    +0.144 HD
ATOM     28  H   UNL     1       0.773  -3.314  -3.339  0.00  0.00    +0.144 HD
ENDBRANCH  23  26
ENDBRANCH   4  23
TORSDOF 5
