REMARK  Name = ZINC03289549
REMARK  14 active torsions:
REMARK  status: ('A' for Active; 'I' for Inactive)
REMARK    1  A    between atoms: C_1  and  C_2
REMARK    2  A    between atoms: C_2  and  C_3
REMARK    3  A    between atoms: C_6  and  N_9
REMARK    4  A    between atoms: C_10  and  C_12
REMARK    5  A    between atoms: C_12  and  N_13
REMARK    6  A    between atoms: N_13  and  C_14
REMARK    7  A    between atoms: N_13  and  C_19
REMARK    8  A    between atoms: C_14  and  C_15
REMARK    9  A    between atoms: C_15  and  C_17
REMARK   10  A    between atoms: C_15  and  O_18
REMARK   11  A    between atoms: C_19  and  C_20
REMARK   12  A    between atoms: N_22  and  C_23
REMARK   13  A    between atoms: C_26  and  C_29
REMARK   14  A    between atoms: C_29  and  C_30
REMARK                            x       y       z     vdW  Elec       q    Type
REMARK                         _______ _______ _______ _____ _____    ______ ____
ROOT
ATOM      1  N   UNL     1       6.353  -2.599  -5.792  0.00  0.00    +0.393 N 
ATOM      2  H   UNL     1       6.881  -1.878  -5.323  0.00  0.00    -0.080 HD
ENDROOT
BRANCH   1   3
ATOM      3  C   UNL     1       5.126  -2.018  -6.355  0.00  0.00    +0.020 C 
BRANCH   3   5
ATOM      4  N   UNL     1       3.176  -0.729  -5.547  0.00  0.00    -0.287 N 
ATOM      5  C   UNL     1       4.345  -1.336  -5.262  0.00  0.00    +0.201 C 
ATOM      6  O   UNL     1       4.768  -1.334  -4.125  0.00  0.00    -0.278 OA
ATOM      7  H   UNL     1       2.803  -0.790  -6.440  0.00  0.00    +0.155 HD
BRANCH   4  11
ATOM      8  C   UNL     1       1.166   1.412  -2.592  0.00  0.00    -0.048 A 
ATOM      9  C   UNL     1       2.541   1.279  -2.533  0.00  0.00    +0.005 A 
ATOM     10  C   UNL     1       3.210   0.570  -3.511  0.00  0.00    +0.023 A 
ATOM     11  C   UNL     1       2.501  -0.010  -4.554  0.00  0.00    +0.033 A 
ATOM     12  C   UNL     1       1.120   0.125  -4.611  0.00  0.00    +0.023 A 
ATOM     13  C   UNL     1       0.456   0.831  -3.627  0.00  0.00    +0.005 A 
BRANCH   8  15
ATOM     14  C   UNL     1       0.048   1.243  -0.385  0.00  0.00    +0.009 C 
ATOM     15  C   UNL     1       0.438   2.187  -1.524  0.00  0.00    +0.032 C 
ENDBRANCH   8  15
ENDBRANCH   4  11
ENDBRANCH   3   5
ENDBRANCH   1   3
BRANCH   1  16
ATOM     16  C   UNL     1       5.999  -3.652  -4.831  0.00  0.00    -0.046 C 
BRANCH  16  17
ATOM     17  C   UNL     1       5.252  -4.773  -5.555  0.00  0.00    +0.095 C 
ATOM     18  C   UNL     1       5.093  -5.970  -4.615  0.00  0.00    +0.035 C 
BRANCH  17  19
ATOM     19  O   UNL     1       3.961  -4.306  -5.954  0.00  0.00    -0.394 OA
ATOM     20  H   UNL     1       3.430  -3.952  -5.227  0.00  0.00    +0.210 HD
ENDBRANCH  17  19
ENDBRANCH  16  17
ENDBRANCH   1  16
BRANCH   1  21
ATOM     21  C   UNL     1       7.163  -3.174  -6.873  0.00  0.00    +0.020 C 
BRANCH  21  22
ATOM     22  C   UNL     1       8.497  -3.611  -6.324  0.00  0.00    +0.201 C 
ATOM     23  O   UNL     1       8.730  -3.499  -5.139  0.00  0.00    -0.278 OA
ATOM     24  N   UNL     1       9.430  -4.127  -7.149  0.00  0.00    -0.287 N 
ATOM     25  H   UNL     1       9.272  -4.148  -8.105  0.00  0.00    +0.155 HD
BRANCH  24  26
ATOM     26  C   UNL     1      10.625  -4.631  -6.625  0.00  0.00    +0.033 A 
ATOM     27  C   UNL     1      11.809  -4.496  -7.338  0.00  0.00    +0.023 A 
ATOM     28  C   UNL     1      12.987  -4.995  -6.818  0.00  0.00    +0.005 A 
ATOM     29  C   UNL     1      12.989  -5.629  -5.589  0.00  0.00    -0.048 A 
ATOM     30  C   UNL     1      11.811  -5.766  -4.877  0.00  0.00    +0.005 A 
ATOM     31  C   UNL     1      10.631  -5.263  -5.388  0.00  0.00    +0.023 A 
BRANCH  29  32
ATOM     32  C   UNL     1      14.276  -6.173  -5.025  0.00  0.00    +0.032 C 
ATOM     33  C   UNL     1      14.960  -5.094  -4.182  0.00  0.00    +0.009 C 
ENDBRANCH  29  32
ENDBRANCH  24  26
ENDBRANCH  21  22
ENDBRANCH   1  21
TORSDOF 11
