REMARK  Name = ZINC20830381
REMARK  9 active torsions:
REMARK  status: ('A' for Active; 'I' for Inactive)
REMARK    1  A    between atoms: C_1  and  C_2
REMARK    2  A    between atoms: C_2  and  C_3
REMARK    3  A    between atoms: C_2  and  S_4
REMARK    4  A    between atoms: S_4  and  C_5
REMARK    5  A    between atoms: C_11  and  C_13
REMARK    6  A    between atoms: C_13  and  S_14
REMARK    7  A    between atoms: S_14  and  C_15
REMARK    8  A    between atoms: C_18  and  C_21
REMARK    9  A    between atoms: N_19  and  N_20
REMARK                            x       y       z     vdW  Elec       q    Type
REMARK                         _______ _______ _______ _____ _____    ______ ____
ROOT
ATOM      1  S   UNL     1       0.006   1.799  -0.409  0.00  0.00    -0.075 S 
ENDROOT
BRANCH   1   2
ATOM      2  C   UNL     1       1.720   2.132  -0.168  0.00  0.00    +0.209 A 
ATOM      3  N   UNL     1       2.692   1.248  -0.157  0.00  0.00    -0.121 NA
ATOM      4  N   UNL     1       3.819   1.834   0.041  0.00  0.00    -0.127 NA
ATOM      5  C   UNL     1       3.634   3.127   0.179  0.00  0.00    +0.183 A 
ATOM      6  N   UNL     1       2.284   3.357   0.049  0.00  0.00    -0.224 N 
BRANCH   5   7
ATOM      7  C   UNL     1       4.679   4.142   0.427  0.00  0.00    +0.035 A 
ATOM      8  C   UNL     1       4.502   5.101   1.425  0.00  0.00    +0.013 A 
ATOM      9  C   UNL     1       5.481   6.046   1.651  0.00  0.00    +0.001 A 
ATOM     10  C   UNL     1       6.637   6.045   0.891  0.00  0.00    +0.001 A 
ATOM     11  C   UNL     1       6.820   5.098  -0.100  0.00  0.00    +0.016 A 
ATOM     12  C   UNL     1       5.851   4.143  -0.333  0.00  0.00    +0.029 A 
ATOM     13 BR   UNL     1       6.106   2.843  -1.683  0.00  0.00    -0.050 Br
ENDBRANCH   5   7
BRANCH   6  14
ATOM     14  N   UNL     1       1.641   4.561   0.123  0.00  0.00    -0.295 N 
ATOM     15  H   UNL     1       2.216   5.481   0.303  0.00  0.00    +0.163 HD
ATOM     16  H   UNL     1       0.549   4.609   0.001  0.00  0.00    +0.163 HD
ENDBRANCH   6  14
ENDBRANCH   1   2
BRANCH   1  17
ATOM     17  C   UNL     1       0.063   0.003  -0.624  0.00  0.00    +0.173 C 
BRANCH  17  24
ATOM     18  C   UNL     1      -5.129  -3.585  -1.674  0.00  0.00    +0.160 A 
ATOM     19  N   UNL     1      -5.069  -2.272  -1.506  0.00  0.00    -0.133 NA
ATOM     20  N   UNL     1      -3.976  -1.676  -1.304  0.00  0.00    -0.125 NA
ATOM     21  C   UNL     1      -2.823  -2.324  -1.248  0.00  0.00    +0.189 A 
ATOM     22  S   UNL     1      -3.393  -3.998  -1.528  0.00  0.00    -0.024 S 
ATOM     23  N   UNL     1      -1.534  -1.840  -1.038  0.00  0.00    -0.263 N 
ATOM     24  C   UNL     1      -1.331  -0.521  -0.852  0.00  0.00    +0.229 C 
ATOM     25  O   UNL     1      -2.272   0.246  -0.867  0.00  0.00    -0.275 OA
ATOM     26  H   UNL     1      -0.682  -2.535  -1.023  0.00  0.00    +0.157 HD
BRANCH  18  27
ATOM     27  S   UNL     1      -6.520  -4.627  -1.967  0.00  0.00    -0.094 S 
BRANCH  27  29
ATOM     28  C   UNL     1      -9.200  -4.247  -2.363  0.00  0.00    +0.019 C 
ATOM     29  C   UNL     1      -7.928  -3.482  -1.991  0.00  0.00    +0.047 C 
ATOM     30  C   UNL     1      -8.097  -2.853  -0.607  0.00  0.00    +0.019 C 
ENDBRANCH  27  29
ENDBRANCH  18  27
ENDBRANCH  17  24
ENDBRANCH   1  17
TORSDOF 7
