REMARK  Name = ZINC02305613
REMARK  7 active torsions:
REMARK  status: ('A' for Active; 'I' for Inactive)
REMARK    1  A    between atoms: C_1  and  C_2
REMARK    2  A    between atoms: C_2  and  C_3
REMARK    3  A    between atoms: C_2  and  C_4
REMARK    4  A    between atoms: C_4  and  N_5
REMARK    5  A    between atoms: C_6  and  C_8
REMARK    6  A    between atoms: N_19  and  C_22
REMARK    7  A    between atoms: C_20  and  N_21
REMARK                            x       y       z     vdW  Elec       q    Type
REMARK                         _______ _______ _______ _____ _____    ______ ____
ROOT
ATOM      1  C   UNL     1       0.720   9.462   0.752  0.00  0.00    +0.104 A 
ATOM      2  C   UNL     1       1.328   9.534  -0.586  0.00  0.00    +0.123 A 
ATOM      3  C   UNL     1       1.532   8.142  -0.997  0.00  0.00    +0.166 A 
ATOM      4  N   UNL     1       2.061   7.886  -2.174  0.00  0.00    -0.225 NA
ATOM      5  C   UNL     1       2.420   8.895  -2.978  0.00  0.00    +0.092 A 
ATOM      6  C   UNL     1       2.993   8.629  -4.236  0.00  0.00    +0.030 A 
ATOM      7  C   UNL     1       3.353   9.660  -5.047  0.00  0.00    +0.002 A 
ATOM      8  C   UNL     1       3.165  10.983  -4.651  0.00  0.00    +0.002 A 
ATOM      9  C   UNL     1       2.614  11.280  -3.443  0.00  0.00    +0.030 A 
ATOM     10  C   UNL     1       2.228  10.240  -2.576  0.00  0.00    +0.090 A 
ATOM     11  N   UNL     1       1.685  10.520  -1.386  0.00  0.00    -0.241 NA
ATOM     12  N   UNL     1       1.064   7.346   0.031  0.00  0.00    -0.280 N 
ATOM     13  C   UNL     1       0.592   8.111   1.056  0.00  0.00    +0.117 A 
ENDROOT
BRANCH  12  14
ATOM     14  C   UNL     1       1.077   5.946   0.023  0.00  0.00    +0.050 A 
ATOM     15  C   UNL     1       2.301   5.265   0.008  0.00  0.00    +0.027 A 
ATOM     16  C   UNL     1       2.344   3.907   0.001  0.00  0.00    +0.010 A 
ATOM     17  C   UNL     1       1.148   3.167   0.008  0.00  0.00    -0.018 A 
ATOM     18  C   UNL     1       1.163   1.762   0.000  0.00  0.00    +0.008 A 
ATOM     19  C   UNL     1      -0.013   1.076   0.008  0.00  0.00    +0.001 A 
ATOM     20  C   UNL     1      -1.235   1.746   0.017  0.00  0.00    +0.001 A 
ATOM     21  C   UNL     1      -1.288   3.105   0.030  0.00  0.00    +0.008 A 
ATOM     22  C   UNL     1      -0.095   3.848   0.023  0.00  0.00    -0.016 A 
ATOM     23  C   UNL     1      -0.112   5.253   0.030  0.00  0.00    +0.034 A 
ENDBRANCH  12  14
BRANCH   1  25
ATOM     24  N   UNL     1      -0.916  11.100   1.502  0.00  0.00    -0.311 N 
ATOM     25  C   UNL     1       0.328  10.589   1.596  0.00  0.00    +0.250 C 
ATOM     26  O   UNL     1       1.124  11.065   2.384  0.00  0.00    -0.270 OA
ATOM     27  H   UNL     1      -1.550  10.720   0.874  0.00  0.00    +0.149 HD
BRANCH  24  28
ATOM     28  C   UNL     1      -1.309  12.229   2.348  0.00  0.00    +0.107 C 
BRANCH  28  30
ATOM     29  C   UNL     1      -3.685  11.463   2.449  0.00  0.00    +0.009 C 
ATOM     30  C   UNL     1      -2.759  12.612   2.046  0.00  0.00    -0.000 C 
ATOM     31  C   UNL     1      -3.131  13.868   2.837  0.00  0.00    +0.009 C 
ENDBRANCH  28  30
ENDBRANCH  24  28
ENDBRANCH   1  25
BRANCH  13  32
ATOM     32  N   UNL     1       0.066   7.618   2.222  0.00  0.00    -0.343 N 
ATOM     33  H   UNL     1       0.010   6.660   2.361  0.00  0.00    +0.144 HD
ATOM     34  H   UNL     1      -0.250   8.227   2.907  0.00  0.00    +0.144 HD
ENDBRANCH  13  32
TORSDOF 5
