REMARK  Name = ZINC66746052
REMARK  4 active torsions:
REMARK  status: ('A' for Active; 'I' for Inactive)
REMARK    1  A    between atoms: C_4  and  O_24
REMARK    2  A    between atoms: C_5  and  C_7
REMARK    3  A    between atoms: N_8  and  C_9
REMARK    4  A    between atoms: C_12  and  C_15
REMARK                            x       y       z     vdW  Elec       q    Type
REMARK                         _______ _______ _______ _____ _____    ______ ____
ROOT
ATOM      1  C   UNL     1       2.421  -4.151  -0.045  0.00  0.00    +0.064 A 
ATOM      2  C   UNL     1       1.697  -4.870   0.911  0.00  0.00    +0.028 A 
ATOM      3  C   UNL     1       1.724  -6.240   0.903  0.00  0.00    +0.013 A 
ATOM      4  C   UNL     1       2.475  -6.919  -0.061  0.00  0.00    +0.019 A 
ATOM      5  C   UNL     1       3.198  -6.201  -1.017  0.00  0.00    +0.013 A 
ATOM      6  C   UNL     1       3.167  -4.830  -1.013  0.00  0.00    +0.028 A 
ENDROOT
BRANCH   4   7
ATOM      7  C   UNL     1       2.504  -8.396  -0.069  0.00  0.00    +0.164 A 
ATOM      8  N   UNL     1       3.386  -9.163  -0.679  0.00  0.00    -0.129 NA
ATOM      9  N   UNL     1       3.105 -10.403  -0.471  0.00  0.00    -0.134 NA
ATOM     10  C   UNL     1       2.044 -10.496   0.274  0.00  0.00    +0.134 A 
ATOM     11  N   UNL     1       1.629  -9.229   0.558  0.00  0.00    -0.311 N 
ATOM     12  C   UNL     1       0.464  -8.895   1.376  0.00  0.00    +0.125 C 
ATOM     13  C   UNL     1      -0.425 -10.138   1.496  0.00  0.00    +0.022 C 
ATOM     14  C   UNL     1       0.423 -11.337   1.929  0.00  0.00    +0.009 C 
ATOM     15  C   UNL     1       1.352 -11.741   0.773  0.00  0.00    +0.076 C 
ENDBRANCH   4   7
BRANCH   1  17
ATOM     16  C   UNL     1       1.263  -2.155   0.119  0.00  0.00    +0.123 C 
ATOM     17  N   UNL     1       2.395  -2.784  -0.037  0.00  0.00    -0.255 NA
BRANCH  16  22
ATOM     18  C   UNL     1       0.005   1.372   0.300  0.00  0.00    +0.001 A 
ATOM     19  C   UNL     1       1.181   2.088   0.143  0.00  0.00    +0.004 A 
ATOM     20  C   UNL     1       2.384   1.430  -0.023  0.00  0.00    +0.046 A 
ATOM     21  C   UNL     1       2.423   0.045  -0.032  0.00  0.00    +0.125 A 
ATOM     22  C   UNL     1       1.235  -0.685   0.128  0.00  0.00    +0.034 A 
ATOM     23  C   UNL     1       0.024  -0.005   0.294  0.00  0.00    +0.013 A 
BRANCH  21  24
ATOM     24  O   UNL     1       3.604  -0.603  -0.195  0.00  0.00    -0.506 OA
ATOM     25  H   UNL     1       4.066  -0.793   0.633  0.00  0.00    +0.292 HD
ENDBRANCH  21  24
ENDBRANCH  16  22
ENDBRANCH   1  17
TORSDOF 4
