REMARK  Name = ZINC09954498
REMARK  8 active torsions:
REMARK  status: ('A' for Active; 'I' for Inactive)
REMARK    1  A    between atoms: C_1  and  O_2
REMARK    2  A    between atoms: O_2  and  C_3
REMARK    3  A    between atoms: C_8  and  O_9
REMARK    4  A    between atoms: O_9  and  C_10
REMARK    5  A    between atoms: C_11  and  C_26
REMARK    6  A    between atoms: C_15  and  C_16
REMARK    7  A    between atoms: C_15  and  N_52
REMARK    8  A    between atoms: C_19  and  C_21
REMARK                            x       y       z     vdW  Elec       q    Type
REMARK                         _______ _______ _______ _____ _____    ______ ____
ROOT
ATOM      1  C   UNL     1      -0.148   1.182   2.380  0.00  0.00    +0.162 A 
ATOM      2  C   UNL     1       0.988   0.394   2.424  0.00  0.00    +0.053 A 
ATOM      3  C   UNL     1       1.538   0.022   3.642  0.00  0.00    -0.043 A 
ATOM      4  C   UNL     1       0.947   0.432   4.818  0.00  0.00    -0.049 A 
ATOM      5  C   UNL     1      -0.196   1.218   4.779  0.00  0.00    +0.052 A 
ATOM      6  C   UNL     1      -0.747   1.594   3.567  0.00  0.00    +0.162 A 
ATOM      7  C   UNL     1       1.509   0.054   6.164  0.00  0.00    +0.001 C 
ATOM      8  C   UNL     1       3.447  -0.795   5.010  0.00  0.00    -0.072 C 
ATOM      9  C   UNL     1       2.776  -0.837   3.637  0.00  0.00    +0.017 C 
ATOM     10  N   UNL     1       2.417  -1.096   6.024  0.00  0.00    +0.393 N 
ATOM     11  H   UNL     1       1.877  -1.915   5.721  0.00  0.00    -0.080 HD
ENDROOT
BRANCH   7  12
ATOM     12  C   UNL     1       0.379  -0.327   7.085  0.00  0.00    -0.019 A 
ATOM     13  C   UNL     1      -0.220   0.412   8.052  0.00  0.00    +0.010 A 
ATOM     14  C   UNL     1      -1.250  -0.150   8.782  0.00  0.00    +0.008 A 
ATOM     15  C   UNL     1      -1.631  -1.422   8.511  0.00  0.00    +0.045 A 
ATOM     16  S   UNL     1      -0.523  -1.864   7.183  0.00  0.00    -0.103 S 
ENDBRANCH   7  12
BRANCH   1  18
ATOM     17  C   UNL     1      -0.013   1.086   0.008  0.00  0.00    +0.277 C 
ATOM     18  O   UNL     1      -0.682   1.547   1.184  0.00  0.00    -0.491 OA
ENDBRANCH   1  18
BRANCH   6  19
ATOM     19  O   UNL     1      -1.868   2.364   3.536  0.00  0.00    -0.491 OA
ATOM     20  C   UNL     1      -2.426   2.749   4.793  0.00  0.00    +0.277 C 
ENDBRANCH   6  19
BRANCH  10  21
ATOM     21  C   UNL     1       3.058  -1.396   7.325  0.00  0.00    +0.020 C 
BRANCH  21  22
ATOM     22  C   UNL     1       3.800  -2.703   7.215  0.00  0.00    +0.203 C 
ATOM     23  O   UNL     1       3.807  -3.310   6.165  0.00  0.00    -0.277 OA
ATOM     24  N   UNL     1       4.458  -3.197   8.282  0.00  0.00    -0.251 N 
ATOM     25  C   UNL     1       5.122  -4.365   8.184  0.00  0.00    +0.285 C 
ATOM     26  O   UNL     1       5.128  -4.974   7.130  0.00  0.00    -0.266 OA
ATOM     27  H   UNL     1       4.453  -2.711   9.122  0.00  0.00    +0.158 HD
BRANCH  25  28
ATOM     28  C   UNL     1       5.837  -4.902   9.344  0.00  0.00    +0.189 A 
ATOM     29  C   UNL     1       6.542  -6.072   9.383  0.00  0.00    +0.054 A 
ATOM     30  C   UNL     1       7.060  -6.188  10.682  0.00  0.00    +0.042 A 
ATOM     31  C   UNL     1       6.646  -5.103  11.374  0.00  0.00    +0.196 A 
ATOM     32  O   UNL     1       5.910  -4.331  10.565  0.00  0.00    -0.458 OA
ENDBRANCH  25  28
ENDBRANCH  21  22
ENDBRANCH  10  21
TORSDOF 6
