REMARK  Name = ZINC12387156
REMARK  11 active torsions:
REMARK  status: ('A' for Active; 'I' for Inactive)
REMARK    1  A    between atoms: C_10  and  C_11
REMARK    2  A    between atoms: C_10  and  N_62
REMARK    3  A    between atoms: C_11  and  C_13
REMARK    4  A    between atoms: C_11  and  O_29
REMARK    5  A    between atoms: C_13  and  O_14
REMARK    6  A    between atoms: O_14  and  C_15
REMARK    7  A    between atoms: C_20  and  C_21
REMARK    8  A    between atoms: C_21  and  N_64
REMARK    9  A    between atoms: C_22  and  C_23
REMARK   10  A    between atoms: C_22  and  C_26
REMARK   11  A    between atoms: C_22  and  N_64
REMARK                            x       y       z     vdW  Elec       q    Type
REMARK                         _______ _______ _______ _____ _____    ______ ____
ROOT
ATOM      1  O   UNL     1       0.607   2.878  -3.207  0.00  0.00    -0.489 OA
ENDROOT
BRANCH   1   2
ATOM      2  C   UNL     1      -0.508   3.601  -2.924  0.00  0.00    +0.122 A 
ATOM      3  C   UNL     1      -0.504   4.978  -3.088  0.00  0.00    +0.046 A 
ATOM      4  C   UNL     1      -1.639   5.711  -2.800  0.00  0.00    +0.004 A 
ATOM      5  C   UNL     1      -2.779   5.072  -2.347  0.00  0.00    +0.000 A 
ATOM      6  C   UNL     1      -2.788   3.699  -2.188  0.00  0.00    +0.005 A 
ATOM      7  C   UNL     1      -1.653   2.962  -2.470  0.00  0.00    -0.023 A 
BRANCH   7   8
ATOM      8  C   UNL     1      -1.661   1.466  -2.291  0.00  0.00    -0.043 C 
BRANCH   8   9
ATOM      9  N   UNL     1      -1.006   1.129  -1.013  0.00  0.00    +0.384 N 
ATOM     10  H   UNL     1      -1.514   1.578  -0.242  0.00  0.00    -0.085 HD
ATOM     11  H   UNL     1      -0.037   1.469  -1.029  0.00  0.00    -0.085 HD
BRANCH   9  12
ATOM     12  C   UNL     1      -1.005  -0.332  -0.808  0.00  0.00    -0.065 C 
BRANCH  12  13
ATOM     13  C   UNL     1       0.145  -0.707   0.129  0.00  0.00    -0.025 C 
ATOM     14  C   UNL     1       0.905   0.435   0.807  0.00  0.00    +0.002 C 
ATOM     15  C   UNL     1       1.566  -0.359  -0.322  0.00  0.00    +0.002 C 
ENDBRANCH  12  13
BRANCH  12  16
ATOM     16  C   UNL     1      -2.333  -0.761  -0.182  0.00  0.00    -0.025 C 
ATOM     17  C   UNL     1      -3.429   0.299  -0.054  0.00  0.00    +0.002 C 
ATOM     18  C   UNL     1      -2.685  -0.186   1.192  0.00  0.00    +0.002 C 
ENDBRANCH  12  16
ENDBRANCH   9  12
ENDBRANCH   8   9
ENDBRANCH   7   8
ENDBRANCH   1   2
BRANCH   1  19
ATOM     19  C   UNL     1       1.749   3.602  -3.670  0.00  0.00    +0.258 C 
BRANCH  19  20
ATOM     20  C   UNL     1       2.898   2.627  -3.935  0.00  0.00    +0.135 C 
BRANCH  20  21
ATOM     21  O   UNL     1       2.543   1.753  -5.009  0.00  0.00    -0.390 OA
ATOM     22  H   UNL     1       2.357   2.209  -5.842  0.00  0.00    +0.210 HD
ENDBRANCH  20  21
BRANCH  20  23
ATOM     23  C   UNL     1       4.156   3.412  -4.311  0.00  0.00    -0.043 C 
BRANCH  23  33
ATOM     24  C   UNL     1       9.698   0.526  -5.820  0.00  0.00    +0.000 A 
ATOM     25  C   UNL     1       9.572   1.673  -6.581  0.00  0.00    +0.000 A 
ATOM     26  C   UNL     1       8.486   2.505  -6.395  0.00  0.00    +0.002 A 
ATOM     27  C   UNL     1       7.520   2.197  -5.449  0.00  0.00    -0.061 A 
ATOM     28  C   UNL     1       7.645   1.052  -4.692  0.00  0.00    -0.048 A 
ATOM     29  C   UNL     1       8.736   0.217  -4.879  0.00  0.00    +0.004 A 
ATOM     30  C   UNL     1       6.618   0.671  -3.656  0.00  0.00    +0.017 C 
ATOM     31  C   UNL     1       5.750   1.883  -3.313  0.00  0.00    -0.074 C 
ATOM     32  C   UNL     1       6.356   3.138  -5.280  0.00  0.00    -0.043 C 
ATOM     33  N   UNL     1       5.253   2.457  -4.581  0.00  0.00    +0.384 N 
ATOM     34  H   UNL     1       4.897   1.699  -5.176  0.00  0.00    -0.081 HD
ENDBRANCH  23  33
ENDBRANCH  20  23
ENDBRANCH  19  20
ENDBRANCH   1  19
TORSDOF 11
