REMARK  Name = ZINC02206733
REMARK  13 active torsions:
REMARK  status: ('A' for Active; 'I' for Inactive)
REMARK    1  A    between atoms: C_1  and  C_2
REMARK    2  A    between atoms: C_2  and  N_3
REMARK    3  A    between atoms: N_3  and  C_4
REMARK    4  A    between atoms: N_3  and  C_6
REMARK    5  A    between atoms: C_4  and  C_5
REMARK    6  A    between atoms: C_6  and  C_7
REMARK    7  A    between atoms: C_8  and  C_18
REMARK    8  A    between atoms: N_20  and  N_21
REMARK    9  A    between atoms: C_22  and  C_23
REMARK   10  A    between atoms: C_26  and  O_29
REMARK   11  A    between atoms: O_29  and  C_30
REMARK   12  A    between atoms: C_30  and  C_31
REMARK   13  A    between atoms: C_36  and  C_37
REMARK                            x       y       z     vdW  Elec       q    Type
REMARK                         _______ _______ _______ _____ _____    ______ ____
ROOT
ATOM      1  C   UNL     1      -3.654  -1.994   2.744  0.00  0.00    +0.285 C 
ATOM      2  O   UNL     1      -2.515  -1.676   3.029  0.00  0.00    -0.267 OA
ATOM      3  N   UNL     1      -4.607  -2.012   3.697  0.00  0.00    -0.202 N 
ATOM      4  H   UNL     1      -5.516  -2.265   3.470  0.00  0.00    +0.178 HD
ENDROOT
BRANCH   1   6
ATOM      5  C   UNL     1      -3.123  -2.383   0.302  0.00  0.00    +0.063 A 
ATOM      6  C   UNL     1      -3.992  -2.360   1.356  0.00  0.00    +0.170 A 
ATOM      7  N   UNL     1      -5.207  -2.729   0.914  0.00  0.00    -0.124 NA
ATOM      8  N   UNL     1      -5.150  -2.980  -0.347  0.00  0.00    -0.058 NA
ATOM      9  N   UNL     1      -3.834  -2.765  -0.782  0.00  0.00    -0.194 N 
ATOM     10  C   UNL     1      -3.350  -2.920  -2.086  0.00  0.00    +0.240 A 
ATOM     11  C   UNL     1      -4.139  -3.330  -3.251  0.00  0.00    +0.206 A 
ATOM     12  N   UNL     1      -3.350  -3.363  -4.289  0.00  0.00    -0.032 NA
ATOM     13  O   UNL     1      -2.053  -2.988  -3.861  0.00  0.00    -0.239 OA
ATOM     14  N   UNL     1      -2.122  -2.718  -2.472  0.00  0.00    -0.027 NA
ATOM     15  N   UNL     1      -5.496  -3.633  -3.249  0.00  0.00    -0.337 N 
ATOM     16  H   UNL     1      -6.003  -3.580  -2.424  0.00  0.00    +0.144 HD
ATOM     17  H   UNL     1      -5.935  -3.897  -4.073  0.00  0.00    +0.144 HD
BRANCH   5  18
ATOM     18  C   UNL     1      -1.656  -2.041   0.340  0.00  0.00    -0.020 C 
BRANCH  18  19
ATOM     19  N   UNL     1      -1.466  -0.650  -0.091  0.00  0.00    +0.383 N 
ATOM     20  H   UNL     1      -1.881  -0.520  -1.002  0.00  0.00    -0.081 HD
BRANCH  19  22
ATOM     21  C   UNL     1      -2.019   1.693   0.360  0.00  0.00    -0.017 C 
ATOM     22  C   UNL     1      -2.108   0.254   0.872  0.00  0.00    -0.082 C 
ENDBRANCH  19  22
BRANCH  19  23
ATOM     23  C   UNL     1      -0.029  -0.350  -0.161  0.00  0.00    -0.082 C 
ATOM     24  C   UNL     1       0.612  -1.181  -1.275  0.00  0.00    -0.017 C 
ENDBRANCH  19  23
ENDBRANCH  18  19
ENDBRANCH   5  18
ENDBRANCH   1   6
BRANCH   3  25
ATOM     25  N   UNL     1      -4.286  -1.664   5.016  0.00  0.00    -0.187 NA
ATOM     26  C   UNL     1      -5.204  -1.681   5.933  0.00  0.00    +0.138 C 
BRANCH  26  27
ATOM     27  C   UNL     1      -4.867  -1.315   7.321  0.00  0.00    -0.005 A 
ATOM     28  C   UNL     1      -3.560  -0.943   7.649  0.00  0.00    +0.013 A 
ATOM     29  C   UNL     1      -3.249  -0.602   8.947  0.00  0.00    +0.046 A 
ATOM     30  C   UNL     1      -4.232  -0.626   9.929  0.00  0.00    +0.121 A 
ATOM     31  C   UNL     1      -5.532  -0.995   9.607  0.00  0.00    +0.046 A 
ATOM     32  C   UNL     1      -5.853  -1.332   8.310  0.00  0.00    +0.013 A 
BRANCH  30  33
ATOM     33  O   UNL     1      -3.921  -0.289  11.207  0.00  0.00    -0.487 OA
BRANCH  33  34
ATOM     34  C   UNL     1      -4.979  -0.336  12.167  0.00  0.00    +0.264 C 
BRANCH  34  35
ATOM     35  C   UNL     1      -4.449   0.067  13.519  0.00  0.00    -0.007 A 
ATOM     36  C   UNL     1      -3.119   0.412  13.665  0.00  0.00    +0.007 A 
ATOM     37  C   UNL     1      -2.633   0.781  14.906  0.00  0.00    +0.000 A 
ATOM     38  C   UNL     1      -3.478   0.806  15.999  0.00  0.00    +0.000 A 
ATOM     39  C   UNL     1      -4.809   0.463  15.853  0.00  0.00    +0.004 A 
ATOM     40  C   UNL     1      -5.295   0.097  14.611  0.00  0.00    -0.044 A 
ATOM     41  C   UNL     1      -6.747  -0.273  14.450  0.00  0.00    +0.044 C 
ENDBRANCH  34  35
ENDBRANCH  33  34
ENDBRANCH  30  33
ENDBRANCH  26  27
ENDBRANCH   3  25
TORSDOF 10
