REMARK  Name = ZINC43596360
REMARK  5 active torsions:
REMARK  status: ('A' for Active; 'I' for Inactive)
REMARK    1  A    between atoms: C_3  and  N_11
REMARK    2  A    between atoms: C_6  and  N_7
REMARK    3  A    between atoms: N_11  and  CA_12
REMARK    4  A    between atoms: CA_12  and  C_14
REMARK    5  A    between atoms: CA_12  and  C_20
REMARK                            x       y       z     vdW  Elec       q    Type
REMARK                         _______ _______ _______ _____ _____    ______ ____
ROOT
ATOM      1  N   UNL     1       3.582   2.124  -0.021  0.00  0.00    -0.330 N 
ATOM      2  H   UNL     1       4.428   1.649  -0.032  0.00  0.00    +0.147 HD
ENDROOT
BRANCH   1   5
ATOM      3  C   UNL     1      -0.017   1.378   0.010  0.00  0.00    +0.034 A 
ATOM      4  C   UNL     1       1.169   2.087   0.002  0.00  0.00    +0.026 A 
ATOM      5  C   UNL     1       2.381   1.410  -0.013  0.00  0.00    +0.042 A 
ATOM      6  C   UNL     1       2.397   0.020  -0.021  0.00  0.00    +0.041 A 
ATOM      7  C   UNL     1       1.207  -0.682  -0.013  0.00  0.00    +0.049 A 
ATOM      8  C   UNL     1       0.002  -0.004   0.002  0.00  0.00    +0.127 A 
ATOM      9 BR   UNL     1       4.044  -0.908  -0.042  0.00  0.00    -0.048 Br
BRANCH   8  10
ATOM     10  N   UNL     1      -1.270  -0.760   0.010  0.00  0.00    +0.056 N 
ATOM     11  O   UNL     1      -2.325  -0.168   0.023  0.00  0.00    -0.126 OA
ATOM     12  O   UNL     1      -1.256  -1.969   0.003  0.00  0.00    -0.126 OA
ENDBRANCH   8  10
ENDBRANCH   1   5
BRANCH   1  13
ATOM     13  CA  UNL     1       3.564   3.589  -0.014  0.00  0.00    +0.187 C 
BRANCH  13  14
ATOM     14  C   UNL     1       4.859   4.118  -0.633  0.00  0.00    +0.020 C 
ATOM     15  C   UNL     1       6.054   3.619   0.180  0.00  0.00    +0.006 C 
ATOM     16  C   UNL     1       7.349   4.149  -0.440  0.00  0.00    +0.000 C 
ATOM     17  C   UNL     1       7.330   5.679  -0.432  0.00  0.00    +0.000 C 
ATOM     18  C   UNL     1       6.134   6.178  -1.245  0.00  0.00    +0.000 C 
ATOM     19  C   UNL     1       4.839   5.648  -0.625  0.00  0.00    +0.006 C 
ENDBRANCH  13  14
BRANCH  13  20
ATOM     20  C   UNL     1       3.447   4.082   1.405  0.00  0.00    +0.376 C 
ATOM     21  O   UNL     1       3.568   3.302   2.334  0.00  0.00    -0.244 OA
ATOM     22  OXT UNL     1       3.232   5.262   1.625  0.00  0.00    -0.244 OA
ENDBRANCH  13  20
ENDBRANCH   1  13
TORSDOF 5
