REMARK  Name = ZINC39707589
REMARK  4 active torsions:
REMARK  status: ('A' for Active; 'I' for Inactive)
REMARK    1  A    between atoms: C_4  and  O_22
REMARK    2  A    between atoms: C_5  and  C_7
REMARK    3  A    between atoms: N_8  and  N_9
REMARK    4  A    between atoms: C_10  and  C_12
REMARK                            x       y       z     vdW  Elec       q    Type
REMARK                         _______ _______ _______ _____ _____    ______ ____
ROOT
ATOM      1  N   UNL     1       3.573  -2.066   0.245  0.00  0.00    -0.203 N 
ATOM      2  C   UNL     1       4.731  -2.724   0.450  0.00  0.00    +0.262 C 
ATOM      3  O   UNL     1       4.764  -3.939   0.368  0.00  0.00    -0.269 OA
ATOM      4  H   UNL     1       3.562  -1.096   0.240  0.00  0.00    +0.178 HD
ENDROOT
BRANCH   2   5
ATOM      5  C   UNL     1       5.948  -1.981   0.770  0.00  0.00    +0.045 C 
ATOM      6  C   UNL     1       7.167  -2.592   0.864  0.00  0.00    +0.011 C 
ATOM      7  C   UNL     1       8.333  -1.871   1.174  0.00  0.00    +0.001 C 
ATOM      8  C   UNL     1       8.328  -0.598   1.651  0.00  0.00    +0.006 C 
ATOM      9  C   UNL     1       7.099   0.055   1.831  0.00  0.00    -0.017 C 
ATOM     10  C   UNL     1       6.552   1.068   2.524  0.00  0.00    +0.025 C 
ATOM     11  C   UNL     1       5.100   0.902   2.521  0.00  0.00    +0.106 C 
ATOM     12  N   UNL     1       4.736  -0.043   1.699  0.00  0.00    -0.279 NA
ATOM     13  C   UNL     1       5.935  -0.497   1.011  0.00  0.00    +0.170 C 
ENDBRANCH   2   5
BRANCH   1  15
ATOM     14  C   UNL     1       1.297  -2.154  -0.282  0.00  0.00    +0.142 C 
ATOM     15  N   UNL     1       2.387  -2.782   0.040  0.00  0.00    -0.187 NA
BRANCH  14  20
ATOM     16  C   UNL     1       2.574   1.118  -1.600  0.00  0.00    +0.001 A 
ATOM     17  C   UNL     1       1.463   1.928  -1.440  0.00  0.00    +0.004 A 
ATOM     18  C   UNL     1       0.296   1.417  -0.904  0.00  0.00    +0.046 A 
ATOM     19  C   UNL     1       0.231   0.086  -0.524  0.00  0.00    +0.125 A 
ATOM     20  C   UNL     1       1.354  -0.738  -0.684  0.00  0.00    +0.036 A 
ATOM     21  C   UNL     1       2.527  -0.208  -1.227  0.00  0.00    +0.013 A 
BRANCH  19  22
ATOM     22  O   UNL     1      -0.914  -0.417   0.003  0.00  0.00    -0.506 OA
ATOM     23  H   UNL     1      -1.555  -0.712  -0.659  0.00  0.00    +0.292 HD
ENDBRANCH  19  22
ENDBRANCH  14  20
ENDBRANCH   1  15
TORSDOF 4
