REMARK  Name = ZINC35357040
REMARK  5 active torsions:
REMARK  status: ('A' for Active; 'I' for Inactive)
REMARK    1  A    between atoms: C_1  and  C_2
REMARK    2  A    between atoms: C_6  and  N_9
REMARK    3  A    between atoms: N_9  and  S_10
REMARK    4  A    between atoms: S_10  and  C_13
REMARK    5  A    between atoms: C_14  and  C_19
REMARK                            x       y       z     vdW  Elec       q    Type
REMARK                         _______ _______ _______ _____ _____    ______ ____
ROOT
ATOM      1  N   UNL     1       0.053  -2.799   2.392  0.00  0.00    -0.094 NA
ENDROOT
BRANCH   1   7
ATOM      2  C   UNL     1      -2.078  -1.322  -1.786  0.00  0.00    +0.045 C 
ATOM      3  C   UNL     1      -0.890  -1.363  -0.860  0.00  0.00    -0.030 A 
ATOM      4  C   UNL     1       0.276  -0.705  -1.203  0.00  0.00    +0.006 A 
ATOM      5  C   UNL     1       1.369  -0.739  -0.356  0.00  0.00    +0.022 A 
ATOM      6  C   UNL     1       1.298  -1.433   0.838  0.00  0.00    +0.067 A 
ATOM      7  C   UNL     1       0.128  -2.096   1.186  0.00  0.00    +0.111 A 
ATOM      8  C   UNL     1      -0.970  -2.055   0.334  0.00  0.00    +0.070 A 
ATOM      9 CL   UNL     1      -2.437  -2.875   0.767  0.00  0.00    -0.081 Cl
ATOM     10 CL   UNL     1       2.670  -1.476   1.900  0.00  0.00    -0.081 Cl
ENDBRANCH   1   7
BRANCH   1  11
ATOM     11  S   UNL     1      -0.049  -4.451   2.383  0.00  0.00    +0.100 S 
ATOM     12  O   UNL     1      -1.295  -4.778   1.783  0.00  0.00    -0.148 OA
ATOM     13  O   UNL     1       1.189  -4.932   1.878  0.00  0.00    -0.148 OA
BRANCH  11  14
ATOM     14  C   UNL     1      -0.146  -4.977   4.062  0.00  0.00    +0.171 A 
ATOM     15  C   UNL     1      -0.238  -6.230   4.574  0.00  0.00    +0.074 A 
ATOM     16  N   UNL     1      -0.296  -6.337   5.887  0.00  0.00    -0.231 NA
ATOM     17  C   UNL     1      -0.266  -5.278   6.659  0.00  0.00    +0.169 A 
ATOM     18  S   UNL     1      -0.143  -4.008   5.562  0.00  0.00    -0.035 S 
ATOM     19 CL   UNL     1      -0.330  -5.205   8.392  0.00  0.00    -0.054 Cl
ATOM     20  C   UNL     1      -0.273  -7.444   3.682  0.00  0.00    +0.068 C 
ENDBRANCH  11  14
ENDBRANCH   1  11
TORSDOF 3
