REMARK  Name = ZINC02112189
REMARK  6 active torsions:
REMARK  status: ('A' for Active; 'I' for Inactive)
REMARK    1  A    between atoms: C_1  and  C_2
REMARK    2  A    between atoms: C_7  and  O_13
REMARK    3  A    between atoms: O_13  and  C_14
REMARK    4  A    between atoms: N_20  and  C_23
REMARK    5  A    between atoms: C_26  and  O_29
REMARK    6  A    between atoms: O_29  and  C_30
REMARK                            x       y       z     vdW  Elec       q    Type
REMARK                         _______ _______ _______ _____ _____    ______ ____
ROOT
ATOM      1  C   UNL     1      -5.346   4.468  -1.453  0.00  0.00    +0.048 C 
ATOM      2  C   UNL     1      -4.676   4.347  -0.082  0.00  0.00    +0.153 C 
ATOM      3  C   UNL     1      -5.681   4.232   1.039  0.00  0.00    +0.053 A 
ATOM      4  C   UNL     1      -5.901   5.222   1.934  0.00  0.00    -0.015 A 
ATOM      5  C   UNL     1      -6.940   4.745   2.830  0.00  0.00    +0.007 A 
ATOM      6  C   UNL     1      -7.576   5.330   3.930  0.00  0.00    +0.056 A 
ATOM      7  C   UNL     1      -8.545   4.569   4.567  0.00  0.00    +0.121 A 
ATOM      8  C   UNL     1      -8.870   3.288   4.138  0.00  0.00    +0.047 A 
ATOM      9  C   UNL     1      -8.250   2.695   3.052  0.00  0.00    +0.030 A 
ATOM     10  C   UNL     1      -7.274   3.439   2.394  0.00  0.00    +0.047 A 
ATOM     11  N   UNL     1      -6.488   3.161   1.310  0.00  0.00    -0.356 N 
ATOM     12  H   UNL     1      -6.501   2.330   0.809  0.00  0.00    +0.166 HD
ATOM     13  C   UNL     1      -5.197   6.553   1.985  0.00  0.00    +0.056 C 
ATOM     14  C   UNL     1      -4.440   6.807   0.673  0.00  0.00    +0.115 C 
ATOM     15  N   UNL     1      -3.853   5.535   0.245  0.00  0.00    -0.265 N 
ATOM     16  C   UNL     1      -2.578   5.157   0.149  0.00  0.00    +0.317 C 
ATOM     17  O   UNL     1      -1.637   5.926   0.155  0.00  0.00    -0.252 OA
ATOM     18  N   UNL     1      -2.461   3.823   0.045  0.00  0.00    -0.192 N 
ATOM     19  C   UNL     1      -3.668   3.224  -0.049  0.00  0.00    +0.257 C 
ATOM     20  O   UNL     1      -3.895   2.033  -0.095  0.00  0.00    -0.272 OA
ENDROOT
BRANCH  18  21
ATOM     21  C   UNL     1      -1.236   3.138   0.030  0.00  0.00    +0.046 A 
ATOM     22  C   UNL     1      -1.218   1.750   0.036  0.00  0.00    +0.027 A 
ATOM     23  C   UNL     1      -0.012   1.076   0.026  0.00  0.00    +0.047 A 
ATOM     24  C   UNL     1       1.179   1.786   0.000  0.00  0.00    +0.120 A 
ATOM     25  C   UNL     1       1.161   3.173  -0.011  0.00  0.00    +0.047 A 
ATOM     26  C   UNL     1      -0.044   3.848   0.004  0.00  0.00    +0.027 A 
BRANCH  24  27
ATOM     27  O   UNL     1       2.366   1.122  -0.015  0.00  0.00    -0.495 OA
ATOM     28  C   UNL     1       3.553   1.916  -0.042  0.00  0.00    +0.277 C 
ENDBRANCH  24  27
ENDBRANCH  18  21
BRANCH   7  29
ATOM     29  O   UNL     1      -9.195   5.090   5.642  0.00  0.00    -0.495 OA
ATOM     30  C   UNL     1     -10.184   4.268   6.264  0.00  0.00    +0.277 C 
ENDBRANCH   7  29
TORSDOF 3
