REMARK  Name = ZINC46643752
REMARK  6 active torsions:
REMARK  status: ('A' for Active; 'I' for Inactive)
REMARK    1  A    between atoms: C_1  and  C_2
REMARK    2  A    between atoms: C_2  and  C_4
REMARK    3  A    between atoms: C_2  and  N_25
REMARK    4  A    between atoms: N_9  and  C_12
REMARK    5  A    between atoms: C_12  and  C_13
REMARK    6  A    between atoms: C_16  and  C_18
REMARK                            x       y       z     vdW  Elec       q    Type
REMARK                         _______ _______ _______ _____ _____    ______ ____
ROOT
ATOM      1  C   UNL     1       0.836  -0.462   1.171  0.00  0.00    +0.236 C 
ATOM      2  O   UNL     1       0.367  -1.227   1.987  0.00  0.00    -0.274 OA
ATOM      3  N   UNL     1       2.100  -0.017   1.312  0.00  0.00    -0.298 N 
ATOM      4  C   UNL     1       2.648   1.001   0.403  0.00  0.00    +0.123 C 
ATOM      5  C   UNL     1       3.258   2.127   1.245  0.00  0.00    +0.104 C 
ATOM      6  N   UNL     1       4.224   1.556   2.194  0.00  0.00    -0.295 NA
ATOM      7  C   UNL     1       3.567   0.648   3.143  0.00  0.00    +0.104 C 
ATOM      8  C   UNL     1       2.967  -0.534   2.382  0.00  0.00    +0.123 C 
ENDROOT
BRANCH   1  10
ATOM      9  C   UNL     1      -0.689   1.312   0.348  0.00  0.00    +0.038 C 
ATOM     10  C   UNL     1       0.003  -0.007   0.000  0.00  0.00    +0.157 C 
BRANCH  10  11
ATOM     11  N   UNL     1      -1.007  -1.023  -0.305  0.00  0.00    -0.289 N 
ATOM     12  C   UNL     1      -1.519  -1.113  -1.548  0.00  0.00    +0.298 C 
ATOM     13  O   UNL     1      -1.142  -0.350  -2.417  0.00  0.00    -0.253 OA
ATOM     14  N   UNL     1      -2.448  -2.048  -1.829  0.00  0.00    -0.313 N 
ATOM     15  H   UNL     1      -1.308  -1.631   0.389  0.00  0.00    +0.151 HD
ATOM     16  H   UNL     1      -2.749  -2.656  -1.135  0.00  0.00    +0.146 HD
ATOM     17  H   UNL     1      -2.817  -2.112  -2.724  0.00  0.00    +0.146 HD
ENDBRANCH  10  11
ENDBRANCH   1  10
BRANCH   6  18
ATOM     18  C   UNL     1       4.957   2.616   2.900  0.00  0.00    +0.127 C 
BRANCH  18  19
ATOM     19  C   UNL     1       6.097   2.007   3.675  0.00  0.00    +0.004 A 
ATOM     20  C   UNL     1       7.377   1.788   3.278  0.00  0.00    +0.013 A 
ATOM     21  C   UNL     1       8.264   1.212   4.162  0.00  0.00    +0.016 A 
ATOM     22  C   UNL     1       7.823   0.879   5.414  0.00  0.00    +0.020 A 
ATOM     23  S   UNL     1       6.115   1.396   5.352  0.00  0.00    -0.092 S 
BRANCH  22  24
ATOM     24  C   UNL     1       8.568   0.258   6.530  0.00  0.00    -0.009 A 
ATOM     25  C   UNL     1       9.918  -0.064   6.378  0.00  0.00    +0.009 A 
ATOM     26  C   UNL     1      10.609  -0.642   7.422  0.00  0.00    +0.003 A 
ATOM     27  C   UNL     1       9.968  -0.905   8.619  0.00  0.00    +0.038 A 
ATOM     28  C   UNL     1       8.628  -0.589   8.778  0.00  0.00    +0.124 A 
ATOM     29  C   UNL     1       7.927  -0.003   7.741  0.00  0.00    +0.047 A 
ATOM     30  F   UNL     1       8.008  -0.848   9.950  0.00  0.00    -0.205 F 
ENDBRANCH  22  24
ENDBRANCH  18  19
ENDBRANCH   6  18
TORSDOF 5
