REMARK  Name = ZINC13688547
REMARK  6 active torsions:
REMARK  status: ('A' for Active; 'I' for Inactive)
REMARK    1  A    between atoms: C_1  and  N_2
REMARK    2  A    between atoms: C_6  and  N_13
REMARK    3  A    between atoms: N_9  and  C_12
REMARK    4  A    between atoms: C_14  and  C_16
REMARK    5  A    between atoms: N_19  and  S_22
REMARK    6  A    between atoms: S_22  and  C_25
REMARK                            x       y       z     vdW  Elec       q    Type
REMARK                         _______ _______ _______ _____ _____    ______ ____
ROOT
ATOM      1  N   UNL     1       1.541  -2.679   2.131  0.00  0.00    -0.285 N 
ATOM      2  C   UNL     1       0.989  -2.026   1.089  0.00  0.00    +0.220 C 
ATOM      3  O   UNL     1       0.499  -2.651   0.172  0.00  0.00    -0.275 OA
ATOM      4  H   UNL     1       2.000  -2.182   2.826  0.00  0.00    +0.155 HD
ENDROOT
BRANCH   1  10
ATOM      5  C   UNL     1       1.716  -9.311   2.795  0.00  0.00    +0.154 C 
ATOM      6  N   UNL     1       0.921  -8.181   2.308  0.00  0.00    -0.295 N 
ATOM      7  C   UNL     1       1.289  -6.837   2.371  0.00  0.00    +0.070 A 
ATOM      8  C   UNL     1       2.408  -6.180   2.861  0.00  0.00    +0.030 A 
ATOM      9  C   UNL     1       2.489  -4.804   2.780  0.00  0.00    +0.025 A 
ATOM     10  C   UNL     1       1.452  -4.075   2.209  0.00  0.00    +0.035 A 
ATOM     11  C   UNL     1       0.329  -4.725   1.723  0.00  0.00    +0.051 A 
ATOM     12  C   UNL     1       0.246  -6.107   1.797  0.00  0.00    +0.071 A 
ATOM     13  N   UNL     1      -0.722  -7.028   1.403  0.00  0.00    -0.295 N 
ATOM     14  C   UNL     1      -0.288  -8.262   1.723  0.00  0.00    +0.330 A 
ATOM     15  O   UNL     1      -0.898  -9.294   1.515  0.00  0.00    -0.246 OA
ATOM     16  C   UNL     1      -1.995  -6.708   0.753  0.00  0.00    +0.154 C 
ENDBRANCH   1  10
BRANCH   2  17
ATOM     17  C   UNL     1       0.979  -0.519   1.063  0.00  0.00    +0.078 C 
ATOM     18  C   UNL     1       0.299  -0.036  -0.220  0.00  0.00    +0.030 C 
ATOM     19  C   UNL     1       0.260   1.496  -0.226  0.00  0.00    +0.110 C 
ATOM     20  N   UNL     1       1.626   2.004  -0.039  0.00  0.00    -0.177 NA
ATOM     21  C   UNL     1       2.404   1.532   1.114  0.00  0.00    +0.110 C 
ATOM     22  C   UNL     1       2.418   0.000   1.106  0.00  0.00    +0.030 C 
BRANCH  20  23
ATOM     23  S   UNL     1       2.276   3.088  -1.109  0.00  0.00    +0.061 S 
ATOM     24  O   UNL     1       3.688   2.955  -1.014  0.00  0.00    -0.153 OA
ATOM     25  O   UNL     1       1.577   2.919  -2.334  0.00  0.00    -0.153 OA
BRANCH  23  26
ATOM     26  C   UNL     1       1.881   4.701  -0.521  0.00  0.00    +0.106 A 
ATOM     27  C   UNL     1       0.714   5.319  -0.930  0.00  0.00    +0.030 A 
ATOM     28  C   UNL     1       0.401   6.582  -0.466  0.00  0.00    +0.022 A 
ATOM     29  C   UNL     1       1.261   7.233   0.401  0.00  0.00    +0.041 A 
ATOM     30  C   UNL     1       2.432   6.617   0.805  0.00  0.00    +0.022 A 
ATOM     31  C   UNL     1       2.741   5.351   0.344  0.00  0.00    +0.030 A 
ATOM     32 CL   UNL     1       0.871   8.822   0.980  0.00  0.00    -0.084 Cl
ENDBRANCH  23  26
ENDBRANCH  20  23
ENDBRANCH   2  17
TORSDOF 4
