REMARK  Name = ZINC05569284
REMARK  8 active torsions:
REMARK  status: ('A' for Active; 'I' for Inactive)
REMARK    1  A    between atoms: C_2  and  C_8
REMARK    2  A    between atoms: C_5  and  O_7
REMARK    3  A    between atoms: N_9  and  N_10
REMARK    4  A    between atoms: C_11  and  C_13
REMARK    5  A    between atoms: C_16  and  C_19
REMARK    6  A    between atoms: N_21  and  N_22
REMARK    7  A    between atoms: C_23  and  C_24
REMARK    8  A    between atoms: C_27  and  O_30
REMARK                            x       y       z     vdW  Elec       q    Type
REMARK                         _______ _______ _______ _____ _____    ______ ____
ROOT
ATOM      1  C   UNL     1       3.420   7.787   0.010  0.00  0.00    +0.038 A 
ATOM      2  C   UNL     1       2.204   8.473   0.030  0.00  0.00    +0.014 A 
ATOM      3  C   UNL     1       2.190   9.850   0.037  0.00  0.00    +0.014 A 
ATOM      4  C   UNL     1       3.392  10.560   0.025  0.00  0.00    +0.038 A 
ATOM      5  C   UNL     1       4.608   9.874   0.005  0.00  0.00    +0.014 A 
ATOM      6  C   UNL     1       4.622   8.497   0.002  0.00  0.00    +0.014 A 
ENDROOT
BRANCH   1   8
ATOM      7  N   UNL     1       2.274   5.622   0.010  0.00  0.00    -0.203 N 
ATOM      8  C   UNL     1       3.435   6.308   0.002  0.00  0.00    +0.263 C 
ATOM      9  O   UNL     1       4.494   5.710  -0.011  0.00  0.00    -0.268 OA
ATOM     10  H   UNL     1       1.429   6.098   0.020  0.00  0.00    +0.178 HD
BRANCH   7  12
ATOM     11  C   UNL     1       1.171   3.561   0.009  0.00  0.00    +0.138 C 
ATOM     12  N   UNL     1       2.288   4.221   0.002  0.00  0.00    -0.187 NA
BRANCH  11  14
ATOM     13  C   UNL     1      -0.017   1.374   0.010  0.00  0.00    +0.013 A 
ATOM     14  C   UNL     1       1.185   2.087   0.002  0.00  0.00    -0.005 A 
ATOM     15  C   UNL     1       2.401   1.398  -0.013  0.00  0.00    +0.013 A 
ATOM     16  C   UNL     1       2.410   0.020  -0.021  0.00  0.00    +0.046 A 
ATOM     17  C   UNL     1       1.213  -0.684  -0.013  0.00  0.00    +0.117 A 
ATOM     18  C   UNL     1       0.002  -0.004   0.002  0.00  0.00    +0.046 A 
BRANCH  17  19
ATOM     19  O   UNL     1       1.227  -2.043  -0.021  0.00  0.00    -0.507 OA
ATOM     20  H   UNL     1       1.239  -2.441   0.860  0.00  0.00    +0.292 HD
ENDBRANCH  17  19
ENDBRANCH  11  14
ENDBRANCH   7  12
ENDBRANCH   1   8
BRANCH   4  21
ATOM     21  C   UNL     1       3.377  12.040   0.031  0.00  0.00    +0.263 C 
ATOM     22  O   UNL     1       2.318  12.637   0.048  0.00  0.00    -0.268 OA
ATOM     23  N   UNL     1       4.538  12.725   0.019  0.00  0.00    -0.203 N 
ATOM     24  H   UNL     1       5.382  12.249   0.005  0.00  0.00    +0.178 HD
BRANCH  23  25
ATOM     25  N   UNL     1       4.524  14.126   0.025  0.00  0.00    -0.187 NA
ATOM     26  C   UNL     1       5.641  14.787   0.013  0.00  0.00    +0.138 C 
BRANCH  26  27
ATOM     27  C   UNL     1       5.627  16.260   0.019  0.00  0.00    -0.005 A 
ATOM     28  C   UNL     1       4.411  16.949   0.044  0.00  0.00    +0.013 A 
ATOM     29  C   UNL     1       4.402  18.327   0.050  0.00  0.00    +0.046 A 
ATOM     30  C   UNL     1       5.599  19.032   0.031  0.00  0.00    +0.117 A 
ATOM     31  C   UNL     1       6.810  18.351   0.006  0.00  0.00    +0.046 A 
ATOM     32  C   UNL     1       6.828  16.973   0.006  0.00  0.00    +0.013 A 
BRANCH  30  33
ATOM     33  O   UNL     1       5.585  20.390   0.037  0.00  0.00    -0.507 OA
ATOM     34  H   UNL     1       5.597  20.780   0.922  0.00  0.00    +0.292 HD
ENDBRANCH  30  33
ENDBRANCH  26  27
ENDBRANCH  23  25
ENDBRANCH   4  21
TORSDOF 8
