REMARK  Name = ZINC35444271
REMARK  10 active torsions:
REMARK  status: ('A' for Active; 'I' for Inactive)
REMARK    1  A    between atoms: C_1  and  C_2
REMARK    2  A    between atoms: C_2  and  O_3
REMARK    3  A    between atoms: O_3  and  C_4
REMARK    4  A    between atoms: C_6  and  C_11
REMARK    5  A    between atoms: C_9  and  O_10
REMARK    6  A    between atoms: C_13  and  C_25
REMARK    7  A    between atoms: N_17  and  C_18
REMARK    8  A    between atoms: C_18  and  C_19
REMARK    9  A    between atoms: C_25  and  C_27
REMARK   10  A    between atoms: C_28  and  C_29
REMARK                            x       y       z     vdW  Elec       q    Type
REMARK                         _______ _______ _______ _____ _____    ______ ____
ROOT
ATOM      1  C   UNL     1       0.335  -5.003   0.443  0.00  0.00    +0.145 C 
ATOM      2  C   UNL     1      -1.093  -5.494   0.402  0.00  0.00    +0.076 C 
ATOM      3  C   UNL     1      -1.043  -6.845   0.469  0.00  0.00    +0.249 C 
ATOM      4  C   UNL     1       0.367  -7.275   0.554  0.00  0.00    +0.288 C 
ATOM      5  O   UNL     1       0.741  -8.429   0.627  0.00  0.00    -0.266 OA
ATOM      6  N   UNL     1       1.178  -6.200   0.540  0.00  0.00    -0.276 N 
ATOM      7  O   UNL     1      -2.116  -7.670   0.460  0.00  0.00    -0.282 OA
ENDROOT
BRANCH   1  10
ATOM      8  C   UNL     1       1.056  -4.216  -3.181  0.00  0.00    +0.162 A 
ATOM      9  C   UNL     1       0.759  -4.914  -2.021  0.00  0.00    +0.055 A 
ATOM     10  C   UNL     1       0.658  -4.242  -0.817  0.00  0.00    -0.019 A 
ATOM     11  C   UNL     1       0.853  -2.874  -0.766  0.00  0.00    +0.009 A 
ATOM     12  C   UNL     1       1.150  -2.172  -1.920  0.00  0.00    +0.049 A 
ATOM     13  C   UNL     1       1.258  -2.840  -3.129  0.00  0.00    +0.158 A 
BRANCH  13  14
ATOM     14  O   UNL     1       1.555  -2.151  -4.264  0.00  0.00    -0.503 OA
ATOM     15  H   UNL     1       0.780  -1.821  -4.737  0.00  0.00    +0.292 HD
ENDBRANCH  13  14
BRANCH   8  16
ATOM     16  O   UNL     1       1.156  -4.875  -4.366  0.00  0.00    -0.489 OA
BRANCH  16  18
ATOM     17  C   UNL     1       1.082  -6.851  -5.756  0.00  0.00    +0.048 C 
ATOM     18  C   UNL     1       0.833  -6.267  -4.364  0.00  0.00    +0.226 C 
ENDBRANCH  16  18
ENDBRANCH   8  16
ENDBRANCH   1  10
BRANCH   2  19
ATOM     19  C   UNL     1      -2.301  -4.666   0.307  0.00  0.00    +0.188 C 
ATOM     20  O   UNL     1      -3.392  -5.193   0.174  0.00  0.00    -0.287 OA
BRANCH  19  21
ATOM     21  C   UNL     1      -2.196  -3.208   0.373  0.00  0.00    +0.052 C 
ATOM     22  C   UNL     1      -3.313  -2.448   0.340  0.00  0.00    +0.011 C 
BRANCH  22  23
ATOM     23  C   UNL     1      -3.204  -0.982   0.287  0.00  0.00    -0.025 A 
ATOM     24  C   UNL     1      -1.951  -0.375   0.147  0.00  0.00    +0.008 A 
ATOM     25  C   UNL     1      -1.857   1.000   0.097  0.00  0.00    +0.001 A 
ATOM     26  C   UNL     1      -2.998   1.778   0.187  0.00  0.00    +0.000 A 
ATOM     27  C   UNL     1      -4.241   1.185   0.326  0.00  0.00    +0.001 A 
ATOM     28  C   UNL     1      -4.352  -0.188   0.371  0.00  0.00    +0.008 A 
ENDBRANCH  22  23
ENDBRANCH  19  21
ENDBRANCH   2  19
BRANCH   6  29
ATOM     29  C   UNL     1       2.642  -6.221   0.609  0.00  0.00    +0.183 C 
BRANCH  29  30
ATOM     30  C   UNL     1       3.078  -6.159   2.050  0.00  0.00    +0.122 A 
ATOM     31  C   UNL     1       3.293  -7.217   2.853  0.00  0.00    +0.046 A 
ATOM     32  C   UNL     1       3.686  -6.703   4.110  0.00  0.00    +0.041 A 
ATOM     33  C   UNL     1       3.688  -5.363   4.000  0.00  0.00    +0.195 A 
ATOM     34  O   UNL     1       3.324  -5.039   2.748  0.00  0.00    -0.466 OA
ENDBRANCH  29  30
ENDBRANCH   6  29
TORSDOF 9
