REMARK  Name = ZINC39941749
REMARK  7 active torsions:
REMARK  status: ('A' for Active; 'I' for Inactive)
REMARK    1  A    between atoms: C_8  and  C_13
REMARK    2  A    between atoms: N_14  and  N_15
REMARK    3  A    between atoms: C_16  and  C_18
REMARK    4  A    between atoms: C_18  and  O_19
REMARK    5  A    between atoms: C_18  and  O_27
REMARK    6  A    between atoms: O_19  and  C_20
REMARK    7  A    between atoms: O_27  and  C_28
REMARK                            x       y       z     vdW  Elec       q    Type
REMARK                         _______ _______ _______ _____ _____    ______ ____
ROOT
ATOM      1  N   UNL     1       2.408  -5.755  -2.247  0.00  0.00    -0.201 N 
ATOM      2  C   UNL     1       2.841  -7.027  -2.135  0.00  0.00    +0.314 C 
ATOM      3  O   UNL     1       2.931  -7.543  -1.041  0.00  0.00    -0.266 OA
ATOM      4  H   UNL     1       2.336  -5.343  -3.122  0.00  0.00    +0.177 HD
ENDROOT
BRANCH   1   6
ATOM      5  C   UNL     1       1.651  -3.822  -1.206  0.00  0.00    +0.120 C 
ATOM      6  N   UNL     1       2.062  -5.030  -1.099  0.00  0.00    -0.191 NA
BRANCH   5  14
ATOM      7  C   UNL     1      -2.457   0.110   0.029  0.00  0.00    +0.001 A 
ATOM      8  C   UNL     1      -1.519   1.140   0.090  0.00  0.00    +0.002 A 
ATOM      9  C   UNL     1      -0.180   0.911   0.121  0.00  0.00    +0.024 A 
ATOM     10  C   UNL     1       0.321  -0.404   0.091  0.00  0.00    +0.040 A 
ATOM     11  N   UNL     1       1.636  -0.617   0.121  0.00  0.00    -0.284 N 
ATOM     12  C   UNL     1       2.173  -1.825   0.096  0.00  0.00    +0.229 C 
ATOM     13  O   UNL     1       3.382  -1.957   0.126  0.00  0.00    -0.274 OA
ATOM     14  C   UNL     1       1.278  -3.042   0.029  0.00  0.00    +0.141 C 
ATOM     15  C   UNL     1      -0.219  -2.805  -0.006  0.00  0.00    +0.001 C 
ATOM     16  C   UNL     1      -0.648  -1.512   0.026  0.00  0.00    -0.007 A 
ATOM     17  C   UNL     1      -2.076  -1.193  -0.004  0.00  0.00    +0.009 A 
ATOM     18  H   UNL     1       2.228   0.151   0.165  0.00  0.00    +0.155 HD
ENDBRANCH   5  14
ENDBRANCH   1   6
BRANCH   2  19
ATOM     19  C   UNL     1       3.214  -7.807  -3.369  0.00  0.00    +0.454 C 
BRANCH  19  20
ATOM     20  O   UNL     1       3.807  -6.929  -4.327  0.00  0.00    -0.446 OA
BRANCH  20  21
ATOM     21  C   UNL     1       4.896  -6.222  -3.924  0.00  0.00    +0.126 A 
ATOM     22  C   UNL     1       5.457  -6.460  -2.678  0.00  0.00    +0.047 A 
ATOM     23  C   UNL     1       6.563  -5.741  -2.270  0.00  0.00    +0.023 A 
ATOM     24  C   UNL     1       7.113  -4.784  -3.105  0.00  0.00    +0.041 A 
ATOM     25  C   UNL     1       6.556  -4.545  -4.348  0.00  0.00    +0.023 A 
ATOM     26  C   UNL     1       5.453  -5.267  -4.762  0.00  0.00    +0.047 A 
ATOM     27 CL   UNL     1       8.504  -3.881  -2.590  0.00  0.00    -0.084 Cl
ENDBRANCH  20  21
ENDBRANCH  19  20
BRANCH  19  28
ATOM     28  O   UNL     1       4.146  -8.833  -3.021  0.00  0.00    -0.446 OA
BRANCH  28  29
ATOM     29  C   UNL     1       4.507  -9.699  -4.004  0.00  0.00    +0.126 A 
ATOM     30  C   UNL     1       3.896  -9.631  -5.248  0.00  0.00    +0.047 A 
ATOM     31  C   UNL     1       4.264 -10.512  -6.246  0.00  0.00    +0.023 A 
ATOM     32  C   UNL     1       5.240 -11.462  -6.006  0.00  0.00    +0.041 A 
ATOM     33  C   UNL     1       5.851 -11.532  -4.766  0.00  0.00    +0.023 A 
ATOM     34  C   UNL     1       5.490 -10.648  -3.767  0.00  0.00    +0.047 A 
ATOM     35 CL   UNL     1       5.700 -12.569  -7.262  0.00  0.00    -0.084 Cl
ENDBRANCH  28  29
ENDBRANCH  19  28
ENDBRANCH   2  19
TORSDOF 7
