REMARK  Name = ZINC44326293
REMARK  12 active torsions:
REMARK  status: ('A' for Active; 'I' for Inactive)
REMARK    1  A    between atoms: C_1  and  C_2
REMARK    2  A    between atoms: N_8  and  C_9
REMARK    3  A    between atoms: C_9  and  C_10
REMARK    4  A    between atoms: C_10  and  O_11
REMARK    5  A    between atoms: O_11  and  C_12
REMARK    6  A    between atoms: C_17  and  C_18
REMARK    7  A    between atoms: C_18  and  CA_19
REMARK    8  A    between atoms: CA_19  and  C_21
REMARK    9  A    between atoms: CA_19  and  N_24
REMARK   10  A    between atoms: C_25  and  O_27
REMARK   11  A    between atoms: O_27  and  C_28
REMARK   12  A    between atoms: C_28  and  C_29
REMARK                            x       y       z     vdW  Elec       q    Type
REMARK                         _______ _______ _______ _____ _____    ______ ____
ROOT
ATOM      1  CA  UNL     1       4.228   2.909   3.772  0.00  0.00    +0.193 C 
ENDROOT
BRANCH   1   2
ATOM      2  N   UNL     1       2.764   2.940   3.753  0.00  0.00    -0.267 N 
ATOM      3  C   UNL     1       2.101   3.895   4.434  0.00  0.00    +0.401 C 
ATOM      4  O   UNL     1       2.718   4.731   5.065  0.00  0.00    -0.226 OA
ATOM      5  H   UNL     1       2.271   2.273   3.249  0.00  0.00    +0.153 HD
BRANCH   3   6
ATOM      6  O   UNL     1       0.755   3.924   4.415  0.00  0.00    -0.449 OA
BRANCH   6   7
ATOM      7  C   UNL     1       0.118   4.964   5.160  0.00  0.00    +0.246 C 
BRANCH   7   8
ATOM      8  C   UNL     1      -1.400   4.835   5.021  0.00  0.00    +0.088 C 
ATOM      9  C   UNL     1      -1.883   3.593   5.730  0.00  0.00    -0.029 A 
ATOM     10  C   UNL     1      -1.603   2.256   5.549  0.00  0.00    +0.005 A 
ATOM     11  C   UNL     1      -2.200   1.307   6.361  0.00  0.00    +0.000 A 
ATOM     12  C   UNL     1      -3.079   1.698   7.354  0.00  0.00    +0.001 A 
ATOM     13  C   UNL     1      -3.365   3.034   7.543  0.00  0.00    +0.009 A 
ATOM     14  C   UNL     1      -2.766   3.997   6.728  0.00  0.00    -0.014 A 
ATOM     15  C   UNL     1      -2.891   5.476   6.708  0.00  0.00    -0.014 A 
ATOM     16  C   UNL     1      -2.085   5.996   5.699  0.00  0.00    -0.029 A 
ATOM     17  C   UNL     1      -2.032   7.356   5.483  0.00  0.00    +0.005 A 
ATOM     18  C   UNL     1      -2.781   8.213   6.271  0.00  0.00    +0.000 A 
ATOM     19  C   UNL     1      -3.584   7.705   7.277  0.00  0.00    +0.001 A 
ATOM     20  C   UNL     1      -3.643   6.346   7.500  0.00  0.00    +0.009 A 
ENDBRANCH   7   8
ENDBRANCH   6   7
ENDBRANCH   3   6
ENDBRANCH   1   2
BRANCH   1  21
ATOM     21  C   UNL     1       4.765   3.835   2.712  0.00  0.00    +0.376 C 
ATOM     22  O   UNL     1       4.124   4.032   1.693  0.00  0.00    -0.244 OA
ATOM     23  OXT UNL     1       5.840   4.387   2.871  0.00  0.00    -0.244 OA
ENDBRANCH   1  21
BRANCH   1  24
ATOM     24  C   UNL     1       4.712   1.483   3.498  0.00  0.00    +0.072 C 
BRANCH  24  30
ATOM     25  C   UNL     1       3.014   0.011   4.609  0.00  0.00    +0.124 A 
ATOM     26  C   UNL     1       2.620  -0.825   5.644  0.00  0.00    +0.046 A 
ATOM     27  C   UNL     1       3.486  -1.083   6.689  0.00  0.00    +0.004 A 
ATOM     28  C   UNL     1       4.744  -0.511   6.703  0.00  0.00    +0.000 A 
ATOM     29  C   UNL     1       5.139   0.322   5.673  0.00  0.00    +0.007 A 
ATOM     30  C   UNL     1       4.279   0.580   4.623  0.00  0.00    -0.003 A 
BRANCH  25  31
ATOM     31  O   UNL     1       2.164   0.267   3.580  0.00  0.00    -0.494 OA
BRANCH  31  32
ATOM     32  C   UNL     1       0.877  -0.353   3.631  0.00  0.00    +0.210 C 
BRANCH  32  33
ATOM     33  C   UNL     1       0.067   0.050   2.397  0.00  0.00    -0.037 C 
BRANCH  33  40
ATOM     34  C   UNL     1      -0.019   1.526   0.010  0.00  0.00    -0.013 C 
ATOM     35  C   UNL     1       0.002  -0.004   0.002  0.00  0.00    -0.072 C 
ATOM     36  C   UNL     1       0.717  -0.497  -1.258  0.00  0.00    -0.016 C 
ATOM     37  C   UNL     1       0.735  -2.028  -1.262  0.00  0.00    -0.003 C 
ATOM     38  C   UNL     1       1.410  -2.524   0.020  0.00  0.00    -0.019 C 
ATOM     39  C   UNL     1       0.669  -1.956   1.232  0.00  0.00    -0.078 C 
ATOM     40  N   UNL     1       0.711  -0.490   1.192  0.00  0.00    +0.384 N 
ATOM     41  H   UNL     1       1.671  -0.182   1.159  0.00  0.00    -0.081 HD
ENDBRANCH  33  40
ENDBRANCH  32  33
ENDBRANCH  31  32
ENDBRANCH  25  31
ENDBRANCH  24  30
ENDBRANCH   1  24
TORSDOF 11
