REMARK  Name = ZINC39710925
REMARK  9 active torsions:
REMARK  status: ('A' for Active; 'I' for Inactive)
REMARK    1  A    between atoms: C_1  and  C_2
REMARK    2  A    between atoms: C_8  and  C_14
REMARK    3  A    between atoms: C_14  and  C_16
REMARK    4  A    between atoms: C_14  and  N_28
REMARK    5  A    between atoms: N_21  and  C_22
REMARK    6  A    between atoms: N_28  and  C_29
REMARK    7  A    between atoms: N_28  and  C_35
REMARK    8  A    between atoms: C_29  and  C_30
REMARK    9  A    between atoms: C_35  and  C_36
REMARK                            x       y       z     vdW  Elec       q    Type
REMARK                         _______ _______ _______ _____ _____    ______ ____
ROOT
ATOM      1  C   UNL     1       1.011  -2.043   4.805  0.00  0.00    -0.009 C 
ENDROOT
BRANCH   1   9
ATOM      2  C   UNL     1      -1.447  -3.519  -0.622  0.00  0.00    +0.045 C 
ATOM      3  C   UNL     1      -1.914  -3.776   0.788  0.00  0.00    -0.029 A 
ATOM      4  C   UNL     1      -2.882  -4.701   1.019  0.00  0.00    +0.005 A 
ATOM      5  C   UNL     1      -3.360  -4.987   2.299  0.00  0.00    +0.001 A 
ATOM      6  C   UNL     1      -2.875  -4.347   3.394  0.00  0.00    +0.009 A 
ATOM      7  C   UNL     1      -1.830  -3.338   3.217  0.00  0.00    -0.007 A 
ATOM      8  C   UNL     1      -1.313  -2.671   4.287  0.00  0.00    -0.006 C 
ATOM      9  C   UNL     1      -0.234  -1.643   4.010  0.00  0.00    +0.088 C 
ATOM     10  C   UNL     1       0.181  -1.441   2.570  0.00  0.00    +0.223 C 
ATOM     11  O   UNL     1       1.043  -0.629   2.291  0.00  0.00    -0.275 OA
ATOM     12  N   UNL     1      -0.396  -2.152   1.616  0.00  0.00    -0.284 N 
ATOM     13  C   UNL     1      -1.341  -3.060   1.855  0.00  0.00    +0.043 A 
ATOM     14  H   UNL     1      -0.115  -2.007   0.699  0.00  0.00    +0.155 HD
ENDBRANCH   1   9
BRANCH   1  15
ATOM     15  C   UNL     1       2.233  -1.316   4.240  0.00  0.00    +0.205 C 
ATOM     16  N   UNL     1       3.405  -1.535   5.086  0.00  0.00    -0.152 NA
ATOM     17  N   UNL     1       3.982  -0.461   5.280  0.00  0.00    -0.070 NA
ATOM     18  N   UNL     1       3.325   0.560   4.586  0.00  0.00    -0.179 N 
ATOM     19  N   UNL     1       2.053   0.141   4.312  0.00  0.00    -0.185 NA
ATOM     20  H   UNL     1       3.707   1.418   4.341  0.00  0.00    +0.191 HD
BRANCH  19  21
ATOM     21  C   UNL     1       1.134   0.505   5.399  0.00  0.00    +0.080 C 
ATOM     22  C   UNL     1       0.585   1.912   5.153  0.00  0.00    +0.021 C 
ATOM     23  C   UNL     1      -0.372   2.291   6.285  0.00  0.00    +0.002 C 
ATOM     24  C   UNL     1       0.378   2.262   7.618  0.00  0.00    +0.000 C 
ATOM     25  C   UNL     1       0.926   0.855   7.864  0.00  0.00    +0.002 C 
ATOM     26  C   UNL     1       1.884   0.476   6.732  0.00  0.00    +0.021 C 
ENDBRANCH  19  21
ENDBRANCH   1  15
BRANCH   1  27
ATOM     27  N   UNL     1       0.830  -1.673   6.216  0.00  0.00    +0.391 N 
ATOM     28  H   UNL     1       1.077  -0.703   6.344  0.00  0.00    -0.080 HD
BRANCH  27  29
ATOM     29  C   UNL     1       1.695  -2.513   7.056  0.00  0.00    -0.002 C 
BRANCH  29  30
ATOM     30  C   UNL     1       3.139  -2.215   6.746  0.00  0.00    +0.089 A 
ATOM     31  C   UNL     1       3.858  -1.196   7.249  0.00  0.00    +0.042 A 
ATOM     32  C   UNL     1       5.154  -1.295   6.694  0.00  0.00    +0.041 A 
ATOM     33  C   UNL     1       5.150  -2.370   5.884  0.00  0.00    +0.195 A 
ATOM     34  O   UNL     1       3.929  -2.926   5.924  0.00  0.00    -0.470 OA
ENDBRANCH  29  30
ENDBRANCH  27  29
BRANCH  27  35
ATOM     35  C   UNL     1      -0.573  -1.877   6.600  0.00  0.00    -0.046 C 
BRANCH  35  36
ATOM     36  C   UNL     1      -1.414  -0.702   6.099  0.00  0.00    +0.102 C 
ATOM     37  C   UNL     1      -2.778  -0.662   6.814  0.00  0.00    +0.032 C 
ATOM     38  C   UNL     1      -3.582   0.211   5.849  0.00  0.00    +0.030 C 
ATOM     39  C   UNL     1      -2.900  -0.015   4.505  0.00  0.00    +0.160 C 
ATOM     40  O   UNL     1      -1.786  -0.889   4.718  0.00  0.00    -0.378 OA
ENDBRANCH  35  36
ENDBRANCH  27  35
ENDBRANCH   1  27
TORSDOF 8
