REMARK  Name = ZINC06220597
REMARK  4 active torsions:
REMARK  status: ('A' for Active; 'I' for Inactive)
REMARK    1  A    between atoms: C_3  and  N_8
REMARK    2  A    between atoms: N_10  and  C_20
REMARK    3  A    between atoms: C_14  and  C_17
REMARK    4  A    between atoms: C_20  and  C_21
REMARK                            x       y       z     vdW  Elec       q    Type
REMARK                         _______ _______ _______ _____ _____    ______ ____
ROOT
ATOM      1  N   UNL     1       3.563   2.106  -0.021  0.00  0.00    -0.226 NA
ATOM      2  C   UNL     1       4.545   1.746   0.771  0.00  0.00    +0.164 C 
ATOM      3  N   UNL     1       5.745   2.434   0.791  0.00  0.00    -0.246 N 
ATOM      4  C   UNL     1       6.866   1.964   1.316  0.00  0.00    +0.223 C 
ATOM      5  O   UNL     1       7.857   2.638   1.131  0.00  0.00    -0.275 OA
ATOM      6  C   UNL     1       7.071   0.717   2.105  0.00  0.00    +0.120 C 
ATOM      7  C   UNL     1       6.057  -0.373   1.751  0.00  0.00    +0.148 C 
ATOM      8  S   UNL     1       4.387   0.361   1.866  0.00  0.00    -0.077 S 
ENDROOT
BRANCH   1  11
ATOM      9  C   UNL     1      -0.017   1.379   0.010  0.00  0.00    +0.003 A 
ATOM     10  C   UNL     1       1.167   2.088   0.002  0.00  0.00    +0.028 A 
ATOM     11  C   UNL     1       2.385   1.408  -0.013  0.00  0.00    +0.068 A 
ATOM     12  C   UNL     1       2.398   0.011  -0.021  0.00  0.00    +0.047 A 
ATOM     13  C   UNL     1       1.207  -0.686  -0.013  0.00  0.00    +0.043 A 
ATOM     14  C   UNL     1       0.002  -0.004   0.002  0.00  0.00    +0.020 A 
ATOM     15 CL   UNL     1       1.220  -2.422  -0.022  0.00  0.00    -0.083 Cl
ENDBRANCH   1  11
BRANCH   7  16
ATOM     16  C   UNL     1       6.179  -1.518   2.724  0.00  0.00    +0.224 C 
ATOM     17  O   UNL     1       6.452  -1.300   3.885  0.00  0.00    -0.275 OA
ATOM     18  N   UNL     1       5.984  -2.783   2.303  0.00  0.00    -0.328 N 
ATOM     19  H   UNL     1       5.765  -2.957   1.374  0.00  0.00    +0.145 HD
ATOM     20  H   UNL     1       6.062  -3.520   2.929  0.00  0.00    +0.145 HD
ENDBRANCH   7  16
BRANCH   3  21
ATOM     21  C   UNL     1       5.777   3.771   0.191  0.00  0.00    +0.150 C 
BRANCH  21  22
ATOM     22  C   UNL     1       5.440   4.800   1.238  0.00  0.00    -0.030 A 
ATOM     23  C   UNL     1       4.125   5.171   1.444  0.00  0.00    +0.006 A 
ATOM     24  C   UNL     1       3.815   6.115   2.405  0.00  0.00    +0.020 A 
ATOM     25  C   UNL     1       4.822   6.689   3.160  0.00  0.00    +0.041 A 
ATOM     26  C   UNL     1       6.138   6.317   2.954  0.00  0.00    +0.020 A 
ATOM     27  C   UNL     1       6.446   5.369   1.997  0.00  0.00    +0.006 A 
ATOM     28 CL   UNL     1       4.434   7.875   4.367  0.00  0.00    -0.084 Cl
ENDBRANCH  21  22
ENDBRANCH   3  21
TORSDOF 4
