REMARK  Name = ZINC65735374
REMARK  6 active torsions:
REMARK  status: ('A' for Active; 'I' for Inactive)
REMARK    1  A    between atoms: C_1  and  C_2
REMARK    2  A    between atoms: C_2  and  C_3
REMARK    3  A    between atoms: C_12  and  C_14
REMARK    4  A    between atoms: C_14  and  N_15
REMARK    5  A    between atoms: C_17  and  N_21
REMARK    6  A    between atoms: C_19  and  C_20
REMARK                            x       y       z     vdW  Elec       q    Type
REMARK                         _______ _______ _______ _____ _____    ______ ____
ROOT
ATOM      1  C   UNL     1       0.718  -0.497  -1.257  0.00  0.00    -0.006 C 
ATOM      2  C   UNL     1       0.646  -2.026  -1.323  0.00  0.00    +0.010 C 
ATOM      3  C   UNL     1       1.137  -2.518  -2.686  0.00  0.00    +0.056 C 
ATOM      4  C   UNL     1       2.507  -1.912  -2.959  0.00  0.00    +0.054 A 
ATOM      5  C   UNL     1       2.929  -0.821  -2.270  0.00  0.00    +0.015 A 
ATOM      6  S   UNL     1       4.538  -0.534  -2.950  0.00  0.00    -0.057 S 
ATOM      7  C   UNL     1       4.544  -1.813  -4.047  0.00  0.00    +0.165 A 
ATOM      8  N   UNL     1       3.372  -2.377  -3.855  0.00  0.00    -0.229 NA
ATOM      9  N   UNL     1       5.545  -2.182  -4.939  0.00  0.00    -0.263 N 
ATOM     10  C   UNL     1       5.368  -3.246  -5.747  0.00  0.00    +0.238 C 
ATOM     11  O   UNL     1       4.337  -3.881  -5.696  0.00  0.00    -0.273 OA
ATOM     12  C   UNL     1       2.195  -0.072  -1.210  0.00  0.00    +0.048 C 
ATOM     13  H   UNL     1       6.370  -1.673  -4.979  0.00  0.00    +0.157 HD
ENDROOT
BRANCH   1  15
ATOM     14  C   UNL     1      -0.019   1.526   0.010  0.00  0.00    +0.004 C 
ATOM     15  C   UNL     1       0.002  -0.004   0.002  0.00  0.00    +0.000 C 
ENDBRANCH   1  15
BRANCH  10  16
ATOM     16  C   UNL     1       6.453  -3.646  -6.714  0.00  0.00    +0.219 C 
BRANCH  16  17
ATOM     17  N   UNL     1       6.022  -4.823  -7.472  0.00  0.00    -0.323 N 
ATOM     18  C   UNL     1       6.301  -6.129  -7.173  0.00  0.00    +0.141 A 
ATOM     19  C   UNL     1       5.715  -6.881  -8.123  0.00  0.00    +0.233 A 
ATOM     20  N   UNL     1       5.094  -6.056  -8.980  0.00  0.00    -0.210 NA
ATOM     21  C   UNL     1       5.269  -4.822  -8.593  0.00  0.00    +0.110 A 
ATOM     22  C   UNL     1       4.726  -3.599  -9.286  0.00  0.00    +0.086 C 
BRANCH  19  23
ATOM     23  N   UNL     1       5.749  -8.358  -8.208  0.00  0.00    +0.077 N 
ATOM     24  O   UNL     1       6.344  -8.998  -7.373  0.00  0.00    -0.125 OA
ATOM     25  O   UNL     1       5.181  -8.925  -9.113  0.00  0.00    -0.125 OA
ENDBRANCH  19  23
ENDBRANCH  16  17
ENDBRANCH  10  16
TORSDOF 4
