REMARK  Name = ZINC43527192
REMARK  10 active torsions:
REMARK  status: ('A' for Active; 'I' for Inactive)
REMARK    1  A    between atoms: C_1  and  O_2
REMARK    2  A    between atoms: O_2  and  C_3
REMARK    3  A    between atoms: C_3  and  C_4
REMARK    4  A    between atoms: C_4  and  N_5
REMARK    5  A    between atoms: N_5  and  C_6
REMARK    6  A    between atoms: C_6  and  N_8
REMARK    7  A    between atoms: N_8  and  C_9
REMARK    8  A    between atoms: C_9  and  C_10
REMARK    9  A    between atoms: C_19  and  C_21
REMARK   10  A    between atoms: C_21  and  N_22
REMARK                            x       y       z     vdW  Elec       q    Type
REMARK                         _______ _______ _______ _____ _____    ______ ____
ROOT
ATOM      1  C   UNL     1      -4.148  -5.934  -1.160  0.00  0.00    -0.051 C 
ATOM      2  C   UNL     1      -4.473  -7.417  -0.967  0.00  0.00    -0.010 C 
ATOM      3  C   UNL     1      -5.398  -7.567   0.247  0.00  0.00    -0.015 C 
ATOM      4  C   UNL     1      -4.674  -7.009   1.480  0.00  0.00    -0.015 C 
ATOM      5  C   UNL     1      -4.323  -5.542   1.224  0.00  0.00    -0.078 C 
ATOM      6  N   UNL     1      -4.820  -5.138  -0.129  0.00  0.00    +0.383 N 
ATOM      7  C   UNL     1      -6.274  -5.286  -0.229  0.00  0.00    -0.076 C 
ATOM      8  C   UNL     1      -6.668  -6.745  -0.007  0.00  0.00    -0.041 C 
ATOM      9  H   UNL     1      -4.594  -4.166  -0.279  0.00  0.00    -0.081 HD
ENDROOT
BRANCH   1  10
ATOM     10  C   UNL     1      -2.636  -5.727  -1.056  0.00  0.00    +0.088 C 
BRANCH  10  11
ATOM     11  N   UNL     1      -2.333  -4.295  -1.126  0.00  0.00    -0.328 N 
ATOM     12  H   UNL     1      -3.052  -3.651  -1.224  0.00  0.00    +0.148 HD
BRANCH  11  13
ATOM     13  C   UNL     1      -1.055  -3.873  -1.054  0.00  0.00    +0.130 C 
ATOM     14  S   UNL     1       0.214  -5.009  -0.882  0.00  0.00    -0.019 S 
BRANCH  13  15
ATOM     15  N   UNL     1      -0.776  -2.556  -1.119  0.00  0.00    -0.324 N 
ATOM     16  H   UNL     1      -1.495  -1.912  -1.217  0.00  0.00    +0.148 HD
BRANCH  15  17
ATOM     17  C   UNL     1       0.613  -2.097  -1.041  0.00  0.00    +0.131 C 
BRANCH  17  18
ATOM     18  C   UNL     1       0.652  -0.570  -1.138  0.00  0.00    +0.178 C 
BRANCH  18  20
ATOM     19  C   UNL     1      -0.017   1.425   0.010  0.00  0.00    +0.194 C 
ATOM     20  O   UNL     1       0.002  -0.004   0.002  0.00  0.00    -0.381 OA
ENDBRANCH  18  20
ENDBRANCH  17  18
ENDBRANCH  15  17
ENDBRANCH  13  15
ENDBRANCH  11  13
ENDBRANCH  10  11
ENDBRANCH   1  10
BRANCH   8  21
ATOM     21  C   UNL     1      -7.596  -6.846   1.206  0.00  0.00    -0.077 C 
BRANCH  21  22
ATOM     22  N   UNL     1      -8.861  -6.158   0.913  0.00  0.00    +0.380 N 
ATOM     23  C   UNL     1      -9.697  -6.144   2.117  0.00  0.00    -0.074 C 
ATOM     24  C   UNL     1     -11.021  -5.441   1.858  0.00  0.00    -0.007 C 
ATOM     25  C   UNL     1     -11.761  -6.095   0.687  0.00  0.00    +0.011 C 
ATOM     26  C   UNL     1     -10.823  -6.059  -0.526  0.00  0.00    +0.020 C 
ATOM     27  C   UNL     1      -9.560  -6.862  -0.172  0.00  0.00    -0.069 C 
ATOM     28  C   UNL     1     -10.408  -4.628  -0.787  0.00  0.00    +0.023 A 
ATOM     29  C   UNL     1     -10.107  -4.285  -2.067  0.00  0.00    +0.022 A 
ATOM     30  C   UNL     1      -9.654  -2.997  -2.370  0.00  0.00    +0.007 A 
ATOM     31  C   UNL     1      -9.496  -2.098  -1.356  0.00  0.00    +0.070 A 
ATOM     32  C   UNL     1      -9.812  -2.485  -0.046  0.00  0.00    +0.251 A 
ATOM     33  O   UNL     1      -9.617  -1.711   0.877  0.00  0.00    -0.268 OA
ATOM     34  N   UNL     1     -10.333  -3.711   0.206  0.00  0.00    -0.312 N 
ATOM     35  C   UNL     1     -10.827  -3.965   1.556  0.00  0.00    +0.126 C 
ATOM     36  H   UNL     1      -8.668  -5.209   0.629  0.00  0.00    -0.082 HD
ENDBRANCH  21  22
ENDBRANCH   8  21
TORSDOF 9
