REMARK  Name = ZINC30984702
REMARK  8 active torsions:
REMARK  status: ('A' for Active; 'I' for Inactive)
REMARK    1  A    between atoms: C_1  and  C_2
REMARK    2  A    between atoms: C_9  and  C_35
REMARK    3  A    between atoms: C_9  and  C_36
REMARK    4  A    between atoms: C_11  and  N_13
REMARK    5  A    between atoms: C_14  and  C_16
REMARK    6  A    between atoms: N_19  and  C_22
REMARK    7  A    between atoms: C_22  and  C_23
REMARK    8  A    between atoms: C_25  and  C_28
REMARK                            x       y       z     vdW  Elec       q    Type
REMARK                         _______ _______ _______ _____ _____    ______ ____
ROOT
ATOM      1  C   UNL     1       3.732   1.452  -0.695  0.00  0.00    +0.071 C 
ATOM      2  C   UNL     1       3.756   2.856  -1.305  0.00  0.00    -0.006 C 
ATOM      3  C   UNL     1       5.201   3.355  -1.369  0.00  0.00    -0.077 C 
ATOM      4  N   UNL     1       6.003   2.434  -2.185  0.00  0.00    +0.386 N 
ATOM      5  C   UNL     1       6.034   1.091  -1.594  0.00  0.00    -0.077 C 
ATOM      6  C   UNL     1       4.613   0.524  -1.536  0.00  0.00    -0.006 C 
ATOM      7  H   UNL     1       5.522   2.355  -3.172  0.00  0.00    -0.081 HD
ENDROOT
BRANCH   1   9
ATOM      8  N   UNL     1       1.362   1.592  -0.002  0.00  0.00    -0.308 N 
ATOM      9  C   UNL     1       2.318   0.931  -0.685  0.00  0.00    +0.216 C 
ATOM     10  O   UNL     1       2.041  -0.082  -1.290  0.00  0.00    -0.276 OA
ATOM     11  H   UNL     1       1.614   2.511   0.546  0.00  0.00    +0.149 HD
BRANCH   8  22
ATOM     12  C   UNL     1      -2.713   2.966  -4.751  0.00  0.00    +0.044 C 
ATOM     13  C   UNL     1      -2.018   2.480  -3.505  0.00  0.00    -0.047 A 
ATOM     14  C   UNL     1      -0.715   2.022  -3.574  0.00  0.00    +0.004 A 
ATOM     15  C   UNL     1      -0.079   1.576  -2.433  0.00  0.00    +0.009 A 
ATOM     16  C   UNL     1      -0.740   1.584  -1.215  0.00  0.00    +0.015 A 
ATOM     17  C   UNL     1      -2.042   2.045  -1.143  0.00  0.00    +0.126 A 
ATOM     18  C   UNL     1      -2.680   2.492  -2.295  0.00  0.00    +0.049 A 
ATOM     19  O   UNL     1      -2.726   2.076   0.031  0.00  0.00    -0.486 OA
ATOM     20  C   UNL     1      -2.227   1.292   1.115  0.00  0.00    +0.107 C 
ATOM     21  C   UNL     1      -0.728   1.579   1.269  0.00  0.00    +0.074 C 
ATOM     22  C   UNL     1      -0.013   1.086   0.008  0.00  0.00    +0.110 C 
ATOM     23  C   UNL     1      -2.440  -0.194   0.819  0.00  0.00    +0.055 C 
ATOM     24  C   UNL     1      -2.958   1.670   2.405  0.00  0.00    +0.055 C 
ENDBRANCH   8  22
ENDBRANCH   1   9
BRANCH   4  25
ATOM     25  C   UNL     1       7.362   2.954  -2.384  0.00  0.00    +0.022 C 
BRANCH  25  26
ATOM     26  C   UNL     1       7.303   4.213  -3.209  0.00  0.00    +0.211 A 
ATOM     27  N   UNL     1       7.183   5.436  -2.754  0.00  0.00    -0.193 NA
ATOM     28  C   UNL     1       7.175   6.231  -3.848  0.00  0.00    +0.203 A 
ATOM     29  N   UNL     1       7.290   5.452  -4.892  0.00  0.00    -0.056 NA
ATOM     30  O   UNL     1       7.370   4.294  -4.541  0.00  0.00    -0.340 OA
BRANCH  28  31
ATOM     31  C   UNL     1       7.057   7.710  -3.861  0.00  0.00    +0.041 A 
ATOM     32  C   UNL     1       6.934   8.412  -2.664  0.00  0.00    +0.013 A 
ATOM     33  C   UNL     1       6.830   9.788  -2.681  0.00  0.00    +0.001 A 
ATOM     34  C   UNL     1       6.837  10.471  -3.885  0.00  0.00    +0.001 A 
ATOM     35  C   UNL     1       6.954   9.780  -5.077  0.00  0.00    +0.021 A 
ATOM     36  C   UNL     1       7.064   8.402  -5.071  0.00  0.00    +0.052 A 
ATOM     37 CL   UNL     1       7.209   7.535  -6.568  0.00  0.00    -0.083 Cl
ENDBRANCH  28  31
ENDBRANCH  25  26
ENDBRANCH   4  25
TORSDOF 5
