REMARK  Name = ZINC14902523
REMARK  6 active torsions:
REMARK  status: ('A' for Active; 'I' for Inactive)
REMARK    1  A    between atoms: C_4  and  C_7
REMARK    2  A    between atoms: N_14  and  C_17
REMARK    3  A    between atoms: C_17  and  C_18
REMARK    4  A    between atoms: C_21  and  C_23
REMARK    5  A    between atoms: C_23  and  O_24
REMARK    6  A    between atoms: O_24  and  C_25
REMARK                            x       y       z     vdW  Elec       q    Type
REMARK                         _______ _______ _______ _____ _____    ______ ____
ROOT
ATOM      1  C   UNL     1      -9.269   1.953   2.081  0.00  0.00    +0.004 A 
ATOM      2  C   UNL     1      -9.710   0.805   2.651  0.00  0.00    +0.056 A 
ATOM      3  S   UNL     1      -8.391   0.365   3.765  0.00  0.00    -0.076 S 
ATOM      4  C   UNL     1      -7.289   1.717   3.444  0.00  0.00    +0.116 A 
ATOM      5  C   UNL     1      -7.969   2.479   2.480  0.00  0.00    +0.080 A 
ATOM      6  C   UNL     1      -7.294   3.660   2.034  0.00  0.00    +0.263 A 
ATOM      7  O   UNL     1      -7.807   4.389   1.202  0.00  0.00    -0.267 OA
ATOM      8  N   UNL     1      -6.083   3.951   2.543  0.00  0.00    -0.293 N 
ATOM      9  C   UNL     1      -5.500   3.154   3.475  0.00  0.00    +0.203 A 
ATOM     10  N   UNL     1      -6.093   2.073   3.905  0.00  0.00    -0.230 NA
ENDROOT
BRANCH   1  14
ATOM     11  C   UNL     1     -11.631   3.979  -0.815  0.00  0.00    +0.000 A 
ATOM     12  C   UNL     1     -11.390   2.624  -0.949  0.00  0.00    +0.001 A 
ATOM     13  C   UNL     1     -10.624   1.960  -0.012  0.00  0.00    +0.008 A 
ATOM     14  C   UNL     1     -10.092   2.660   1.071  0.00  0.00    -0.017 A 
ATOM     15  C   UNL     1     -10.342   4.025   1.203  0.00  0.00    +0.008 A 
ATOM     16  C   UNL     1     -11.105   4.678   0.257  0.00  0.00    +0.001 A 
ENDBRANCH   1  14
BRANCH   8  17
ATOM     17  C   UNL     1      -5.383   5.155   2.089  0.00  0.00    +0.182 C 
BRANCH  17  18
ATOM     18  C   UNL     1      -4.521   4.816   0.900  0.00  0.00    +0.069 A 
ATOM     19  C   UNL     1      -4.978   5.003  -0.365  0.00  0.00    +0.072 A 
ATOM     20  S   UNL     1      -3.563   4.451  -1.308  0.00  0.00    -0.077 S 
ATOM     21  C   UNL     1      -2.547   4.033   0.036  0.00  0.00    +0.116 A 
ATOM     22  N   UNL     1      -3.308   4.332   1.063  0.00  0.00    -0.244 NA
BRANCH  21  23
ATOM     23  C   UNL     1      -1.147   3.475   0.026  0.00  0.00    +0.291 C 
BRANCH  23  24
ATOM     24  O   UNL     1      -1.203   2.047   0.019  0.00  0.00    -0.485 OA
BRANCH  24  25
ATOM     25  C   UNL     1      -0.017   1.383   0.010  0.00  0.00    +0.121 A 
ATOM     26  C   UNL     1       1.176   2.091   0.002  0.00  0.00    +0.048 A 
ATOM     27  C   UNL     1       2.380   1.415  -0.013  0.00  0.00    +0.042 A 
ATOM     28  C   UNL     1       2.397   0.031  -0.020  0.00  0.00    +0.124 A 
ATOM     29  C   UNL     1       1.208  -0.678  -0.013  0.00  0.00    +0.042 A 
ATOM     30  C   UNL     1       0.002  -0.004   0.002  0.00  0.00    +0.048 A 
ATOM     31  F   UNL     1       3.576  -0.629  -0.034  0.00  0.00    -0.205 F 
ENDBRANCH  24  25
ENDBRANCH  23  24
ENDBRANCH  21  23
ENDBRANCH  17  18
ENDBRANCH   8  17
TORSDOF 6
