REMARK  Name = ZINC58411857
REMARK  3 active torsions:
REMARK  status: ('A' for Active; 'I' for Inactive)
REMARK    1  A    between atoms: C_6  and  S_7
REMARK    2  A    between atoms: S_7  and  N_10
REMARK    3  A    between atoms: N_10  and  C_11
REMARK                            x       y       z     vdW  Elec       q    Type
REMARK                         _______ _______ _______ _____ _____    ______ ____
ROOT
ATOM      1  N   UNL     1      -1.457  -1.758  -1.413  0.00  0.00    -0.184 NA
ATOM      2  H   UNL     1      -2.093  -1.556  -2.117  0.00  0.00    +0.149 HD
ENDROOT
BRANCH   1   3
ATOM      3  C   UNL     1      -0.467  -2.821  -1.603  0.00  0.00    +0.041 C 
ATOM      4  C   UNL     1      -0.748  -3.961  -0.623  0.00  0.00    +0.027 C 
ATOM      5  C   UNL     1       0.286  -5.071  -0.821  0.00  0.00    -0.009 C 
ATOM      6  C   UNL     1       0.199  -5.598  -2.255  0.00  0.00    +0.007 C 
ATOM      7  C   UNL     1       0.481  -4.458  -3.235  0.00  0.00    -0.009 C 
ATOM      8  C   UNL     1      -0.553  -3.348  -3.037  0.00  0.00    +0.027 C 
ATOM      9  C   UNL     1       1.883  -3.901  -2.980  0.00  0.00    +0.007 C 
ATOM     10  C   UNL     1       1.969  -3.374  -1.546  0.00  0.00    -0.009 C 
ATOM     11  C   UNL     1       1.688  -4.514  -0.566  0.00  0.00    +0.007 C 
ATOM     12  C   UNL     1       0.935  -2.264  -1.348  0.00  0.00    +0.027 C 
ENDBRANCH   1   3
BRANCH   1  13
ATOM     13  S   UNL     1      -1.489  -0.900   0.003  0.00  0.00    +0.062 S 
ATOM     14  O   UNL     1      -2.592  -0.008  -0.088  0.00  0.00    -0.153 OA
ATOM     15  O   UNL     1      -0.162  -0.449   0.235  0.00  0.00    -0.153 OA
BRANCH  13  21
ATOM     16  C   UNL     1      -0.948  -2.290   2.299  0.00  0.00    +0.034 A 
ATOM     17  C   UNL     1      -1.288  -3.193   3.295  0.00  0.00    +0.042 A 
ATOM     18  C   UNL     1      -2.526  -3.810   3.251  0.00  0.00    +0.131 A 
ATOM     19  N   UNL     1      -3.377  -3.547   2.278  0.00  0.00    -0.222 NA
ATOM     20  C   UNL     1      -3.087  -2.693   1.314  0.00  0.00    +0.157 A 
ATOM     21  C   UNL     1      -1.868  -2.039   1.293  0.00  0.00    +0.142 A 
ATOM     22 CL   UNL     1      -4.247  -2.388   0.059  0.00  0.00    -0.060 Cl
ATOM     23 CL   UNL     1      -2.963  -4.943   4.492  0.00  0.00    -0.062 Cl
ENDBRANCH  13  21
ENDBRANCH   1  13
TORSDOF 3
