REMARK  Name = ZINC09562730
REMARK  9 active torsions:
REMARK  status: ('A' for Active; 'I' for Inactive)
REMARK    1  A    between atoms: C_4  and  C_7
REMARK    2  A    between atoms: C_7  and  N_8
REMARK    3  A    between atoms: C_12  and  C_14
REMARK    4  A    between atoms: C_14  and  O_15
REMARK    5  A    between atoms: O_15  and  C_16
REMARK    6  A    between atoms: C_16  and  C_18
REMARK    7  A    between atoms: C_19  and  C_27
REMARK    8  A    between atoms: C_27  and  S_28
REMARK    9  A    between atoms: S_28  and  C_29
REMARK                            x       y       z     vdW  Elec       q    Type
REMARK                         _______ _______ _______ _____ _____    ______ ____
ROOT
ATOM      1  C   UNL     1       0.141  -6.189   5.735  0.00  0.00    +0.376 C 
ATOM      2  O   UNL     1       0.141  -5.532   6.758  0.00  0.00    -0.241 OA
ENDROOT
BRANCH   1   3
ATOM      3  C   UNL     1       0.161  -7.655   5.803  0.00  0.00    +0.217 A 
ATOM      4  C   UNL     1       0.182  -8.384   6.950  0.00  0.00    +0.022 A 
ATOM      5  C   UNL     1       0.197  -9.787   6.538  0.00  0.00    +0.025 A 
ATOM      6  C   UNL     1       0.220 -11.004   7.224  0.00  0.00    +0.012 A 
ATOM      7  C   UNL     1       0.230 -12.176   6.524  0.00  0.00    +0.001 A 
ATOM      8  C   UNL     1       0.216 -12.166   5.135  0.00  0.00    +0.004 A 
ATOM      9  C   UNL     1       0.194 -10.977   4.439  0.00  0.00    +0.047 A 
ATOM     10  C   UNL     1       0.184  -9.771   5.130  0.00  0.00    +0.136 A 
ATOM     11  O   UNL     1       0.157  -8.483   4.737  0.00  0.00    -0.448 OA
BRANCH   4  12
ATOM     12  C   UNL     1       0.189  -7.854   8.361  0.00  0.00    +0.108 C 
BRANCH  12  13
ATOM     13  S   UNL     1      -1.519  -7.665   8.944  0.00  0.00    -0.161 S 
BRANCH  13  14
ATOM     14  C   UNL     1      -1.338  -7.028  10.632  0.00  0.00    +0.048 C 
ATOM     15  C   UNL     1       0.039  -7.205  12.631  0.00  0.00    -0.069 C 
ATOM     16  C   UNL     1       0.669  -5.861  12.180  0.00  0.00    +0.049 C 
ATOM     17  S   UNL     1      -0.309  -5.497  10.662  0.00  0.00    -0.168 S 
ATOM     18  N   UNL     1      -0.494  -7.941  11.466  0.00  0.00    +0.393 N 
ATOM     19  H   UNL     1       0.286  -8.295  10.900  0.00  0.00    -0.083 HD
ATOM     20  H   UNL     1      -1.065  -8.729  11.793  0.00  0.00    -0.083 HD
ENDBRANCH  13  14
ENDBRANCH  12  13
ENDBRANCH   4  12
ENDBRANCH   1   3
BRANCH   1  21
ATOM     21  O   UNL     1       0.121  -5.570   4.537  0.00  0.00    -0.450 OA
BRANCH  21  22
ATOM     22  C   UNL     1       0.101  -4.118   4.545  0.00  0.00    +0.328 C 
BRANCH  22  27
ATOM     23  N   UNL     1       0.022  -0.500   1.381  0.00  0.00    -0.295 N 
ATOM     24  C   UNL     1       0.042  -1.826   1.619  0.00  0.00    +0.306 C 
ATOM     25  O   UNL     1       0.044  -2.611   0.691  0.00  0.00    -0.252 OA
ATOM     26  N   UNL     1       0.060  -2.282   2.888  0.00  0.00    -0.237 N 
ATOM     27  C   UNL     1       0.081  -3.608   3.127  0.00  0.00    +0.258 C 
ATOM     28  O   UNL     1       0.083  -4.391   2.201  0.00  0.00    -0.272 OA
ATOM     29  H   UNL     1       0.020   0.127   2.121  0.00  0.00    +0.151 HD
ATOM     30  H   UNL     1       0.059  -1.656   3.628  0.00  0.00    +0.159 HD
BRANCH  23  31
ATOM     31  C   UNL     1       0.002  -0.004   0.002  0.00  0.00    +0.141 C 
BRANCH  31  35
ATOM     32  C   UNL     1      -0.056   4.267   0.025  0.00  0.00    +0.000 A 
ATOM     33  C   UNL     1       1.151   3.592   0.010  0.00  0.00    +0.000 A 
ATOM     34  C   UNL     1       1.169   2.210   0.003  0.00  0.00    +0.005 A 
ATOM     35  C   UNL     1      -0.018   1.503   0.010  0.00  0.00    -0.030 A 
ATOM     36  C   UNL     1      -1.225   2.178   0.020  0.00  0.00    +0.005 A 
ATOM     37  C   UNL     1      -1.244   3.560   0.032  0.00  0.00    +0.000 A 
ENDBRANCH  31  35
ENDBRANCH  23  31
ENDBRANCH  22  27
ENDBRANCH  21  22
ENDBRANCH   1  21
TORSDOF 9
