REMARK  Name = ZINC63180120
REMARK  7 active torsions:
REMARK  status: ('A' for Active; 'I' for Inactive)
REMARK    1  A    between atoms: C_1  and  C_2
REMARK    2  A    between atoms: N_10  and  N_11
REMARK    3  A    between atoms: C_12  and  C_14
REMARK    4  A    between atoms: C_14  and  C_15
REMARK    5  A    between atoms: C_15  and  C_16
REMARK    6  A    between atoms: C_18  and  C_27
REMARK    7  A    between atoms: C_19  and  C_21
REMARK                            x       y       z     vdW  Elec       q    Type
REMARK                         _______ _______ _______ _____ _____    ______ ____
ROOT
ATOM      1  C   UNL     1       6.913  -4.525  -2.216  0.00  0.00    +0.105 C 
ENDROOT
BRANCH   1   2
ATOM      2  C   UNL     1       7.548  -5.191  -3.410  0.00  0.00    +0.197 A 
ATOM      3  N   UNL     1       8.485  -4.672  -4.149  0.00  0.00    -0.213 NA
ATOM      4  C   UNL     1       8.809  -5.549  -5.123  0.00  0.00    +0.117 A 
ATOM      5  C   UNL     1       8.011  -6.660  -4.948  0.00  0.00    +0.163 A 
ATOM      6  O   UNL     1       7.237  -6.411  -3.869  0.00  0.00    -0.439 OA
BRANCH   5   7
ATOM      7  C   UNL     1       8.007  -7.883  -5.774  0.00  0.00    +0.019 A 
ATOM      8  C   UNL     1       9.210  -8.511  -6.104  0.00  0.00    +0.011 A 
ATOM      9  C   UNL     1       9.199  -9.654  -6.877  0.00  0.00    +0.001 A 
ATOM     10  C   UNL     1       7.999 -10.178  -7.324  0.00  0.00    +0.000 A 
ATOM     11  C   UNL     1       6.803  -9.562  -7.001  0.00  0.00    +0.001 A 
ATOM     12  C   UNL     1       6.799  -8.422  -6.224  0.00  0.00    +0.011 A 
ENDBRANCH   5   7
BRANCH   4  13
ATOM     13  C   UNL     1       9.829  -5.354  -6.179  0.00  0.00    +0.004 A 
ATOM     14  C   UNL     1       9.559  -5.736  -7.493  0.00  0.00    +0.010 A 
ATOM     15  C   UNL     1      10.512  -5.551  -8.473  0.00  0.00    +0.001 A 
ATOM     16  C   UNL     1      11.735  -4.988  -8.154  0.00  0.00    +0.000 A 
ATOM     17  C   UNL     1      12.010  -4.607  -6.853  0.00  0.00    +0.001 A 
ATOM     18  C   UNL     1      11.062  -4.782  -5.865  0.00  0.00    +0.010 A 
ENDBRANCH   4  13
ENDBRANCH   1   2
BRANCH   1  19
ATOM     19  C   UNL     1       5.693  -3.721  -2.670  0.00  0.00    +0.106 C 
BRANCH  19  21
ATOM     20  N   UNL     1       3.961  -2.288  -1.637  0.00  0.00    -0.234 N 
ATOM     21  C   UNL     1       5.059  -3.054  -1.477  0.00  0.00    +0.230 C 
ATOM     22  O   UNL     1       5.535  -3.207  -0.372  0.00  0.00    -0.274 OA
ATOM     23  H   UNL     1       3.580  -2.166  -2.520  0.00  0.00    +0.173 HD
BRANCH  20  32
ATOM     24  C   UNL     1       0.047   2.168  -1.149  0.00  0.00    +0.044 C 
ATOM     25  C   UNL     1       0.063   0.658  -0.908  0.00  0.00    +0.210 C 
ATOM     26  C   UNL     1       0.688  -0.005  -2.122  0.00  0.00    +0.265 C 
ATOM     27  O   UNL     1       0.224   0.138  -3.235  0.00  0.00    -0.271 OA
ATOM     28  N   UNL     1       1.779  -0.756  -1.905  0.00  0.00    -0.145 NA
ATOM     29  C   UNL     1       2.262  -0.894  -0.689  0.00  0.00    +0.218 C 
ATOM     30  N   UNL     1       1.723  -0.312   0.417  0.00  0.00    -0.253 N 
ATOM     31  N   UNL     1       0.719   0.409   0.387  0.00  0.00    -0.197 NA
ATOM     32  N   UNL     1       3.372  -1.669  -0.527  0.00  0.00    -0.235 N 
ATOM     33  H   UNL     1       3.753  -1.791   0.356  0.00  0.00    +0.173 HD
ATOM     34  H   UNL     1       2.149  -0.472   1.274  0.00  0.00    +0.191 HD
ENDBRANCH  20  32
ENDBRANCH  19  21
ENDBRANCH   1  19
TORSDOF 6
