REMARK  Name = ZINC16607352
REMARK  10 active torsions:
REMARK  status: ('A' for Active; 'I' for Inactive)
REMARK    1  A    between atoms: C_1  and  C_2
REMARK    2  A    between atoms: N_4  and  C_35
REMARK    3  A    between atoms: C_7  and  C_9
REMARK    4  A    between atoms: C_9  and  C_12
REMARK    5  A    between atoms: N_10  and  O_11
REMARK    6  A    between atoms: C_15  and  C_18
REMARK    7  A    between atoms: C_18  and  C_21
REMARK    8  A    between atoms: N_19  and  O_20
REMARK    9  A    between atoms: N_25  and  C_29
REMARK   10  A    between atoms: C_27  and  C_28
REMARK                            x       y       z     vdW  Elec       q    Type
REMARK                         _______ _______ _______ _____ _____    ______ ____
ROOT
ATOM      1  C   UNL     1       1.791  -0.922   3.124  0.00  0.00    +0.001 A 
ATOM      2  C   UNL     1       1.115  -2.026   3.651  0.00  0.00    +0.010 A 
ATOM      3  C   UNL     1       1.416  -2.479   4.914  0.00  0.00    +0.010 A 
ATOM      4  C   UNL     1       2.399  -1.836   5.671  0.00  0.00    +0.001 A 
ATOM      5  C   UNL     1       3.076  -0.732   5.145  0.00  0.00    +0.010 A 
ATOM      6  C   UNL     1       2.778  -0.282   3.880  0.00  0.00    +0.010 A 
ENDROOT
BRANCH   1   7
ATOM      7  C   UNL     1       1.468  -0.436   1.769  0.00  0.00    +0.104 C 
ATOM      8  N   UNL     1       1.102  -1.272   0.852  0.00  0.00    -0.090 NA
BRANCH   7  15
ATOM      9  C   UNL     1       2.119   0.748  -1.170  0.00  0.00    +0.063 C 
ATOM     10  C   UNL     1       1.307   1.282  -0.018  0.00  0.00    +0.052 C 
ATOM     11  N   UNL     1       0.271   2.021  -0.101  0.00  0.00    -0.181 NA
ATOM     12  N   UNL     1      -0.265   2.354   1.140  0.00  0.00    -0.160 N 
ATOM     13  C   UNL     1       0.453   1.805   2.142  0.00  0.00    +0.254 C 
ATOM     14  O   UNL     1       0.251   1.902   3.334  0.00  0.00    -0.272 OA
ATOM     15  C   UNL     1       1.564   1.035   1.454  0.00  0.00    +0.175 C 
BRANCH  12  16
ATOM     16  C   UNL     1      -1.399   3.154   1.324  0.00  0.00    +0.060 A 
ATOM     17  C   UNL     1      -1.852   3.434   2.607  0.00  0.00    +0.025 A 
ATOM     18  C   UNL     1      -2.971   4.223   2.786  0.00  0.00    +0.002 A 
ATOM     19  C   UNL     1      -3.640   4.735   1.689  0.00  0.00    +0.000 A 
ATOM     20  C   UNL     1      -3.192   4.457   0.410  0.00  0.00    +0.002 A 
ATOM     21  C   UNL     1      -2.070   3.673   0.225  0.00  0.00    +0.025 A 
ENDBRANCH  12  16
ENDBRANCH   7  15
BRANCH   8  22
ATOM     22  O   UNL     1       1.132  -2.664   1.111  0.00  0.00    -0.409 OA
ATOM     23  H   UNL     1       0.841  -3.208   0.366  0.00  0.00    +0.328 HD
ENDBRANCH   8  22
ENDBRANCH   1   7
BRANCH   4  24
ATOM     24  C   UNL     1       2.721  -2.321   7.027  0.00  0.00    +0.104 C 
ATOM     25  N   UNL     1       3.931  -2.227   7.477  0.00  0.00    -0.090 NA
BRANCH  24  26
ATOM     26  C   UNL     1       1.642  -2.927   7.887  0.00  0.00    +0.175 C 
ATOM     27  C   UNL     1       0.637  -1.871   8.305  0.00  0.00    +0.254 C 
ATOM     28  O   UNL     1      -0.074  -1.202   7.586  0.00  0.00    -0.272 OA
ATOM     29  N   UNL     1       0.707  -1.837   9.653  0.00  0.00    -0.160 N 
ATOM     30  N   UNL     1       1.641  -2.751  10.130  0.00  0.00    -0.181 NA
ATOM     31  C   UNL     1       2.218  -3.414   9.200  0.00  0.00    +0.052 C 
ATOM     32  C   UNL     1       3.271  -4.478   9.375  0.00  0.00    +0.063 C 
BRANCH  29  33
ATOM     33  C   UNL     1      -0.060  -0.992  10.464  0.00  0.00    +0.060 A 
ATOM     34  C   UNL     1      -0.971  -0.115   9.890  0.00  0.00    +0.025 A 
ATOM     35  C   UNL     1      -1.726   0.716  10.694  0.00  0.00    +0.002 A 
ATOM     36  C   UNL     1      -1.575   0.677  12.068  0.00  0.00    +0.000 A 
ATOM     37  C   UNL     1      -0.668  -0.194  12.642  0.00  0.00    +0.002 A 
ATOM     38  C   UNL     1       0.086  -1.033  11.845  0.00  0.00    +0.025 A 
ENDBRANCH  29  33
ENDBRANCH  24  26
BRANCH  25  39
ATOM     39  O   UNL     1       4.969  -1.774   6.628  0.00  0.00    -0.409 OA
ATOM     40  H   UNL     1       5.837  -1.737   7.053  0.00  0.00    +0.328 HD
ENDBRANCH  25  39
ENDBRANCH   4  24
TORSDOF 8
