REMARK  Name = ZINC30848154
REMARK  6 active torsions:
REMARK  status: ('A' for Active; 'I' for Inactive)
REMARK    1  A    between atoms: C_1  and  C_2
REMARK    2  A    between atoms: C_6  and  O_9
REMARK    3  A    between atoms: C_7  and  C_8
REMARK    4  A    between atoms: O_9  and  C_10
REMARK    5  A    between atoms: C_10  and  C_12
REMARK    6  A    between atoms: C_10  and  C_13
REMARK                            x       y       z     vdW  Elec       q    Type
REMARK                         _______ _______ _______ _____ _____    ______ ____
ROOT
ATOM      1  C   UNL     1      -1.994   3.548   1.685  0.00  0.00    +0.261 C 
ATOM      2  O   UNL     1      -1.625   4.404   2.462  0.00  0.00    -0.271 OA
ATOM      3  N   UNL     1      -1.165   3.119   0.713  0.00  0.00    -0.258 N 
ATOM      4  C   UNL     1      -1.544   2.006  -0.175  0.00  0.00    +0.209 C 
ATOM      5  C   UNL     1      -0.350   1.105  -0.365  0.00  0.00    +0.235 C 
ATOM      6  O   UNL     1      -0.519  -0.077  -0.578  0.00  0.00    -0.274 OA
ATOM      7  N   UNL     1       0.901   1.598  -0.307  0.00  0.00    -0.283 N 
ATOM      8  C   UNL     1       1.125   2.948  -0.014  0.00  0.00    +0.055 A 
ATOM      9  C   UNL     1       0.086   3.721   0.509  0.00  0.00    +0.058 A 
ATOM     10  C   UNL     1       0.295   5.054   0.809  0.00  0.00    +0.025 A 
ATOM     11  C   UNL     1       1.537   5.622   0.587  0.00  0.00    +0.002 A 
ATOM     12  C   UNL     1       2.566   4.860   0.065  0.00  0.00    +0.002 A 
ATOM     13  C   UNL     1       2.365   3.526  -0.236  0.00  0.00    +0.025 A 
ATOM     14  H   UNL     1       1.762   0.938  -0.490  0.00  0.00    +0.155 HD
ENDROOT
BRANCH   1  15
ATOM     15  C   UNL     1      -3.378   2.966   1.807  0.00  0.00    +0.256 C 
ATOM     16  C   UNL     1      -3.299   1.600   2.491  0.00  0.00    +0.062 C 
BRANCH  15  17
ATOM     17  O   UNL     1      -4.196   3.842   2.585  0.00  0.00    -0.480 OA
BRANCH  17  23
ATOM     18  C   UNL     1      -8.648   5.657   3.428  0.00  0.00    +0.044 C 
ATOM     19  C   UNL     1      -7.735   4.670   2.747  0.00  0.00    -0.044 A 
ATOM     20  C   UNL     1      -8.261   3.723   1.887  0.00  0.00    +0.004 A 
ATOM     21  C   UNL     1      -7.426   2.815   1.262  0.00  0.00    +0.004 A 
ATOM     22  C   UNL     1      -6.064   2.857   1.489  0.00  0.00    +0.046 A 
ATOM     23  C   UNL     1      -5.535   3.803   2.355  0.00  0.00    +0.125 A 
ATOM     24  C   UNL     1      -6.375   4.712   2.982  0.00  0.00    -0.006 A 
ATOM     25  C   UNL     1      -5.803   5.745   3.919  0.00  0.00    +0.048 C 
ENDBRANCH  17  23
ENDBRANCH  15  17
ENDBRANCH   1  15
TORSDOF 3
