REMARK  Name = ZINC08770238
REMARK  4 active torsions:
REMARK  status: ('A' for Active; 'I' for Inactive)
REMARK    1  A    between atoms: C_3  and  C_24
REMARK    2  A    between atoms: C_6  and  C_7
REMARK    3  A    between atoms: C_9  and  O_23
REMARK    4  A    between atoms: N_13  and  C_16
REMARK                            x       y       z     vdW  Elec       q    Type
REMARK                         _______ _______ _______ _____ _____    ______ ____
ROOT
ATOM      1  C   UNL     1      -2.213   1.214   1.608  0.00  0.00    +0.026 C 
ATOM      2  C   UNL     1      -1.145   2.007   1.241  0.00  0.00    +0.097 C 
ATOM      3  C   UNL     1      -1.321   3.433   0.908  0.00  0.00    +0.218 C 
ATOM      4  N   UNL     1      -0.257   4.133   0.559  0.00  0.00    -0.127 NA
ATOM      5  C   UNL     1       0.960   3.593   0.504  0.00  0.00    +0.340 C 
ATOM      6  O   UNL     1       1.890   4.306   0.173  0.00  0.00    -0.250 OA
ATOM      7  N   UNL     1       1.217   2.310   0.794  0.00  0.00    -0.188 N 
ATOM      8  C   UNL     1       0.230   1.467   1.168  0.00  0.00    +0.263 C 
ATOM      9  O   UNL     1       0.464   0.303   1.431  0.00  0.00    -0.269 OA
ENDROOT
BRANCH   7  10
ATOM     10  C   UNL     1       2.533   1.835   0.708  0.00  0.00    +0.046 A 
ATOM     11  C   UNL     1       3.357   1.861   1.825  0.00  0.00    +0.025 A 
ATOM     12  C   UNL     1       4.651   1.388   1.739  0.00  0.00    +0.022 A 
ATOM     13  C   UNL     1       5.131   0.898   0.537  0.00  0.00    +0.041 A 
ATOM     14  C   UNL     1       4.314   0.875  -0.579  0.00  0.00    +0.022 A 
ATOM     15  C   UNL     1       3.017   1.342  -0.497  0.00  0.00    +0.025 A 
ATOM     16 CL   UNL     1       6.761   0.310   0.430  0.00  0.00    -0.084 Cl
ENDBRANCH   7  10
BRANCH   1  22
ATOM     17  C   UNL     1      -4.518   1.545   2.478  0.00  0.00    +0.009 A 
ATOM     18  C   UNL     1      -5.802   2.016   2.325  0.00  0.00    +0.016 A 
ATOM     19  C   UNL     1      -6.179   2.646   1.136  0.00  0.00    +0.063 A 
ATOM     20  C   UNL     1      -5.252   2.806   0.103  0.00  0.00    +0.016 A 
ATOM     21  C   UNL     1      -3.965   2.342   0.254  0.00  0.00    +0.009 A 
ATOM     22  C   UNL     1      -3.585   1.709   1.445  0.00  0.00    -0.024 A 
BRANCH  19  23
ATOM     23  C   UNL     1      -7.561   3.146   0.972  0.00  0.00    +0.387 C 
ATOM     24  O   UNL     1      -7.890   3.694  -0.061  0.00  0.00    -0.241 OA
ATOM     25  O   UNL     1      -8.456   2.993   1.968  0.00  0.00    -0.241 OA
ENDBRANCH  19  23
ENDBRANCH   1  22
BRANCH   3  26
ATOM     26  O   UNL     1      -2.541   4.007   0.955  0.00  0.00    -0.493 OA
ATOM     27  H   UNL     1      -2.549   4.934   0.682  0.00  0.00    +0.294 HD
ENDBRANCH   3  26
TORSDOF 4
