REMARK  Name = ZINC01460218
REMARK  9 active torsions:
REMARK  status: ('A' for Active; 'I' for Inactive)
REMARK    1  A    between atoms: C_1  and  C_2
REMARK    2  A    between atoms: C_2  and  O_3
REMARK    3  A    between atoms: O_3  and  C_4
REMARK    4  A    between atoms: C_4  and  C_6
REMARK    5  A    between atoms: C_7  and  N_34
REMARK    6  A    between atoms: C_11  and  C_33
REMARK    7  A    between atoms: C_26  and  C_31
REMARK    8  A    between atoms: C_26  and  C_32
REMARK    9  A    between atoms: C_28  and  C_30
REMARK                            x       y       z     vdW  Elec       q    Type
REMARK                         _______ _______ _______ _____ _____    ______ ____
ROOT
ATOM      1  C   UNL     1      -3.471   3.345   0.393  0.00  0.00    +0.117 C 
ATOM      2  C   UNL     1      -3.332   1.999   0.502  0.00  0.00    +0.196 C 
ATOM      3  O   UNL     1      -2.183   1.376   0.190  0.00  0.00    -0.441 OA
ATOM      4  C   UNL     1      -1.034   2.076   0.101  0.00  0.00    +0.145 A 
ATOM      5  C   UNL     1       0.214   1.414   0.155  0.00  0.00    +0.088 A 
ATOM      6  C   UNL     1       1.349   2.131   0.068  0.00  0.00    +0.110 A 
ATOM      7  O   UNL     1       1.345   3.461  -0.065  0.00  0.00    -0.427 OA
ATOM      8  C   UNL     1       0.183   4.126  -0.113  0.00  0.00    +0.345 A 
ATOM      9  O   UNL     1       0.190   5.340  -0.233  0.00  0.00    -0.245 OA
ATOM     10  C   UNL     1      -1.040   3.449  -0.028  0.00  0.00    +0.103 A 
ATOM     11  C   UNL     1      -2.336   4.205  -0.084  0.00  0.00    +0.145 C 
ATOM     12  C   UNL     1      -2.596   4.726  -1.460  0.00  0.00    -0.001 A 
ATOM     13  C   UNL     1      -2.783   4.142  -2.694  0.00  0.00    +0.007 A 
ATOM     14  C   UNL     1      -3.006   4.997  -3.772  0.00  0.00    +0.001 A 
ATOM     15  C   UNL     1      -3.046   6.377  -3.633  0.00  0.00    +0.006 A 
ATOM     16  C   UNL     1      -2.861   6.963  -2.404  0.00  0.00    -0.023 A 
ATOM     17  C   UNL     1      -2.635   6.107  -1.325  0.00  0.00    +0.045 A 
ATOM     18  N   UNL     1      -2.422   6.514  -0.011  0.00  0.00    -0.264 N 
ATOM     19  C   UNL     1      -2.239   5.450   0.785  0.00  0.00    +0.240 C 
ATOM     20  O   UNL     1      -2.033   5.476   1.981  0.00  0.00    -0.274 OA
ATOM     21  C   UNL     1      -2.421   7.947   0.331  0.00  0.00    +0.037 C 
ATOM     22  C   UNL     1      -1.993   8.740  -0.909  0.00  0.00    +0.033 C 
ATOM     23  C   UNL     1      -2.885   8.435  -2.117  0.00  0.00    +0.020 C 
ATOM     24  C   UNL     1      -2.368   9.200  -3.337  0.00  0.00    +0.012 C 
ATOM     25  C   UNL     1      -1.435   8.203   1.473  0.00  0.00    +0.032 C 
ATOM     26  C   UNL     1      -3.826   8.377   0.758  0.00  0.00    +0.032 C 
ATOM     27  C   UNL     1       2.671   1.409   0.121  0.00  0.00    +0.086 C 
ENDROOT
BRANCH   2  28
ATOM     28  N   UNL     1      -4.393   1.254   0.942  0.00  0.00    -0.329 N 
ATOM     29  H   UNL     1      -5.252   1.678   1.097  0.00  0.00    +0.145 HD
ATOM     30  H   UNL     1      -4.287   0.303   1.097  0.00  0.00    +0.145 HD
ENDBRANCH   2  28
BRANCH   1  31
ATOM     31  C   UNL     1      -4.694   3.943   0.732  0.00  0.00    +0.342 C 
ATOM     32  O   UNL     1      -5.473   4.274  -0.145  0.00  0.00    -0.245 OA
BRANCH  31  33
ATOM     33  O   UNL     1      -5.009   4.151   2.029  0.00  0.00    -0.462 OA
BRANCH  33  35
ATOM     34  C   UNL     1      -6.530   4.715   3.820  0.00  0.00    +0.048 C 
ATOM     35  C   UNL     1      -6.314   4.660   2.306  0.00  0.00    +0.229 C 
ENDBRANCH  33  35
ENDBRANCH  31  33
ENDBRANCH   1  31
TORSDOF 4
