REMARK  Name = ZINC59359579
REMARK  5 active torsions:
REMARK  status: ('A' for Active; 'I' for Inactive)
REMARK    1  A    between atoms: C_9  and  C_12
REMARK    2  A    between atoms: N_14  and  N_15
REMARK    3  A    between atoms: C_16  and  C_18
REMARK    4  A    between atoms: C_18  and  N_19
REMARK    5  A    between atoms: C_20  and  C_22
REMARK                            x       y       z     vdW  Elec       q    Type
REMARK                         _______ _______ _______ _____ _____    ______ ____
ROOT
ATOM      1  N   UNL     1       6.355  -4.522  -0.051  0.00  0.00    -0.233 N 
ATOM      2  C   UNL     1       6.593  -5.804  -0.392  0.00  0.00    +0.246 C 
ATOM      3  O   UNL     1       5.752  -6.437  -0.994  0.00  0.00    -0.273 OA
ATOM      4  H   UNL     1       7.028  -4.015   0.430  0.00  0.00    +0.173 HD
ENDROOT
BRANCH   1   7
ATOM      5  C   UNL     1       4.898  -2.639  -0.050  0.00  0.00    +0.273 C 
ATOM      6  O   UNL     1       5.739  -2.006   0.552  0.00  0.00    -0.270 OA
ATOM      7  N   UNL     1       5.136  -3.921  -0.391  0.00  0.00    -0.231 N 
ATOM      8  H   UNL     1       4.464  -4.428  -0.873  0.00  0.00    +0.173 HD
BRANCH   5  17
ATOM      9  C   UNL     1      -0.017   1.378   0.010  0.00  0.00    +0.004 A 
ATOM     10  C   UNL     1       1.170   2.088   0.002  0.00  0.00    +0.004 A 
ATOM     11  C   UNL     1       2.378   1.418  -0.012  0.00  0.00    +0.049 A 
ATOM     12  C   UNL     1       2.404   0.031  -0.019  0.00  0.00    +0.163 A 
ATOM     13  C   UNL     1       1.212  -0.683  -0.014  0.00  0.00    +0.162 A 
ATOM     14  C   UNL     1       0.002  -0.004   0.002  0.00  0.00    +0.049 A 
ATOM     15  O   UNL     1       1.214  -2.043  -0.029  0.00  0.00    -0.484 OA
ATOM     16  C   UNL     1       2.441  -2.689   0.331  0.00  0.00    +0.283 C 
ATOM     17  C   UNL     1       3.587  -1.993  -0.416  0.00  0.00    +0.297 C 
ATOM     18  O   UNL     1       3.602  -0.615  -0.029  0.00  0.00    -0.472 OA
ENDBRANCH   5  17
ENDBRANCH   1   7
BRANCH   2  19
ATOM     19  C   UNL     1       7.905  -6.450  -0.026  0.00  0.00    +0.202 C 
BRANCH  19  20
ATOM     20  N   UNL     1       7.917  -7.835  -0.505  0.00  0.00    -0.302 N 
ATOM     21  C   UNL     1       8.997  -8.612  -0.290  0.00  0.00    +0.251 C 
ATOM     22  O   UNL     1       9.961  -8.164   0.303  0.00  0.00    -0.270 OA
ATOM     23  H   UNL     1       7.149  -8.191  -0.978  0.00  0.00    +0.150 HD
BRANCH  21  24
ATOM     24  C   UNL     1       9.010  -9.997  -0.769  0.00  0.00    +0.075 A 
ATOM     25  C   UNL     1      10.005 -10.954  -0.648  0.00  0.00    +0.022 A 
ATOM     26  C   UNL     1       9.727 -12.179  -1.205  0.00  0.00    +0.024 A 
ATOM     27  C   UNL     1       8.531 -12.367  -1.819  0.00  0.00    +0.056 A 
ATOM     28  S   UNL     1       7.746 -10.891  -1.653  0.00  0.00    -0.077 S 
ATOM     29 BR   UNL     1       7.892 -13.935  -2.661  0.00  0.00    -0.043 Br
ENDBRANCH  21  24
ENDBRANCH  19  20
ENDBRANCH   2  19
TORSDOF 5
