REMARK  Name = ZINC63180321
REMARK  9 active torsions:
REMARK  status: ('A' for Active; 'I' for Inactive)
REMARK    1  A    between atoms: C_1  and  N_2
REMARK    2  A    between atoms: N_2  and  C_3
REMARK    3  A    between atoms: C_4  and  C_6
REMARK    4  A    between atoms: C_9  and  N_12
REMARK    5  A    between atoms: C_13  and  C_15
REMARK    6  A    between atoms: C_15  and  S_16
REMARK    7  A    between atoms: S_16  and  C_17
REMARK    8  A    between atoms: C_20  and  C_28
REMARK    9  A    between atoms: N_21  and  C_22
REMARK                            x       y       z     vdW  Elec       q    Type
REMARK                         _______ _______ _______ _____ _____    ______ ____
ROOT
ATOM      1  C   UNL     1      -5.128 -10.539  -0.206  0.00  0.00    +0.197 A 
ATOM      2  N   UNL     1      -4.109 -11.368  -0.034  0.00  0.00    -0.122 NA
ATOM      3  N   UNL     1      -4.526 -12.583  -0.003  0.00  0.00    -0.128 NA
ATOM      4  C   UNL     1      -5.843 -12.610  -0.154  0.00  0.00    +0.168 A 
ATOM      5  N   UNL     1      -6.260 -11.294  -0.282  0.00  0.00    -0.270 N 
ENDROOT
BRANCH   4   6
ATOM      6  C   UNL     1      -6.658 -13.751  -0.175  0.00  0.00    +0.025 C 
ATOM      7  C   UNL     1      -6.254 -15.079  -0.036  0.00  0.00    +0.006 A 
ATOM      8  C   UNL     1      -4.990 -15.675   0.158  0.00  0.00    +0.010 A 
ATOM      9  C   UNL     1      -4.891 -17.026   0.262  0.00  0.00    +0.001 A 
ATOM     10  C   UNL     1      -6.016 -17.850   0.182  0.00  0.00    +0.002 A 
ATOM     11  C   UNL     1      -7.260 -17.345  -0.003  0.00  0.00    +0.026 A 
ATOM     12  C   UNL     1      -7.443 -15.943  -0.120  0.00  0.00    +0.043 A 
ATOM     13  N   UNL     1      -8.529 -15.217  -0.301  0.00  0.00    -0.380 N 
ATOM     14  C   UNL     1      -8.161 -13.799  -0.347  0.00  0.00    +0.152 C 
ATOM     15  H   UNL     1      -9.430 -15.566  -0.387  0.00  0.00    +0.160 HD
ENDBRANCH   4   6
BRANCH   5  16
ATOM     16  C   UNL     1      -7.573 -10.837  -0.457  0.00  0.00    +0.050 A 
ATOM     17  C   UNL     1      -8.511 -11.013   0.551  0.00  0.00    +0.026 A 
ATOM     18  C   UNL     1      -9.804 -10.560   0.376  0.00  0.00    +0.002 A 
ATOM     19  C   UNL     1     -10.165  -9.932  -0.802  0.00  0.00    +0.000 A 
ATOM     20  C   UNL     1      -9.233  -9.756  -1.809  0.00  0.00    +0.002 A 
ATOM     21  C   UNL     1      -7.936 -10.201  -1.637  0.00  0.00    +0.026 A 
ENDBRANCH   5  16
BRANCH   1  22
ATOM     22  S   UNL     1      -5.037  -8.782  -0.309  0.00  0.00    -0.076 S 
BRANCH  22  23
ATOM     23  C   UNL     1      -3.268  -8.423  -0.137  0.00  0.00    +0.173 C 
BRANCH  23  25
ATOM     24  N   UNL     1      -1.802  -6.431  -0.103  0.00  0.00    -0.285 N 
ATOM     25  C   UNL     1      -3.048  -6.934  -0.209  0.00  0.00    +0.227 C 
ATOM     26  O   UNL     1      -3.993  -6.188  -0.361  0.00  0.00    -0.275 OA
ATOM     27  H   UNL     1      -1.040  -7.028  -0.059  0.00  0.00    +0.155 HD
BRANCH  24  31
ATOM     28  C   UNL     1      -1.226  -2.307   0.033  0.00  0.00    +0.037 A 
ATOM     29  C   UNL     1      -2.368  -2.874   0.606  0.00  0.00    +0.015 A 
ATOM     30  C   UNL     1      -2.555  -4.237   0.559  0.00  0.00    +0.024 A 
ATOM     31  C   UNL     1      -1.610  -5.050  -0.058  0.00  0.00    +0.033 A 
ATOM     32  C   UNL     1      -0.472  -4.489  -0.629  0.00  0.00    +0.024 A 
ATOM     33  C   UNL     1      -0.281  -3.126  -0.591  0.00  0.00    +0.015 A 
BRANCH  28  37
ATOM     34  C   UNL     1      -1.377   1.324   1.130  0.00  0.00    +0.132 C 
ATOM     35  N   UNL     1      -1.468  -0.138   1.138  0.00  0.00    -0.304 N 
ATOM     36  C   UNL     1      -2.045  -0.830   2.293  0.00  0.00    +0.132 C 
ATOM     37  C   UNL     1      -1.022  -0.846   0.082  0.00  0.00    +0.246 C 
ATOM     38  O   UNL     1      -0.450  -0.282  -0.831  0.00  0.00    -0.270 OA
ENDBRANCH  28  37
ENDBRANCH  24  31
ENDBRANCH  23  25
ENDBRANCH  22  23
ENDBRANCH   1  22
TORSDOF 7
