REMARK  Name = ZINC01384128
REMARK  5 active torsions:
REMARK  status: ('A' for Active; 'I' for Inactive)
REMARK    1  A    between atoms: C_1  and  O_2
REMARK    2  A    between atoms: O_2  and  C_3
REMARK    3  A    between atoms: C_3  and  C_5
REMARK    4  A    between atoms: C_6  and  N_23
REMARK    5  A    between atoms: C_10  and  C_14
REMARK                            x       y       z     vdW  Elec       q    Type
REMARK                         _______ _______ _______ _____ _____    ______ ____
ROOT
ATOM      1  C   UNL     1       0.002  -0.004   0.002  0.00  0.00    +0.119 A 
ATOM      2  C   UNL     1       1.348  -0.305  -0.013  0.00  0.00    +0.056 A 
ATOM      3  C   UNL     1       2.301   0.793  -0.016  0.00  0.00    +0.033 A 
ATOM      4  C   UNL     1       3.718   0.734  -0.030  0.00  0.00    -0.031 A 
ATOM      5  C   UNL     1       4.439   1.889  -0.030  0.00  0.00    -0.018 A 
ATOM      6  C   UNL     1       3.779   3.126  -0.017  0.00  0.00    +0.076 A 
ATOM      7  N   UNL     1       2.455   3.180  -0.004  0.00  0.00    -0.239 NA
ATOM      8  C   UNL     1       1.726   2.086  -0.003  0.00  0.00    +0.112 A 
ATOM      9  S   UNL     1      -0.022   1.778   0.012  0.00  0.00    -0.060 S 
ATOM     10  C   UNL     1       5.920   1.572  -0.045  0.00  0.00    +0.038 C 
ATOM     11  C   UNL     1       6.011   0.096  -0.492  0.00  0.00    +0.009 C 
ATOM     12  C   UNL     1       4.641  -0.463  -0.048  0.00  0.00    +0.036 C 
ENDROOT
BRANCH   6  13
ATOM     13  C   UNL     1       4.568   4.381  -0.018  0.00  0.00    +0.001 A 
ATOM     14  C   UNL     1       5.780   4.446   0.667  0.00  0.00    +0.010 A 
ATOM     15  C   UNL     1       6.512   5.616   0.659  0.00  0.00    +0.001 A 
ATOM     16  C   UNL     1       6.040   6.726  -0.018  0.00  0.00    +0.000 A 
ATOM     17  C   UNL     1       4.835   6.669  -0.695  0.00  0.00    +0.001 A 
ATOM     18  C   UNL     1       4.097   5.503  -0.699  0.00  0.00    +0.010 A 
ENDBRANCH   6  13
BRANCH   2  19
ATOM     19  N   UNL     1       1.782  -1.623  -0.024  0.00  0.00    -0.356 N 
ATOM     20  H   UNL     1       1.136  -2.346  -0.021  0.00  0.00    +0.142 HD
ATOM     21  H   UNL     1       2.731  -1.821  -0.033  0.00  0.00    +0.142 HD
ENDBRANCH   2  19
BRANCH   1  22
ATOM     22  C   UNL     1      -1.096  -0.896   0.007  0.00  0.00    +0.348 C 
ATOM     23  O   UNL     1      -0.904  -2.098  -0.001  0.00  0.00    -0.244 OA
BRANCH  22  25
ATOM     24  C   UNL     1      -3.417  -1.372   0.027  0.00  0.00    +0.280 C 
ATOM     25  O   UNL     1      -2.357  -0.414   0.022  0.00  0.00    -0.464 OA
ENDBRANCH  22  25
ENDBRANCH   1  22
TORSDOF 4
