REMARK  Name = ZINC00211983
REMARK  7 active torsions:
REMARK  status: ('A' for Active; 'I' for Inactive)
REMARK    1  A    between atoms: C_1  and  C_2
REMARK    2  A    between atoms: C_5  and  C_24
REMARK    3  A    between atoms: C_5  and  C_25
REMARK    4  A    between atoms: N_9  and  C_10
REMARK    5  A    between atoms: C_10  and  C_11
REMARK    6  A    between atoms: C_11  and  C_12
REMARK    7  A    between atoms: N_14  and  C_15
REMARK                            x       y       z     vdW  Elec       q    Type
REMARK                         _______ _______ _______ _____ _____    ______ ____
ROOT
ATOM      1  C   UNL     1      -3.074   3.790  -1.419  0.00  0.00    +0.115 C 
ENDROOT
BRANCH   1   2
ATOM      2  C   UNL     1      -4.440   4.426  -1.415  0.00  0.00    +0.219 C 
ATOM      3  O   UNL     1      -4.987   4.680  -0.362  0.00  0.00    -0.275 OA
ATOM      4  N   UNL     1      -5.054   4.712  -2.580  0.00  0.00    -0.285 N 
ATOM      5  H   UNL     1      -4.590   4.571  -3.420  0.00  0.00    +0.155 HD
BRANCH   4   6
ATOM      6  C   UNL     1      -6.362   5.213  -2.578  0.00  0.00    +0.037 A 
ATOM      7  C   UNL     1      -7.243   4.859  -3.591  0.00  0.00    +0.027 A 
ATOM      8  C   UNL     1      -8.535   5.348  -3.588  0.00  0.00    +0.051 A 
ATOM      9  C   UNL     1      -8.953   6.201  -2.579  0.00  0.00    +0.166 A 
ATOM     10  C   UNL     1      -8.070   6.562  -1.564  0.00  0.00    +0.168 A 
ATOM     11  C   UNL     1      -6.777   6.067  -1.566  0.00  0.00    +0.072 A 
ATOM     12  O   UNL     1      -8.716   7.401  -0.703  0.00  0.00    -0.453 OA
ATOM     13  C   UNL     1      -9.872   7.874  -1.419  0.00  0.00    +0.466 C 
ATOM     14  O   UNL     1     -10.152   6.814  -2.353  0.00  0.00    -0.453 OA
ENDBRANCH   4   6
ENDBRANCH   1   2
BRANCH   1  15
ATOM     15  C   UNL     1      -2.608   3.573   0.022  0.00  0.00    +0.116 C 
BRANCH  15  23
ATOM     16  C   UNL     1      -0.399   5.112  -0.725  0.00  0.00    +0.028 C 
ATOM     17  C   UNL     1      -0.091   3.809   0.016  0.00  0.00    +0.074 C 
ATOM     18  C   UNL     1       1.055   3.077  -0.691  0.00  0.00    +0.047 C 
ATOM     19  C   UNL     1       1.267   1.725  -0.002  0.00  0.00    +0.030 C 
ATOM     20  N   UNL     1       0.005   0.983   0.000  0.00  0.00    -0.321 N 
ATOM     21  C   UNL     1      -1.177   1.617   0.010  0.00  0.00    +0.134 C 
ATOM     22  S   UNL     1      -2.611   0.683   0.020  0.00  0.00    -0.019 S 
ATOM     23  N   UNL     1      -1.279   2.955   0.018  0.00  0.00    -0.309 N 
ATOM     24  C   UNL     1       1.730   1.952   1.439  0.00  0.00    +0.031 C 
ATOM     25  C   UNL     1       2.329   0.926  -0.761  0.00  0.00    +0.031 C 
ATOM     26  H   UNL     1       0.024   0.013  -0.009  0.00  0.00    +0.148 HD
ENDBRANCH  15  23
ENDBRANCH   1  15
TORSDOF 4
