REMARK  Name = ZINC02967606
REMARK  9 active torsions:
REMARK  status: ('A' for Active; 'I' for Inactive)
REMARK    1  A    between atoms: C_9  and  C_28
REMARK    2  A    between atoms: C_14  and  S_16
REMARK    3  A    between atoms: S_16  and  C_17
REMARK    4  A    between atoms: C_17  and  C_18
REMARK    5  A    between atoms: N_20  and  C_21
REMARK    6  A    between atoms: C_28  and  C_29
REMARK    7  A    between atoms: C_29  and  C_30
REMARK    8  A    between atoms: N_32  and  C_33
REMARK    9  A    between atoms: C_33  and  C_34
REMARK                            x       y       z     vdW  Elec       q    Type
REMARK                         _______ _______ _______ _____ _____    ______ ____
ROOT
ATOM      1  C   UNL     1      -0.017   1.376  -0.038  0.00  0.00    +0.001 A 
ATOM      2  C   UNL     1       1.169   2.096  -0.046  0.00  0.00    +0.002 A 
ATOM      3  C   UNL     1       2.386   1.451  -0.052  0.00  0.00    +0.028 A 
ATOM      4  C   UNL     1       2.429   0.055  -0.051  0.00  0.00    +0.077 A 
ATOM      5  C   UNL     1       1.221  -0.672  -0.043  0.00  0.00    +0.041 A 
ATOM      6  C   UNL     1       0.002  -0.003  -0.037  0.00  0.00    +0.013 A 
ATOM      7  C   UNL     1       1.291  -2.150  -0.042  0.00  0.00    +0.139 C 
ATOM      8  N   UNL     1       0.339  -3.040  -0.035  0.00  0.00    -0.255 NA
ATOM      9  C   UNL     1       0.966  -4.369  -0.037  0.00  0.00    +0.194 C 
ATOM     10  C   UNL     1       2.451  -4.073  -0.046  0.00  0.00    +0.251 C 
ATOM     11  O   UNL     1       3.359  -4.876  -0.051  0.00  0.00    -0.272 OA
ATOM     12  N   UNL     1       2.551  -2.724  -0.049  0.00  0.00    -0.200 N 
ATOM     13  C   UNL     1       3.670  -1.918  -0.057  0.00  0.00    +0.169 C 
ATOM     14  N   UNL     1       3.610  -0.614  -0.058  0.00  0.00    -0.225 NA
ENDROOT
BRANCH  13  15
ATOM     15  S   UNL     1       5.257  -2.685  -0.065  0.00  0.00    -0.080 S 
BRANCH  15  16
ATOM     16  C   UNL     1       6.418  -1.291  -0.074  0.00  0.00    +0.173 C 
BRANCH  16  17
ATOM     17  C   UNL     1       7.831  -1.815  -0.081  0.00  0.00    +0.227 C 
ATOM     18  O   UNL     1       8.035  -3.010  -0.080  0.00  0.00    -0.275 OA
ATOM     19  N   UNL     1       8.868  -0.954  -0.088  0.00  0.00    -0.285 N 
ATOM     20  H   UNL     1       8.706   0.000  -0.157  0.00  0.00    +0.155 HD
BRANCH  19  21
ATOM     21  C   UNL     1      10.179  -1.437   0.003  0.00  0.00    +0.034 A 
ATOM     22  C   UNL     1      11.140  -0.715   0.698  0.00  0.00    +0.026 A 
ATOM     23  C   UNL     1      12.432  -1.193   0.787  0.00  0.00    +0.040 A 
ATOM     24  C   UNL     1      12.771  -2.392   0.182  0.00  0.00    +0.124 A 
ATOM     25  C   UNL     1      11.815  -3.114  -0.512  0.00  0.00    +0.040 A 
ATOM     26  C   UNL     1      10.519  -2.642  -0.598  0.00  0.00    +0.026 A 
ATOM     27  F   UNL     1      14.036  -2.857   0.269  0.00  0.00    -0.205 F 
ENDBRANCH  19  21
ENDBRANCH  16  17
ENDBRANCH  15  16
ENDBRANCH  13  15
BRANCH   9  28
ATOM     28  C   UNL     1       0.579  -5.147   1.222  0.00  0.00    +0.045 C 
BRANCH  28  29
ATOM     29  C   UNL     1      -0.919  -5.455   1.191  0.00  0.00    +0.098 C 
BRANCH  29  30
ATOM     30  C   UNL     1      -1.300  -6.221   2.432  0.00  0.00    +0.213 C 
ATOM     31  O   UNL     1      -0.457  -6.493   3.259  0.00  0.00    -0.276 OA
ATOM     32  N   UNL     1      -2.579  -6.603   2.622  0.00  0.00    -0.308 N 
ATOM     33  H   UNL     1      -3.254  -6.384   1.960  0.00  0.00    +0.149 HD
BRANCH  32  34
ATOM     34  C   UNL     1      -2.950  -7.347   3.828  0.00  0.00    +0.178 C 
BRANCH  34  35
ATOM     35  C   UNL     1      -4.426  -7.650   3.797  0.00  0.00    +0.122 A 
ATOM     36  C   UNL     1      -4.992  -8.750   3.268  0.00  0.00    +0.046 A 
ATOM     37  C   UNL     1      -6.387  -8.623   3.457  0.00  0.00    +0.041 A 
ATOM     38  C   UNL     1      -6.590  -7.453   4.089  0.00  0.00    +0.195 A 
ATOM     39  O   UNL     1      -5.398  -6.871   4.298  0.00  0.00    -0.466 OA
ENDBRANCH  34  35
ENDBRANCH  32  34
ENDBRANCH  29  30
ENDBRANCH  28  29
ENDBRANCH   9  28
TORSDOF 9
