REMARK  Name = ZINC64541553
REMARK  5 active torsions:
REMARK  status: ('A' for Active; 'I' for Inactive)
REMARK    1  A    between atoms: C_1  and  O_2
REMARK    2  A    between atoms: O_2  and  C_3
REMARK    3  A    between atoms: C_8  and  C_9
REMARK    4  A    between atoms: C_12  and  C_15
REMARK    5  A    between atoms: C_21  and  C_23
REMARK                            x       y       z     vdW  Elec       q    Type
REMARK                         _______ _______ _______ _____ _____    ______ ____
ROOT
ATOM      1  C   UNL     1      -0.623  -6.489   0.467  0.00  0.00    +0.059 C 
ATOM      2  C   UNL     1      -0.665  -7.144  -0.916  0.00  0.00    +0.030 C 
ATOM      3  C   UNL     1      -0.623  -8.667  -0.756  0.00  0.00    +0.108 C 
ATOM      4  N   UNL     1      -1.712  -9.078   0.141  0.00  0.00    -0.299 N 
ATOM      5  C   UNL     1      -1.818  -8.444   1.461  0.00  0.00    +0.108 C 
ATOM      6  C   UNL     1      -1.846  -6.923   1.277  0.00  0.00    +0.030 C 
ATOM      7  C   UNL     1      -2.597 -10.020  -0.242  0.00  0.00    +0.242 C 
ATOM      8  O   UNL     1      -2.500 -10.536  -1.335  0.00  0.00    -0.273 OA
ENDROOT
BRANCH   7   9
ATOM      9  C   UNL     1      -3.709 -10.432   0.690  0.00  0.00    +0.190 C 
ATOM     10  C   UNL     1      -4.614  -9.254   0.973  0.00  0.00    +0.016 C 
ATOM     11  C   UNL     1      -5.840  -9.607   0.524  0.00  0.00    -0.002 A 
ATOM     12  C   UNL     1      -7.131  -8.910   0.508  0.00  0.00    +0.029 A 
ATOM     13  C   UNL     1      -8.208  -9.535  -0.022  0.00  0.00    +0.042 A 
ATOM     14  C   UNL     1      -8.121 -10.830  -0.554  0.00  0.00    +0.022 A 
ATOM     15  C   UNL     1      -6.969 -11.533  -0.575  0.00  0.00    +0.027 A 
ATOM     16  C   UNL     1      -5.774 -10.972  -0.044  0.00  0.00    +0.043 A 
ATOM     17  N   UNL     1      -4.554 -11.446   0.051  0.00  0.00    -0.370 N 
ATOM     18 CL   UNL     1      -9.738  -8.714  -0.042  0.00  0.00    -0.084 Cl
ATOM     19  H   UNL     1      -4.260 -12.320  -0.251  0.00  0.00    +0.161 HD
ENDBRANCH   7   9
BRANCH   1  22
ATOM     20  C   UNL     1       0.052  -2.828   0.005  0.00  0.00    +0.326 C 
ATOM     21  N   UNL     1       0.496  -4.229   0.097  0.00  0.00    -0.289 N 
ATOM     22  C   UNL     1      -0.630  -4.989   0.312  0.00  0.00    +0.141 C 
ATOM     23  N   UNL     1      -1.686  -4.263   0.364  0.00  0.00    -0.071 NA
ATOM     24  O   UNL     1      -1.372  -2.892   0.182  0.00  0.00    -0.365 OA
ATOM     25  H   UNL     1       1.407  -4.553   0.021  0.00  0.00    +0.151 HD
BRANCH  20  31
ATOM     26  C   UNL     1       0.626  -0.618   1.042  0.00  0.00    +0.128 A 
ATOM     27  C   UNL     1       1.202   0.139   2.051  0.00  0.00    +0.046 A 
ATOM     28  C   UNL     1       1.835  -0.488   3.107  0.00  0.00    +0.004 A 
ATOM     29  C   UNL     1       1.895  -1.869   3.158  0.00  0.00    +0.001 A 
ATOM     30  C   UNL     1       1.321  -2.625   2.153  0.00  0.00    +0.012 A 
ATOM     31  C   UNL     1       0.682  -2.003   1.097  0.00  0.00    +0.055 A 
BRANCH  26  33
ATOM     32  C   UNL     1      -0.017   1.425   0.010  0.00  0.00    +0.277 C 
ATOM     33  O   UNL     1       0.002  -0.004   0.002  0.00  0.00    -0.495 OA
ENDBRANCH  26  33
ENDBRANCH  20  31
ENDBRANCH   1  22
TORSDOF 4
