REMARK  Name = ZINC08297711
REMARK  10 active torsions:
REMARK  status: ('A' for Active; 'I' for Inactive)
REMARK    1  A    between atoms: C_1  and  N_67
REMARK    2  A    between atoms: C_2  and  C_3
REMARK    3  A    between atoms: C_2  and  N_67
REMARK    4  A    between atoms: C_9  and  C_10
REMARK    5  A    between atoms: C_9  and  N_67
REMARK    6  A    between atoms: N_12  and  C_15
REMARK    7  A    between atoms: C_15  and  C_16
REMARK    8  A    between atoms: C_24  and  C_26
REMARK    9  A    between atoms: N_28  and  C_29
REMARK   10  A    between atoms: C_29  and  C_30
REMARK                            x       y       z     vdW  Elec       q    Type
REMARK                         _______ _______ _______ _____ _____    ______ ____
ROOT
ATOM      1  C   UNL     1      -0.734   1.954   1.269  0.00  0.00    -0.046 C 
ATOM      2  C   UNL     1      -0.646   3.481   1.341  0.00  0.00    -0.010 C 
ATOM      3  C   UNL     1      -2.067   4.059   1.338  0.00  0.00    -0.004 C 
ATOM      4  C   UNL     1      -2.776   3.608   0.055  0.00  0.00    -0.015 C 
ATOM      5  C   UNL     1      -2.805   2.077   0.019  0.00  0.00    -0.078 C 
ATOM      6  C   UNL     1      -2.856   1.966   2.437  0.00  0.00    -0.065 C 
ATOM      7  C   UNL     1      -2.828   3.493   2.543  0.00  0.00    +0.061 C 
ATOM      8  N   UNL     1      -2.147   1.520   1.219  0.00  0.00    +0.383 N 
ATOM      9  H   UNL     1      -2.179   0.495   1.171  0.00  0.00    -0.081 HD
ENDROOT
BRANCH   7  10
ATOM     10  C   UNL     1      -4.238   4.025   2.545  0.00  0.00    +0.215 C 
ATOM     11  O   UNL     1      -4.602   4.782   1.670  0.00  0.00    -0.276 OA
ATOM     12  N   UNL     1      -5.095   3.659   3.519  0.00  0.00    -0.311 N 
ATOM     13  H   UNL     1      -4.805   3.053   4.218  0.00  0.00    +0.149 HD
BRANCH  12  14
ATOM     14  C   UNL     1      -6.466   4.176   3.520  0.00  0.00    +0.139 C 
BRANCH  14  15
ATOM     15  C   UNL     1      -7.212   3.618   4.705  0.00  0.00    -0.030 A 
ATOM     16  C   UNL     1      -7.911   2.432   4.585  0.00  0.00    +0.005 A 
ATOM     17  C   UNL     1      -8.591   1.917   5.674  0.00  0.00    +0.000 A 
ATOM     18  C   UNL     1      -8.580   2.595   6.879  0.00  0.00    +0.000 A 
ATOM     19  C   UNL     1      -7.885   3.784   6.997  0.00  0.00    +0.000 A 
ATOM     20  C   UNL     1      -7.201   4.295   5.910  0.00  0.00    +0.005 A 
ENDBRANCH  14  15
ENDBRANCH  12  14
ENDBRANCH   7  10
BRANCH   1  21
ATOM     21  C   UNL     1      -0.018   1.461   0.010  0.00  0.00    +0.130 C 
BRANCH  21  24
ATOM     22  C   UNL     1      -0.246  -2.072  -0.587  0.00  0.00    +0.066 A 
ATOM     23  C   UNL     1      -0.460  -0.798  -0.992  0.00  0.00    +0.131 A 
ATOM     24  N   UNL     1       0.002  -0.004   0.002  0.00  0.00    -0.253 N 
ATOM     25  N   UNL     1       0.467  -0.757   0.937  0.00  0.00    -0.066 NA
ATOM     26  N   UNL     1       0.329  -1.996   0.618  0.00  0.00    -0.136 NA
BRANCH  22  27
ATOM     27  C   UNL     1      -0.589  -3.328  -1.345  0.00  0.00    -0.019 C 
BRANCH  27  29
ATOM     28  C   UNL     1       1.663  -4.205  -1.188  0.00  0.00    -0.095 C 
ATOM     29  N   UNL     1       0.599  -3.761  -2.112  0.00  0.00    +0.384 N 
ATOM     30  H   UNL     1       0.946  -2.968  -2.664  0.00  0.00    -0.081 HD
BRANCH  29  31
ATOM     31  C   UNL     1       0.234  -4.861  -3.029  0.00  0.00    -0.043 C 
BRANCH  31  32
ATOM     32  C   UNL     1       1.397  -5.133  -3.949  0.00  0.00    -0.064 A 
ATOM     33  C   UNL     1       1.503  -4.452  -5.148  0.00  0.00    +0.002 A 
ATOM     34  C   UNL     1       2.572  -4.698  -5.989  0.00  0.00    +0.000 A 
ATOM     35  C   UNL     1       3.529  -5.631  -5.637  0.00  0.00    +0.000 A 
ATOM     36  C   UNL     1       3.420  -6.315  -4.440  0.00  0.00    +0.000 A 
ATOM     37  C   UNL     1       2.353  -6.066  -3.596  0.00  0.00    +0.002 A 
ENDBRANCH  31  32
ENDBRANCH  29  31
ENDBRANCH  27  29
ENDBRANCH  22  27
ENDBRANCH  21  24
ENDBRANCH   1  21
TORSDOF 9
