REMARK  Name = ZINC36576791
REMARK  20 active torsions:
REMARK  status: ('A' for Active; 'I' for Inactive)
REMARK    1  A    between atoms: C_1  and  C_2
REMARK    2  A    between atoms: C_2  and  C_3
REMARK    3  A    between atoms: C_3  and  N_4
REMARK    4  A    between atoms: N_4  and  C_5
REMARK    5  A    between atoms: C_5  and  C_7
REMARK    6  A    between atoms: C_5  and  C_16
REMARK    7  A    between atoms: C_8  and  O_15
REMARK    8  A    between atoms: C_10  and  O_14
REMARK    9  A    between atoms: C_12  and  O_13
REMARK   10  A    between atoms: N_18  and  C_19
REMARK   11  A    between atoms: C_19  and  C_20
REMARK   12  A    between atoms: C_19  and  C_21
REMARK   13  A    between atoms: C_19  and  C_22
REMARK   14  A    between atoms: C_22  and  C_23
REMARK   15  A    between atoms: C_23  and  C_24
REMARK   16  A    between atoms: C_23  and  C_25
REMARK   17  A    between atoms: C_23  and  C_26
REMARK   18  A    between atoms: C_27  and  C_29
REMARK   19  A    between atoms: C_29  and  O_30
REMARK   20  A    between atoms: O_30  and  C_31
REMARK                            x       y       z     vdW  Elec       q    Type
REMARK                         _______ _______ _______ _____ _____    ______ ____
ROOT
ATOM      1  C   UNL     1       2.445  -1.702   0.762  0.00  0.00    +0.199 C 
ENDROOT
BRANCH   1   2
ATOM      2  C   UNL     1       2.666  -0.996  -0.551  0.00  0.00    +0.065 A 
ATOM      3  C   UNL     1       3.456  -1.581  -1.529  0.00  0.00    +0.129 A 
ATOM      4  C   UNL     1       3.659  -0.932  -2.737  0.00  0.00    +0.091 A 
ATOM      5  C   UNL     1       3.071   0.303  -2.968  0.00  0.00    +0.124 A 
ATOM      6  C   UNL     1       2.280   0.888  -1.990  0.00  0.00    +0.091 A 
ATOM      7  C   UNL     1       2.074   0.236  -0.784  0.00  0.00    +0.129 A 
BRANCH   7   8
ATOM      8  O   UNL     1       1.295   0.808   0.172  0.00  0.00    -0.506 OA
ATOM      9  H   UNL     1       1.726   1.529   0.652  0.00  0.00    +0.292 HD
ENDBRANCH   7   8
BRANCH   5  10
ATOM     10  O   UNL     1       3.271   0.940  -4.152  0.00  0.00    -0.507 OA
ATOM     11  H   UNL     1       2.617   0.723  -4.830  0.00  0.00    +0.292 HD
ENDBRANCH   5  10
BRANCH   3  12
ATOM     12  O   UNL     1       4.032  -2.791  -1.302  0.00  0.00    -0.506 OA
ATOM     13  H   UNL     1       3.521  -3.539  -1.641  0.00  0.00    +0.292 HD
ENDBRANCH   3  12
ENDBRANCH   1   2
BRANCH   1  14
ATOM     14  C   UNL     1       3.302  -1.064   1.825  0.00  0.00    +0.239 C 
ATOM     15  O   UNL     1       2.909  -1.015   2.972  0.00  0.00    -0.273 OA
ATOM     16  N   UNL     1       4.504  -0.548   1.502  0.00  0.00    -0.308 N 
ATOM     17  H   UNL     1       4.765  -0.473   0.571  0.00  0.00    +0.149 HD
BRANCH  16  18
ATOM     18  C   UNL     1       5.417  -0.101   2.557  0.00  0.00    +0.030 C 
ATOM     19  C   UNL     1       4.832   1.131   3.249  0.00  0.00    +0.031 C 
ATOM     20  C   UNL     1       5.601  -1.222   3.581  0.00  0.00    +0.031 C 
BRANCH  18  21
ATOM     21  C   UNL     1       6.772   0.255   1.942  0.00  0.00    +0.031 C 
BRANCH  21  22
ATOM     22  C   UNL     1       7.412  -1.004   1.354  0.00  0.00    -0.036 C 
ATOM     23  C   UNL     1       6.381  -1.752   0.506  0.00  0.00    +0.010 C 
ATOM     24  C   UNL     1       8.602  -0.609   0.477  0.00  0.00    +0.010 C 
ATOM     25  C   UNL     1       7.893  -1.909   2.489  0.00  0.00    +0.010 C 
ENDBRANCH  21  22
ENDBRANCH  18  21
ENDBRANCH  16  18
ENDBRANCH   1  14
BRANCH   1  26
ATOM     26  N   UNL     1       1.034  -1.595   1.143  0.00  0.00    -0.284 N 
ATOM     27  C   UNL     1       0.604  -0.526   1.843  0.00  0.00    +0.242 C 
ATOM     28  O   UNL     1       1.391   0.329   2.188  0.00  0.00    -0.273 OA
BRANCH  26  29
ATOM     29  C   UNL     1       0.092  -2.650   0.763  0.00  0.00    +0.109 C 
BRANCH  29  31
ATOM     30  C   UNL     1      -1.115  -4.685   1.565  0.00  0.00    +0.005 C 
ATOM     31  C   UNL     1      -0.040  -3.654   1.910  0.00  0.00    +0.016 C 
ENDBRANCH  29  31
ENDBRANCH  26  29
BRANCH  27  32
ATOM     32  C   UNL     1      -0.855  -0.395   2.196  0.00  0.00    +0.255 C 
BRANCH  32  33
ATOM     33  O   UNL     1      -1.060   0.812   2.933  0.00  0.00    -0.374 OA
ATOM     34  C   UNL     1      -2.417   1.034   3.320  0.00  0.00    +0.194 C 
ENDBRANCH  32  33
ENDBRANCH  27  32
ENDBRANCH   1  26
TORSDOF 13
