REMARK  Name = ZINC13470779
REMARK  3 active torsions:
REMARK  status: ('A' for Active; 'I' for Inactive)
REMARK    1  A    between atoms: C_1  and  C_2
REMARK    2  A    between atoms: C_2  and  C_19
REMARK    3  A    between atoms: N_7  and  C_12
REMARK                            x       y       z     vdW  Elec       q    Type
REMARK                         _______ _______ _______ _____ _____    ______ ____
ROOT
ATOM      1  C   UNL     1       0.120   1.758   0.043  0.00  0.00    +0.040 C 
ATOM      2  C   UNL     1       0.197   0.243  -0.151  0.00  0.00    +0.092 C 
ATOM      3  C   UNL     1       0.703  -0.107  -1.562  0.00  0.00    +0.209 C 
ATOM      4  N   UNL     1      -0.372  -0.600  -2.433  0.00  0.00    -0.303 N 
ATOM      5  C   UNL     1       0.121  -1.708  -3.034  0.00  0.00    +0.156 C 
ATOM      6  N   UNL     1       1.295  -2.081  -2.481  0.00  0.00    -0.196 N 
ATOM      7  N   UNL     1       1.481  -1.348  -1.287  0.00  0.00    -0.202 N 
ATOM      8  C   UNL     1       1.911  -1.273  -0.027  0.00  0.00    +0.152 C 
ATOM      9  N   UNL     1       1.253  -0.348   0.701  0.00  0.00    -0.313 N 
ATOM     10  S   UNL     1       3.168  -2.249   0.602  0.00  0.00    -0.017 S 
ATOM     11  S   UNL     1      -0.644  -2.530  -4.326  0.00  0.00    -0.017 S 
ATOM     12  H   UNL     1      -1.253  -0.211  -2.553  0.00  0.00    +0.150 HD
ATOM     13  H   UNL     1       1.439  -0.112   1.623  0.00  0.00    +0.149 HD
ENDROOT
BRANCH   2  14
ATOM     14  C   UNL     1      -1.139  -0.401   0.119  0.00  0.00    -0.021 A 
ATOM     15  C   UNL     1      -1.203  -1.589   0.824  0.00  0.00    +0.007 A 
ATOM     16  C   UNL     1      -2.428  -2.180   1.072  0.00  0.00    +0.020 A 
ATOM     17  C   UNL     1      -3.589  -1.583   0.615  0.00  0.00    +0.041 A 
ATOM     18  C   UNL     1      -3.524  -0.395  -0.091  0.00  0.00    +0.020 A 
ATOM     19  C   UNL     1      -2.299   0.198  -0.334  0.00  0.00    +0.007 A 
ATOM     20 CL   UNL     1      -5.127  -2.325   0.926  0.00  0.00    -0.084 Cl
ENDBRANCH   2  14
BRANCH   6  21
ATOM     21  C   UNL     1       2.188  -3.023  -3.004  0.00  0.00    +0.055 A 
ATOM     22  C   UNL     1       2.694  -4.028  -2.191  0.00  0.00    +0.025 A 
ATOM     23  C   UNL     1       3.575  -4.956  -2.711  0.00  0.00    +0.002 A 
ATOM     24  C   UNL     1       3.953  -4.885  -4.039  0.00  0.00    +0.000 A 
ATOM     25  C   UNL     1       3.450  -3.885  -4.851  0.00  0.00    +0.002 A 
ATOM     26  C   UNL     1       2.565  -2.957  -4.339  0.00  0.00    +0.025 A 
ENDBRANCH   6  21
TORSDOF 2
