REMARK  Name = ZINC35753594
REMARK  12 active torsions:
REMARK  status: ('A' for Active; 'I' for Inactive)
REMARK    1  A    between atoms: C_1  and  C_2
REMARK    2  A    between atoms: C_2  and  C_3
REMARK    3  A    between atoms: C_2  and  C_4
REMARK    4  A    between atoms: C_4  and  C_5
REMARK    5  A    between atoms: N_7  and  C_8
REMARK    6  A    between atoms: C_12  and  C_14
REMARK    7  A    between atoms: C_16  and  C_30
REMARK    8  A    between atoms: N_18  and  C_22
REMARK    9  A    between atoms: C_22  and  C_23
REMARK   10  A    between atoms: N_32  and  C_33
REMARK   11  A    between atoms: C_33  and  C_34
REMARK   12  A    between atoms: C_34  and  N_35
REMARK                            x       y       z     vdW  Elec       q    Type
REMARK                         _______ _______ _______ _____ _____    ______ ____
ROOT
ATOM      1  C   UNL     1      -5.230  -6.802  -0.787  0.00  0.00    +0.238 C 
ATOM      2  C   UNL     1      -5.594  -7.455   0.567  0.00  0.00    +0.210 C 
ATOM      3  N   UNL     1      -6.205  -8.730   0.145  0.00  0.00    -0.248 N 
ATOM      4  C   UNL     1      -5.897  -8.924  -1.151  0.00  0.00    +0.405 C 
ATOM      5  O   UNL     1      -6.280  -9.878  -1.798  0.00  0.00    -0.226 OA
ATOM      6  O   UNL     1      -5.121  -7.948  -1.654  0.00  0.00    -0.440 OA
ENDROOT
BRANCH   1  11
ATOM      7  C   UNL     1      -2.689  -4.030  -0.409  0.00  0.00    +0.034 A 
ATOM      8  C   UNL     1      -1.497  -4.732  -0.531  0.00  0.00    +0.023 A 
ATOM      9  C   UNL     1      -1.520  -6.098  -0.734  0.00  0.00    +0.002 A 
ATOM     10  C   UNL     1      -2.728  -6.766  -0.817  0.00  0.00    +0.007 A 
ATOM     11  C   UNL     1      -3.916  -6.070  -0.696  0.00  0.00    -0.003 A 
ATOM     12  C   UNL     1      -3.900  -4.705  -0.486  0.00  0.00    +0.030 A 
BRANCH   7  15
ATOM     13  C   UNL     1      -1.719  -1.891  -0.788  0.00  0.00    +0.217 C 
ATOM     14  O   UNL     1      -0.838  -2.418  -1.434  0.00  0.00    -0.275 OA
ATOM     15  N   UNL     1      -2.669  -2.646  -0.203  0.00  0.00    -0.285 N 
ATOM     16  H   UNL     1      -3.340  -2.230   0.361  0.00  0.00    +0.155 HD
BRANCH  13  17
ATOM     17  C   UNL     1      -1.751  -0.391  -0.640  0.00  0.00    +0.099 C 
BRANCH  17  19
ATOM     18  C   UNL     1      -0.671   1.747  -1.351  0.00  0.00    +0.008 C 
ATOM     19  C   UNL     1      -0.569   0.221  -1.396  0.00  0.00    -0.008 C 
ATOM     20  C   UNL     1       0.740  -0.223  -0.740  0.00  0.00    +0.008 C 
ENDBRANCH  17  19
ENDBRANCH  13  17
ENDBRANCH   7  15
ENDBRANCH   1  11
BRANCH   2  21
ATOM     21  C   UNL     1      -6.582  -6.605   1.323  0.00  0.00    +0.238 C 
ATOM     22  O   UNL     1      -7.751  -6.926   1.365  0.00  0.00    -0.274 OA
ATOM     23  N   UNL     1      -6.168  -5.488   1.954  0.00  0.00    -0.315 N 
ATOM     24  H   UNL     1      -5.233  -5.231   1.921  0.00  0.00    +0.149 HD
BRANCH  23  25
ATOM     25  C   UNL     1      -7.129  -4.662   2.689  0.00  0.00    +0.086 C 
BRANCH  25  26
ATOM     26  C   UNL     1      -6.404  -3.464   3.306  0.00  0.00    -0.060 C 
BRANCH  26  27
ATOM     27  N   UNL     1      -7.368  -2.636   4.043  0.00  0.00    +0.381 N 
ATOM     28  C   UNL     1      -7.849  -3.360   5.248  0.00  0.00    -0.079 C 
ATOM     29  C   UNL     1      -8.359  -2.220   6.166  0.00  0.00    -0.020 C 
ATOM     30  C   UNL     1      -7.335  -1.090   5.915  0.00  0.00    -0.020 C 
ATOM     31  C   UNL     1      -6.708  -1.411   4.546  0.00  0.00    -0.079 C 
ATOM     32  H   UNL     1      -8.146  -2.393   3.448  0.00  0.00    -0.082 HD
ENDBRANCH  26  27
ENDBRANCH  25  26
ENDBRANCH  23  25
ENDBRANCH   2  21
BRANCH   3  33
ATOM     33  C   UNL     1      -7.005  -9.625   0.986  0.00  0.00    +0.147 C 
BRANCH  33  34
ATOM     34  C   UNL     1      -6.118 -10.699   1.561  0.00  0.00    -0.030 A 
ATOM     35  C   UNL     1      -5.850 -11.840   0.827  0.00  0.00    +0.008 A 
ATOM     36  C   UNL     1      -5.037 -12.826   1.353  0.00  0.00    +0.038 A 
ATOM     37  C   UNL     1      -4.490 -12.671   2.615  0.00  0.00    +0.123 A 
ATOM     38  C   UNL     1      -4.759 -11.528   3.349  0.00  0.00    +0.038 A 
ATOM     39  C   UNL     1      -5.569 -10.541   2.819  0.00  0.00    +0.008 A 
ATOM     40  F   UNL     1      -3.696 -13.634   3.131  0.00  0.00    -0.205 F 
ENDBRANCH  33  34
ENDBRANCH   3  33
TORSDOF 10
