REMARK  Name = ZINC38194621
REMARK  7 active torsions:
REMARK  status: ('A' for Active; 'I' for Inactive)
REMARK    1  A    between atoms: C_1  and  C_2
REMARK    2  A    between atoms: C_7  and  C_9
REMARK    3  A    between atoms: C_7  and  C_10
REMARK    4  A    between atoms: N_11  and  C_13
REMARK    5  A    between atoms: C_13  and  C_14
REMARK    6  A    between atoms: C_15  and  O_35
REMARK    7  A    between atoms: C_22  and  C_25
REMARK                            x       y       z     vdW  Elec       q    Type
REMARK                         _______ _______ _______ _____ _____    ______ ____
ROOT
ATOM      1  C   UNL     1      -3.584  -2.571  -0.606  0.00  0.00    +0.020 A 
ATOM      2  C   UNL     1      -4.183  -1.975   0.491  0.00  0.00    +0.122 A 
ATOM      3  C   UNL     1      -5.540  -1.658   0.475  0.00  0.00    +0.046 A 
ATOM      4  C   UNL     1      -6.298  -1.929  -0.629  0.00  0.00    +0.019 A 
ATOM      5  C   UNL     1      -5.707  -2.526  -1.742  0.00  0.00    +0.065 A 
ATOM      6  C   UNL     1      -4.339  -2.850  -1.737  0.00  0.00    +0.143 A 
ATOM      7  O   UNL     1      -3.775  -3.436  -2.811  0.00  0.00    -0.462 OA
ATOM      8  C   UNL     1      -4.378  -3.451  -4.002  0.00  0.00    +0.208 A 
ATOM      9  C   UNL     1      -5.698  -3.170  -4.160  0.00  0.00    +0.064 A 
ATOM     10  C   UNL     1      -6.487  -2.828  -2.958  0.00  0.00    +0.200 A 
ATOM     11  O   UNL     1      -7.705  -2.783  -2.973  0.00  0.00    -0.286 OA
ENDROOT
BRANCH   9  12
ATOM     12  C   UNL     1      -6.332  -3.216  -5.501  0.00  0.00    -0.008 A 
ATOM     13  C   UNL     1      -6.828  -2.049  -6.079  0.00  0.00    +0.012 A 
ATOM     14  C   UNL     1      -7.418  -2.095  -7.326  0.00  0.00    +0.050 A 
ATOM     15  C   UNL     1      -7.519  -3.299  -8.007  0.00  0.00    +0.162 A 
ATOM     16  C   UNL     1      -7.024  -4.466  -7.436  0.00  0.00    +0.163 A 
ATOM     17  C   UNL     1      -6.427  -4.425  -6.187  0.00  0.00    +0.058 A 
ATOM     18  O   UNL     1      -7.108  -5.655  -8.094  0.00  0.00    -0.485 OA
ATOM     19  C   UNL     1      -8.038  -5.725  -9.180  0.00  0.00    +0.270 C 
ATOM     20  C   UNL     1      -7.857  -4.472 -10.049  0.00  0.00    +0.270 C 
ATOM     21  O   UNL     1      -8.109  -3.322  -9.234  0.00  0.00    -0.485 OA
ENDBRANCH   9  12
BRANCH   2  22
ATOM     22  O   UNL     1      -3.442  -1.698   1.594  0.00  0.00    -0.506 OA
ATOM     23  H   UNL     1      -3.109  -0.791   1.627  0.00  0.00    +0.292 HD
ENDBRANCH   2  22
BRANCH   1  24
ATOM     24  C   UNL     1      -2.116  -2.908  -0.574  0.00  0.00    -0.035 C 
BRANCH  24  34
ATOM     25  C   UNL     1      -2.251  -7.816  -0.327  0.00  0.00    +0.009 C 
ATOM     26  C   UNL     1      -1.549  -6.477  -0.598  0.00  0.00    -0.048 C 
ATOM     27  C   UNL     1      -0.575  -6.078   0.544  0.00  0.00    -0.011 C 
ATOM     28  C   UNL     1      -0.507  -4.545   0.293  0.00  0.00    -0.067 C 
ATOM     29  C   UNL     1       0.329  -4.317  -0.951  0.00  0.00    -0.009 C 
ATOM     30  C   UNL     1       0.075  -5.230  -2.130  0.00  0.00    -0.036 C 
ATOM     31  C   UNL     1      -0.725  -6.494  -1.886  0.00  0.00    +0.011 C 
ATOM     32  C   UNL     1      -0.584  -4.427  -3.267  0.00  0.00    +0.011 C 
ATOM     33  C   UNL     1       1.462  -5.670  -2.670  0.00  0.00    +0.011 C 
ATOM     34  N   UNL     1      -1.926  -4.190   0.093  0.00  0.00    +0.385 N 
ATOM     35  C   UNL     1      -2.543  -5.295  -0.665  0.00  0.00    -0.071 C 
ATOM     36  H   UNL     1      -2.378  -4.149   1.009  0.00  0.00    -0.081 HD
ENDBRANCH  24  34
ENDBRANCH   1  24
TORSDOF 4
