REMARK  Name = ZINC39692319
REMARK  9 active torsions:
REMARK  status: ('A' for Active; 'I' for Inactive)
REMARK    1  A    between atoms: C_1  and  C_2
REMARK    2  A    between atoms: C_4  and  C_31
REMARK    3  A    between atoms: C_10  and  C_14
REMARK    4  A    between atoms: C_14  and  S_15
REMARK    5  A    between atoms: S_15  and  C_16
REMARK    6  A    between atoms: C_19  and  C_22
REMARK    7  A    between atoms: N_20  and  C_21
REMARK    8  A    between atoms: C_27  and  O_28
REMARK    9  A    between atoms: O_28  and  C_29
REMARK                            x       y       z     vdW  Elec       q    Type
REMARK                         _______ _______ _______ _____ _____    ______ ____
ROOT
ATOM      1  C   UNL     1      -4.294  -1.192   3.926  0.00  0.00    +0.151 C 
ENDROOT
BRANCH   1   9
ATOM      2  C   UNL     1      -0.060   2.047   0.361  0.00  0.00    +0.053 C 
ATOM      3  C   UNL     1      -0.030   0.530   0.167  0.00  0.00    +0.191 C 
ATOM      4  C   UNL     1       0.667  -0.162   1.364  0.00  0.00    +0.183 C 
ATOM      5  C   UNL     1      -0.510  -0.493   2.257  0.00  0.00    +0.096 A 
ATOM      6  H   UNL     1      -1.941  -1.364   5.037  0.00  0.00    +0.170 HD
ATOM      7  C   UNL     1      -1.654  -0.363   1.493  0.00  0.00    +0.226 A 
ATOM      8  N   UNL     1      -2.844  -0.595   2.079  0.00  0.00    -0.199 NA
ATOM      9  C   UNL     1      -2.931  -0.946   3.331  0.00  0.00    +0.124 A 
ATOM     10  N   UNL     1      -1.843  -1.096   4.110  0.00  0.00    -0.310 N 
ATOM     11  C   UNL     1      -0.612  -0.873   3.597  0.00  0.00    +0.259 A 
ATOM     12  O   UNL     1       0.386  -0.999   4.288  0.00  0.00    -0.267 OA
ATOM     13  O   UNL     1      -1.360  -0.016   0.212  0.00  0.00    -0.472 OA
BRANCH   4  14
ATOM     14  C   UNL     1       1.379  -1.415   0.922  0.00  0.00    +0.367 C 
ATOM     15  O   UNL     1       2.472  -1.690   1.385  0.00  0.00    -0.246 OA
ATOM     16  O   UNL     1       0.861  -2.153   0.101  0.00  0.00    -0.246 OA
ENDBRANCH   4  14
ENDBRANCH   1   9
BRANCH   1  17
ATOM     17  S   UNL     1      -5.565  -0.918   2.661  0.00  0.00    -0.078 S 
BRANCH  17  18
ATOM     18  C   UNL     1      -7.079  -1.240   3.501  0.00  0.00    +0.192 A 
ATOM     19  N   UNL     1      -7.213  -1.590   4.761  0.00  0.00    -0.122 NA
ATOM     20  N   UNL     1      -8.456  -1.745   5.047  0.00  0.00    -0.128 NA
ATOM     21  C   UNL     1      -9.193  -1.503   3.988  0.00  0.00    +0.168 A 
ATOM     22  N   UNL     1      -8.335  -1.167   2.966  0.00  0.00    -0.305 N 
ATOM     23  C   UNL     1      -8.692  -0.809   1.591  0.00  0.00    +0.153 C 
BRANCH  21  24
ATOM     24  C   UNL     1     -10.667  -1.574   3.909  0.00  0.00    +0.061 A 
ATOM     25  C   UNL     1     -11.281  -2.244   2.850  0.00  0.00    +0.015 A 
ATOM     26  C   UNL     1     -12.658  -2.306   2.782  0.00  0.00    +0.001 A 
ATOM     27  C   UNL     1     -13.433  -1.706   3.759  0.00  0.00    +0.004 A 
ATOM     28  C   UNL     1     -12.835  -1.039   4.812  0.00  0.00    +0.046 A 
ATOM     29  C   UNL     1     -11.454  -0.973   4.899  0.00  0.00    +0.131 A 
BRANCH  29  30
ATOM     30  O   UNL     1     -10.867  -0.324   5.937  0.00  0.00    -0.494 OA
ATOM     31  C   UNL     1     -11.733   0.264   6.909  0.00  0.00    +0.277 C 
ENDBRANCH  29  30
ENDBRANCH  21  24
ENDBRANCH  17  18
ENDBRANCH   1  17
TORSDOF 6
