REMARK  Name = ZINC15947087
REMARK  11 active torsions:
REMARK  status: ('A' for Active; 'I' for Inactive)
REMARK    1  A    between atoms: C_1  and  C_2
REMARK    2  A    between atoms: C_5  and  C_8
REMARK    3  A    between atoms: C_8  and  O_10
REMARK    4  A    between atoms: O_10  and  C_11
REMARK    5  A    between atoms: C_14  and  C_19
REMARK    6  A    between atoms: C_16  and  O_17
REMARK    7  A    between atoms: O_17  and  C_18
REMARK    8  A    between atoms: N_28  and  C_31
REMARK    9  A    between atoms: C_31  and  C_32
REMARK   10  A    between atoms: C_31  and  C_33
REMARK   11  A    between atoms: C_34  and  O_36
REMARK                            x       y       z     vdW  Elec       q    Type
REMARK                         _______ _______ _______ _____ _____    ______ ____
ROOT
ATOM      1  C   UNL     1       0.327 -11.795  -0.415  0.00  0.00    +0.224 C 
ATOM      2  N   UNL     1      -0.468 -12.129  -1.610  0.00  0.00    -0.313 N 
ATOM      3  C   UNL     1      -1.833 -11.989  -1.494  0.00  0.00    +0.080 A 
ATOM      4  C   UNL     1      -2.481 -12.059  -0.254  0.00  0.00    +0.067 A 
ATOM      5  C   UNL     1      -3.918 -11.880  -0.289  0.00  0.00    -0.027 A 
ATOM      6  C   UNL     1      -4.432 -11.676  -1.526  0.00  0.00    -0.021 A 
ATOM      7  S   UNL     1      -3.032 -11.722  -2.608  0.00  0.00    -0.080 S 
ATOM      8  C   UNL     1      -5.875 -11.467  -1.860  0.00  0.00    -0.035 C 
ATOM      9  N   UNL     1      -6.685 -11.890  -0.703  0.00  0.00    +0.384 N 
ATOM     10  C   UNL     1      -6.168 -11.258   0.518  0.00  0.00    -0.073 C 
ATOM     11  C   UNL     1      -4.838 -11.902   0.924  0.00  0.00    +0.018 C 
ATOM     12  C   UNL     1      -1.640 -12.314   0.944  0.00  0.00    +0.220 C 
ATOM     13  N   UNL     1      -0.347 -12.208   0.810  0.00  0.00    -0.223 NA
ATOM     14  H   UNL     1      -0.053 -12.430  -2.434  0.00  0.00    +0.149 HD
ATOM     15  H   UNL     1      -6.638 -12.893  -0.608  0.00  0.00    -0.081 HD
ENDROOT
BRANCH   1  19
ATOM     16  C   UNL     1       0.968  -7.568  -0.306  0.00  0.00    +0.173 A 
ATOM     17  C   UNL     1       0.807  -8.217  -1.520  0.00  0.00    +0.050 A 
ATOM     18  C   UNL     1       0.601  -9.583  -1.552  0.00  0.00    +0.011 A 
ATOM     19  C   UNL     1       0.553 -10.306  -0.374  0.00  0.00    -0.002 A 
ATOM     20  C   UNL     1       0.712  -9.665   0.840  0.00  0.00    +0.056 A 
ATOM     21  C   UNL     1       0.926  -8.297   0.879  0.00  0.00    +0.163 A 
BRANCH  21  22
ATOM     22  O   UNL     1       1.087  -7.666   2.073  0.00  0.00    -0.491 OA
ATOM     23  C   UNL     1       1.032  -8.477   3.248  0.00  0.00    +0.277 C 
ENDBRANCH  21  22
BRANCH  16  24
ATOM     24  O   UNL     1       1.171  -6.224  -0.273  0.00  0.00    -0.419 OA
BRANCH  24  25
ATOM     25  C   UNL     1       2.433  -5.779  -0.117  0.00  0.00    +0.345 C 
ATOM     26  O   UNL     1       3.336  -6.569   0.075  0.00  0.00    -0.245 OA
BRANCH  25  31
ATOM     27  C   UNL     1       3.547  -0.140  -0.357  0.00  0.00    +0.044 C 
ATOM     28  C   UNL     1       3.255  -1.617  -0.294  0.00  0.00    -0.050 A 
ATOM     29  C   UNL     1       4.286  -2.514  -0.075  0.00  0.00    +0.004 A 
ATOM     30  C   UNL     1       4.026  -3.867  -0.016  0.00  0.00    +0.015 A 
ATOM     31  C   UNL     1       2.719  -4.332  -0.178  0.00  0.00    +0.059 A 
ATOM     32  C   UNL     1       1.684  -3.421  -0.398  0.00  0.00    +0.015 A 
ATOM     33  C   UNL     1       1.957  -2.070  -0.450  0.00  0.00    +0.004 A 
ENDBRANCH  25  31
ENDBRANCH  24  25
ENDBRANCH  16  24
ENDBRANCH   1  19
BRANCH   9  34
ATOM     34  C   UNL     1      -8.082 -11.484  -0.910  0.00  0.00    -0.074 C 
ATOM     35  C   UNL     1      -8.575 -12.023  -2.255  0.00  0.00    -0.014 C 
ATOM     36  C   UNL     1      -8.950 -12.050   0.216  0.00  0.00    -0.014 C 
ENDBRANCH   9  34
BRANCH  12  37
ATOM     37  O   UNL     1      -2.196 -12.644   2.133  0.00  0.00    -0.492 OA
ATOM     38  H   UNL     1      -1.554 -12.787   2.841  0.00  0.00    +0.294 HD
ENDBRANCH  12  37
TORSDOF 7
