REMARK  Name = ZINC08728805
REMARK  4 active torsions:
REMARK  status: ('A' for Active; 'I' for Inactive)
REMARK    1  A    between atoms: C_1  and  N_2
REMARK    2  A    between atoms: C_15  and  C_16
REMARK    3  A    between atoms: C_16  and  S_17
REMARK    4  A    between atoms: S_17  and  C_18
REMARK                            x       y       z     vdW  Elec       q    Type
REMARK                         _______ _______ _______ _____ _____    ______ ____
ROOT
ATOM      1  C   UNL     1      -5.676   7.728  -0.849  0.00  0.00    +0.155 C 
ATOM      2  N   UNL     1      -4.584   6.930  -1.412  0.00  0.00    -0.280 N 
ATOM      3  C   UNL     1      -4.374   6.937  -2.745  0.00  0.00    +0.263 A 
ATOM      4  O   UNL     1      -5.090   7.590  -3.481  0.00  0.00    -0.267 OA
ATOM      5  C   UNL     1      -3.269   6.131  -3.296  0.00  0.00    +0.063 A 
ATOM      6  C   UNL     1      -3.012   6.092  -4.665  0.00  0.00    +0.015 A 
ATOM      7  C   UNL     1      -1.969   5.327  -5.141  0.00  0.00    +0.001 A 
ATOM      8  C   UNL     1      -1.179   4.598  -4.266  0.00  0.00    +0.002 A 
ATOM      9  C   UNL     1      -1.424   4.627  -2.907  0.00  0.00    +0.027 A 
ATOM     10  C   UNL     1      -2.468   5.392  -2.410  0.00  0.00    +0.063 A 
ATOM     11  N   UNL     1      -2.741   5.443  -1.049  0.00  0.00    -0.264 N 
ATOM     12  C   UNL     1      -3.772   6.196  -0.568  0.00  0.00    +0.239 A 
ATOM     13  N   UNL     1      -3.772   6.048   0.738  0.00  0.00    -0.110 NA
ATOM     14  N   UNL     1      -2.821   5.258   1.089  0.00  0.00    -0.131 NA
ATOM     15  C   UNL     1      -2.161   4.856   0.039  0.00  0.00    +0.150 A 
ENDROOT
BRANCH  15  16
ATOM     16  C   UNL     1      -0.978   3.923   0.028  0.00  0.00    +0.154 C 
BRANCH  16  17
ATOM     17  S   UNL     1       0.551   4.889  -0.033  0.00  0.00    -0.080 S 
BRANCH  17  18
ATOM     18  C   UNL     1       1.737   3.585  -0.035  0.00  0.00    +0.170 A 
ATOM     19  N   UNL     1       3.068   3.885  -0.076  0.00  0.00    -0.301 N 
ATOM     20  H   UNL     1       3.345   4.814  -0.107  0.00  0.00    +0.171 HD
ATOM     21  C   UNL     1       4.002   2.917  -0.074  0.00  0.00    +0.260 A 
ATOM     22  O   UNL     1       5.187   3.202  -0.111  0.00  0.00    -0.267 OA
ATOM     23  C   UNL     1       3.587   1.549  -0.028  0.00  0.00    +0.072 A 
ATOM     24  C   UNL     1       4.397   0.342  -0.017  0.00  0.00    +0.023 A 
ATOM     25  C   UNL     1       3.790  -0.853   0.029  0.00  0.00    +0.048 A 
ATOM     26  S   UNL     1       2.057  -0.437   0.062  0.00  0.00    -0.077 S 
ATOM     27  C   UNL     1       2.197   1.331   0.013  0.00  0.00    +0.116 A 
ATOM     28  N   UNL     1       1.327   2.333   0.008  0.00  0.00    -0.216 NA
ENDBRANCH  17  18
ENDBRANCH  16  17
ENDBRANCH  15  16
TORSDOF 3
