REMARK  Name = ZINC09236041
REMARK  14 active torsions:
REMARK  status: ('A' for Active; 'I' for Inactive)
REMARK    1  A    between atoms: C_1  and  C_2
REMARK    2  A    between atoms: C_2  and  N_66
REMARK    3  A    between atoms: C_3  and  C_4
REMARK    4  A    between atoms: C_3  and  N_66
REMARK    5  A    between atoms: C_5  and  C_6
REMARK    6  A    between atoms: C_5  and  N_66
REMARK    7  A    between atoms: C_6  and  C_7
REMARK    8  A    between atoms: C_7  and  N_8
REMARK    9  A    between atoms: C_9  and  C_27
REMARK   10  A    between atoms: C_12  and  C_13
REMARK   11  A    between atoms: C_12  and  O_22
REMARK   12  A    between atoms: C_30  and  C_33
REMARK   13  A    between atoms: C_33  and  O_35
REMARK   14  A    between atoms: O_35  and  C_36
REMARK                            x       y       z     vdW  Elec       q    Type
REMARK                         _______ _______ _______ _____ _____    ______ ____
ROOT
ATOM      1  N   UNL     1       2.126   0.383  -0.638  0.00  0.00    -0.284 N 
ATOM      2  C   UNL     1       1.445  -0.866  -0.991  0.00  0.00    +0.145 C 
ATOM      3  C   UNL     1      -0.037  -0.574  -0.959  0.00  0.00    +0.074 C 
ATOM      4  C   UNL     1      -1.067  -1.461  -1.227  0.00  0.00    +0.168 C 
ATOM      5  C   UNL     1      -0.161   0.776  -0.605  0.00  0.00    +0.249 C 
ATOM      6  O   UNL     1      -1.207   1.389  -0.480  0.00  0.00    -0.282 OA
ATOM      7  C   UNL     1       1.204   1.334  -0.414  0.00  0.00    +0.288 C 
ATOM      8  O   UNL     1       1.449   2.481  -0.102  0.00  0.00    -0.266 OA
ENDROOT
BRANCH   4   9
ATOM      9  C   UNL     1      -2.447  -0.983  -1.285  0.00  0.00    +0.171 A 
ATOM     10  C   UNL     1      -3.509  -1.567  -0.661  0.00  0.00    +0.061 A 
ATOM     11  C   UNL     1      -4.650  -0.788  -0.976  0.00  0.00    +0.021 A 
ATOM     12  C   UNL     1      -6.006  -0.875  -0.638  0.00  0.00    +0.011 A 
ATOM     13  C   UNL     1      -6.885   0.053  -1.118  0.00  0.00    +0.001 A 
ATOM     14  C   UNL     1      -6.445   1.083  -1.939  0.00  0.00    +0.004 A 
ATOM     15  C   UNL     1      -5.114   1.187  -2.284  0.00  0.00    +0.047 A 
ATOM     16  C   UNL     1      -4.200   0.255  -1.808  0.00  0.00    +0.136 A 
ATOM     17  O   UNL     1      -2.870   0.102  -1.969  0.00  0.00    -0.452 OA
ENDBRANCH   4   9
BRANCH   2  18
ATOM     18  C   UNL     1       1.780  -1.940   0.013  0.00  0.00    -0.022 A 
ATOM     19  C   UNL     1       1.890  -1.618   1.354  0.00  0.00    +0.006 A 
ATOM     20  C   UNL     1       2.191  -2.597   2.279  0.00  0.00    +0.015 A 
ATOM     21  C   UNL     1       2.397  -3.912   1.857  0.00  0.00    +0.059 A 
ATOM     22  C   UNL     1       2.290  -4.228   0.501  0.00  0.00    +0.015 A 
ATOM     23  C   UNL     1       1.983  -3.241  -0.412  0.00  0.00    +0.006 A 
BRANCH  21  24
ATOM     24  C   UNL     1       2.725  -4.964   2.841  0.00  0.00    +0.339 C 
ATOM     25  O   UNL     1       2.903  -6.107   2.471  0.00  0.00    -0.245 OA
BRANCH  24  26
ATOM     26  O   UNL     1       2.827  -4.655   4.148  0.00  0.00    -0.464 OA
ATOM     27  C   UNL     1       3.152  -5.739   5.058  0.00  0.00    +0.280 C 
ENDBRANCH  24  26
ENDBRANCH  21  24
ENDBRANCH   2  18
BRANCH   4  28
ATOM     28  O   UNL     1      -0.794  -2.768  -1.436  0.00  0.00    -0.503 OA
ATOM     29  H   UNL     1      -1.646  -3.262  -1.614  0.00  0.00    +0.292 HD
ENDBRANCH   4  28
BRANCH   1  30
ATOM     30  C   UNL     1       3.577   0.564  -0.544  0.00  0.00    +0.107 C 
BRANCH  30  31
ATOM     31  C   UNL     1       4.126   0.997  -1.905  0.00  0.00    +0.000 C 
BRANCH  31  32
ATOM     32  C   UNL     1       5.641   1.187  -1.806  0.00  0.00    -0.077 C 
BRANCH  32  33
ATOM     33  N   UNL     1       6.152   1.608  -3.128  0.00  0.00    +0.379 N 
ATOM     34  H   UNL     1       5.676   1.066  -3.858  0.00  0.00    -0.082 HD
BRANCH  33  36
ATOM     35  C   UNL     1       6.210   3.401  -4.791  0.00  0.00    -0.017 C 
ATOM     36  C   UNL     1       5.877   3.045  -3.340  0.00  0.00    -0.082 C 
ENDBRANCH  33  36
BRANCH  33  37
ATOM     37  C   UNL     1       7.606   1.354  -3.212  0.00  0.00    -0.082 C 
ATOM     38  C   UNL     1       7.829  -0.138  -3.464  0.00  0.00    -0.017 C 
ENDBRANCH  33  37
ENDBRANCH  32  33
ENDBRANCH  31  32
ENDBRANCH  30  31
ENDBRANCH   1  30
TORSDOF 11
