REMARK  Name = ZINC06263068
REMARK  8 active torsions:
REMARK  status: ('A' for Active; 'I' for Inactive)
REMARK    1  A    between atoms: C_1  and  C_2
REMARK    2  A    between atoms: C_2  and  C_3
REMARK    3  A    between atoms: C_2  and  O_4
REMARK    4  A    between atoms: O_4  and  C_5
REMARK    5  A    between atoms: C_8  and  C_11
REMARK    6  A    between atoms: C_15  and  C_25
REMARK    7  A    between atoms: C_20  and  N_24
REMARK    8  A    between atoms: C_21  and  C_22
REMARK                            x       y       z     vdW  Elec       q    Type
REMARK                         _______ _______ _______ _____ _____    ______ ____
ROOT
ATOM      1  C   UNL     1      -3.936  -0.947  -4.965  0.00  0.00    +0.082 C 
ATOM      2  C   UNL     1      -4.454  -2.379  -5.147  0.00  0.00    +0.144 C 
ATOM      3  C   UNL     1      -3.530  -3.378  -4.490  0.00  0.00    +0.156 C 
ATOM      4  N   UNL     1      -4.208  -3.920  -3.530  0.00  0.00    -0.146 NA
ATOM      5  N   UNL     1      -5.495  -3.393  -3.421  0.00  0.00    -0.115 NA
ATOM      6  C   UNL     1      -5.723  -2.470  -4.303  0.00  0.00    +0.227 C 
ATOM      7  O   UNL     1      -6.757  -1.624  -4.503  0.00  0.00    -0.425 OA
ATOM      8  C   UNL     1      -6.384  -0.349  -4.786  0.00  0.00    +0.200 C 
ATOM      9  C   UNL     1      -5.100   0.006  -5.014  0.00  0.00    +0.095 C 
ENDROOT
BRANCH   1  13
ATOM     10  C   UNL     1      -1.965  -0.607  -1.189  0.00  0.00    +0.121 A 
ATOM     11  C   UNL     1      -1.270  -0.349  -2.361  0.00  0.00    +0.046 A 
ATOM     12  C   UNL     1      -1.909  -0.460  -3.581  0.00  0.00    +0.008 A 
ATOM     13  C   UNL     1      -3.241  -0.827  -3.634  0.00  0.00    -0.038 A 
ATOM     14  C   UNL     1      -3.937  -1.084  -2.466  0.00  0.00    +0.008 A 
ATOM     15  C   UNL     1      -3.300  -0.981  -1.245  0.00  0.00    +0.046 A 
BRANCH  10  16
ATOM     16  O   UNL     1      -1.339  -0.499   0.012  0.00  0.00    -0.489 OA
BRANCH  16  18
ATOM     17  C   UNL     1       0.290   1.280  -0.134  0.00  0.00    +0.051 C 
ATOM     18  C   UNL     1       0.064  -0.228  -0.010  0.00  0.00    +0.167 C 
ATOM     19  C   UNL     1       0.703  -0.735   1.284  0.00  0.00    +0.051 C 
ENDBRANCH  16  18
ENDBRANCH  10  16
ENDBRANCH   1  13
BRANCH   3  20
ATOM     20  C   UNL     1      -2.106  -3.682  -4.876  0.00  0.00    +0.433 C 
ATOM     21  F   UNL     1      -1.592  -4.667  -4.025  0.00  0.00    -0.165 F 
ATOM     22  F   UNL     1      -2.069  -4.141  -6.197  0.00  0.00    -0.165 F 
ATOM     23  F   UNL     1      -1.334  -2.521  -4.765  0.00  0.00    -0.165 F 
ENDBRANCH   3  20
BRANCH   8  24
ATOM     24  N   UNL     1      -7.353   0.622  -4.844  0.00  0.00    -0.328 N 
ATOM     25  H   UNL     1      -8.281   0.390  -4.684  0.00  0.00    +0.145 HD
ATOM     26  H   UNL     1      -7.109   1.539  -5.045  0.00  0.00    +0.145 HD
ENDBRANCH   8  24
BRANCH   9  27
ATOM     27  C   UNL     1      -4.828   1.378  -5.321  0.00  0.00    +0.100 C 
ATOM     28  N   UNL     1      -4.612   2.467  -5.564  0.00  0.00    -0.191 NA
ENDBRANCH   9  27
TORSDOF 6
