REMARK  Name = ZINC64815912
REMARK  10 active torsions:
REMARK  status: ('A' for Active; 'I' for Inactive)
REMARK    1  A    between atoms: C_1  and  C_2
REMARK    2  A    between atoms: C_5  and  N_9
REMARK    3  A    between atoms: C_7  and  C_8
REMARK    4  A    between atoms: C_14  and  C_27
REMARK    5  A    between atoms: C_18  and  C_19
REMARK    6  A    between atoms: C_18  and  C_20
REMARK    7  A    between atoms: N_22  and  C_23
REMARK    8  A    between atoms: C_23  and  C_24
REMARK    9  A    between atoms: C_23  and  C_25
REMARK   10  A    between atoms: C_23  and  C_26
REMARK                            x       y       z     vdW  Elec       q    Type
REMARK                         _______ _______ _______ _____ _____    ______ ____
ROOT
ATOM      1  N   UNL     1       0.288  -4.250  -0.019  0.00  0.00    -0.250 N 
ATOM      2  C   UNL     1       0.438  -4.981   1.112  0.00  0.00    +0.270 C 
ATOM      3  O   UNL     1       0.521  -4.458   2.207  0.00  0.00    -0.268 OA
ATOM      4  C   UNL     1       0.494  -6.441   0.943  0.00  0.00    +0.125 A 
ATOM      5  C   UNL     1       0.459  -7.456   1.855  0.00  0.00    +0.063 A 
ATOM      6  C   UNL     1       0.531  -8.639   1.086  0.00  0.00    +0.100 A 
ATOM      7  N   UNL     1       0.607  -8.287  -0.185  0.00  0.00    -0.170 NA
ATOM      8  N   UNL     1       0.600  -7.017  -0.305  0.00  0.00    -0.256 N 
ATOM      9  C   UNL     1       0.700  -6.191  -1.515  0.00  0.00    +0.179 C 
ATOM     10  C   UNL     1      -0.051  -4.876  -1.292  0.00  0.00    +0.135 C 
ATOM     11  C   UNL     1       0.296  -3.909  -2.426  0.00  0.00    +0.044 C 
ENDROOT
BRANCH   1  16
ATOM     12  C   UNL     1       0.976   1.376   0.208  0.00  0.00    +0.044 C 
ATOM     13  C   UNL     1       0.793  -0.119   0.148  0.00  0.00    -0.047 A 
ATOM     14  C   UNL     1      -0.475  -0.663   0.241  0.00  0.00    +0.005 A 
ATOM     15  C   UNL     1      -0.646  -2.032   0.186  0.00  0.00    +0.024 A 
ATOM     16  C   UNL     1       0.458  -2.863   0.036  0.00  0.00    +0.038 A 
ATOM     17  C   UNL     1       1.729  -2.313  -0.058  0.00  0.00    +0.027 A 
ATOM     18  C   UNL     1       1.893  -0.942  -0.007  0.00  0.00    -0.046 A 
ATOM     19  C   UNL     1       3.272  -0.344  -0.115  0.00  0.00    +0.044 C 
ENDBRANCH   1  16
BRANCH   6  20
ATOM     20  C   UNL     1       0.522 -10.023   1.610  0.00  0.00    +0.039 A 
ATOM     21  C   UNL     1       0.594 -11.205   0.924  0.00  0.00    +0.018 A 
ATOM     22  C   UNL     1       0.569 -12.386   1.635  0.00  0.00    +0.008 A 
ATOM     23  C   UNL     1       0.474 -12.341   2.988  0.00  0.00    +0.046 A 
ATOM     24  S   UNL     1       0.423 -10.585   3.302  0.00  0.00    -0.095 S 
ENDBRANCH   6  20
BRANCH  10  25
ATOM     25  C   UNL     1      -1.534  -5.145  -1.323  0.00  0.00    +0.239 C 
ATOM     26  O   UNL     1      -2.146  -5.047  -2.365  0.00  0.00    -0.273 OA
ATOM     27  N   UNL     1      -2.178  -5.494  -0.192  0.00  0.00    -0.309 N 
ATOM     28  H   UNL     1      -1.688  -5.572   0.641  0.00  0.00    +0.149 HD
BRANCH  27  29
ATOM     29  C   UNL     1      -3.620  -5.756  -0.222  0.00  0.00    +0.026 C 
ATOM     30  C   UNL     1      -3.909  -6.910  -1.183  0.00  0.00    +0.031 C 
ATOM     31  C   UNL     1      -4.099  -6.130   1.183  0.00  0.00    +0.031 C 
ATOM     32  C   UNL     1      -4.356  -4.501  -0.695  0.00  0.00    +0.031 C 
ENDBRANCH  27  29
ENDBRANCH  10  25
TORSDOF 4
