REMARK  Name = ZINC13778950
REMARK  5 active torsions:
REMARK  status: ('A' for Active; 'I' for Inactive)
REMARK    1  A    between atoms: C_1  and  O_2
REMARK    2  A    between atoms: O_2  and  C_3
REMARK    3  A    between atoms: C_8  and  O_9
REMARK    4  A    between atoms: O_9  and  C_10
REMARK    5  A    between atoms: C_22  and  C_24
REMARK                            x       y       z     vdW  Elec       q    Type
REMARK                         _______ _______ _______ _____ _____    ______ ____
ROOT
ATOM      1  C   UNL     1       0.607  -0.608  -1.057  0.00  0.00    +0.162 A 
ATOM      2  C   UNL     1       1.173   0.158  -2.062  0.00  0.00    +0.057 A 
ATOM      3  C   UNL     1       1.788  -0.452  -3.141  0.00  0.00    +0.011 A 
ATOM      4  C   UNL     1       1.840  -1.834  -3.219  0.00  0.00    +0.138 A 
ATOM      5  C   UNL     1       1.272  -2.606  -2.212  0.00  0.00    +0.096 A 
ATOM      6  C   UNL     1       0.662  -1.996  -1.129  0.00  0.00    +0.165 A 
ATOM      7  O   UNL     1       2.438  -2.453  -4.267  0.00  0.00    -0.437 OA
ATOM      8  C   UNL     1       3.324  -1.785  -5.031  0.00  0.00    +0.232 A 
ATOM      9  C   UNL     1       3.359  -0.404  -5.049  0.00  0.00    +0.091 A 
ATOM     10  C   UNL     1       4.303   0.244  -5.846  0.00  0.00    +0.262 A 
ATOM     11  O   UNL     1       4.337   1.464  -5.877  0.00  0.00    -0.267 OA
ATOM     12  N   UNL     1       5.189  -0.482  -6.592  0.00  0.00    -0.287 N 
ATOM     13  C   UNL     1       5.067  -1.843  -6.550  0.00  0.00    +0.175 A 
ATOM     14  N   UNL     1       4.188  -2.461  -5.797  0.00  0.00    -0.188 NA
ATOM     15  S   UNL     1       6.281  -2.487  -7.685  0.00  0.00    -0.086 S 
ATOM     16  C   UNL     1       6.723  -0.906  -8.519  0.00  0.00    +0.099 C 
ATOM     17  C   UNL     1       6.261   0.080  -7.421  0.00  0.00    +0.138 C 
ATOM     18  C   UNL     1       2.395   0.402  -4.222  0.00  0.00    +0.104 C 
ENDROOT
BRANCH  18  19
ATOM     19  C   UNL     1       1.301   0.935  -5.110  0.00  0.00    +0.095 A 
ATOM     20  C   UNL     1       1.116   2.300  -5.249  0.00  0.00    +0.282 A 
ATOM     21  O   UNL     1       1.924   3.175  -4.606  0.00  0.00    -0.265 OA
ATOM     22  N   UNL     1       0.124   2.738  -6.031  0.00  0.00    -0.185 NA
ATOM     23  C   UNL     1      -0.661   1.905  -6.673  0.00  0.00    +0.175 A 
ATOM     24  N   UNL     1      -0.518   0.547  -6.615  0.00  0.00    -0.287 N 
ATOM     25  C   UNL     1       0.469   0.060  -5.803  0.00  0.00    +0.263 A 
ATOM     26  O   UNL     1       0.618  -1.146  -5.683  0.00  0.00    -0.267 OA
ATOM     27  C   UNL     1      -1.415  -0.268  -7.443  0.00  0.00    +0.138 C 
ATOM     28  C   UNL     1      -2.706   0.493  -7.824  0.00  0.00    +0.099 C 
ATOM     29  S   UNL     1      -2.056   2.215  -7.740  0.00  0.00    -0.086 S 
ENDBRANCH  18  19
BRANCH   1  31
ATOM     30  C   UNL     1      -0.017   1.425   0.010  0.00  0.00    +0.277 C 
ATOM     31  O   UNL     1       0.002  -0.004   0.002  0.00  0.00    -0.491 OA
ENDBRANCH   1  31
BRANCH   6  32
ATOM     32  O   UNL     1       0.112  -2.753  -0.142  0.00  0.00    -0.491 OA
ATOM     33  C   UNL     1       0.206  -4.172  -0.283  0.00  0.00    +0.277 C 
ENDBRANCH   6  32
TORSDOF 3
