REMARK  Name = ZINC39634766
REMARK  14 active torsions:
REMARK  status: ('A' for Active; 'I' for Inactive)
REMARK    1  A    between atoms: C_1  and  C_2
REMARK    2  A    between atoms: C_2  and  C_4
REMARK    3  A    between atoms: C_2  and  O_29
REMARK    4  A    between atoms: C_8  and  C_17
REMARK    5  A    between atoms: N_19  and  C_20
REMARK    6  A    between atoms: C_20  and  C_21
REMARK    7  A    between atoms: C_21  and  N_22
REMARK    8  A    between atoms: N_22  and  C_23
REMARK    9  A    between atoms: N_22  and  C_26
REMARK   10  A    between atoms: C_23  and  C_24
REMARK   11  A    between atoms: C_23  and  C_25
REMARK   12  A    between atoms: C_26  and  C_27
REMARK   13  A    between atoms: C_26  and  C_28
REMARK   14  A    between atoms: O_29  and  C_30
REMARK                            x       y       z     vdW  Elec       q    Type
REMARK                         _______ _______ _______ _____ _____    ______ ____
ROOT
ATOM      1  C   UNL     1      -0.571   1.283   2.764  0.00  0.00    +0.256 C 
ATOM      2  O   UNL     1      -1.302   1.054   3.704  0.00  0.00    -0.272 OA
ATOM      3  N   UNL     1       0.752   1.046   2.867  0.00  0.00    -0.297 N 
ATOM      4  C   UNL     1       1.782   1.173   1.809  0.00  0.00    +0.121 C 
ATOM      5  C   UNL     1       3.009   1.776   2.529  0.00  0.00    +0.100 C 
ATOM      6  C   UNL     1       2.823   1.395   4.007  0.00  0.00    -0.004 C 
ATOM      7  C   UNL     1       1.507   0.607   4.065  0.00  0.00    +0.115 C 
ATOM      8  C   UNL     1       2.717   2.651   4.866  0.00  0.00    -0.010 C 
ATOM      9  C   UNL     1       2.589   2.248   6.338  0.00  0.00    -0.082 C 
ATOM     10  N   UNL     1       3.761   1.457   6.734  0.00  0.00    +0.379 N 
ATOM     11  C   UNL     1       3.804   0.207   5.967  0.00  0.00    -0.082 C 
ATOM     12  C   UNL     1       3.983   0.524   4.479  0.00  0.00    -0.010 C 
ATOM     13  H   UNL     1       4.600   1.989   6.555  0.00  0.00    -0.086 HD
ATOM     14  H   UNL     1       3.705   1.244   7.718  0.00  0.00    -0.086 HD
ENDROOT
BRANCH   5  15
ATOM     15  C   UNL     1       4.282   1.177   1.987  0.00  0.00    +0.218 C 
ATOM     16  O   UNL     1       4.269   0.068   1.495  0.00  0.00    -0.275 OA
ATOM     17  N   UNL     1       5.434   1.874   2.049  0.00  0.00    -0.317 N 
ATOM     18  H   UNL     1       5.444   2.760   2.442  0.00  0.00    +0.149 HD
BRANCH  17  19
ATOM     19  C   UNL     1       6.671   1.292   1.522  0.00  0.00    +0.085 C 
BRANCH  19  20
ATOM     20  C   UNL     1       7.822   2.281   1.714  0.00  0.00    -0.059 C 
BRANCH  20  21
ATOM     21  N   UNL     1       9.026   1.768   1.046  0.00  0.00    +0.384 N 
ATOM     22  H   UNL     1       8.819   1.581   0.077  0.00  0.00    -0.081 HD
BRANCH  21  23
ATOM     23  C   UNL     1      10.098   2.767   1.134  0.00  0.00    -0.074 C 
ATOM     24  C   UNL     1      11.320   2.275   0.355  0.00  0.00    -0.014 C 
ATOM     25  C   UNL     1       9.613   4.090   0.538  0.00  0.00    -0.014 C 
ENDBRANCH  21  23
BRANCH  21  26
ATOM     26  C   UNL     1       9.458   0.526   1.702  0.00  0.00    -0.074 C 
ATOM     27  C   UNL     1       9.141   0.602   3.197  0.00  0.00    -0.014 C 
ATOM     28  C   UNL     1       8.719  -0.662   1.084  0.00  0.00    -0.014 C 
ENDBRANCH  21  26
ENDBRANCH  20  21
ENDBRANCH  19  20
ENDBRANCH  17  19
ENDBRANCH   5  15
BRANCH   1  30
ATOM     29  C   UNL     1      -0.687   3.283   1.302  0.00  0.00    +0.062 C 
ATOM     30  C   UNL     1      -1.141   1.832   1.482  0.00  0.00    +0.256 C 
BRANCH  30  31
ATOM     31  O   UNL     1      -2.568   1.782   1.535  0.00  0.00    -0.480 OA
BRANCH  31  32
ATOM     32  C   UNL     1      -3.229   1.761   0.348  0.00  0.00    +0.122 A 
ATOM     33  C   UNL     1      -2.520   1.817  -0.843  0.00  0.00    +0.045 A 
ATOM     34  C   UNL     1      -3.195   1.795  -2.049  0.00  0.00    +0.004 A 
ATOM     35  C   UNL     1      -4.575   1.718  -2.068  0.00  0.00    +0.000 A 
ATOM     36  C   UNL     1      -5.284   1.664  -0.882  0.00  0.00    +0.004 A 
ATOM     37  C   UNL     1      -4.614   1.679   0.326  0.00  0.00    +0.045 A 
ENDBRANCH  31  32
ENDBRANCH  30  31
ENDBRANCH   1  30
TORSDOF 9
