REMARK  Name = ZINC20463857
REMARK  8 active torsions:
REMARK  status: ('A' for Active; 'I' for Inactive)
REMARK    1  A    between atoms: C_1  and  O_2
REMARK    2  A    between atoms: O_2  and  C_3
REMARK    3  A    between atoms: C_8  and  C_9
REMARK    4  A    between atoms: C_9  and  N_10
REMARK    5  A    between atoms: N_10  and  C_11
REMARK    6  A    between atoms: C_20  and  N_25
REMARK    7  A    between atoms: C_22  and  O_24
REMARK    8  A    between atoms: N_28  and  C_31
REMARK                            x       y       z     vdW  Elec       q    Type
REMARK                         _______ _______ _______ _____ _____    ______ ____
ROOT
ATOM      1  C   UNL     1      -1.988  -3.771   0.823  0.00  0.00    -0.009 C 
ATOM      2  C   UNL     1      -1.486  -5.218   0.688  0.00  0.00    +0.136 C 
ATOM      3  C   UNL     1      -2.393  -6.114   1.563  0.00  0.00    +0.193 C 
ATOM      4  O   UNL     1      -3.461  -6.526   0.690  0.00  0.00    -0.347 OA
ATOM      5  C   UNL     1      -3.231  -5.892  -0.582  0.00  0.00    +0.270 C 
ATOM      6  O   UNL     1      -1.790  -5.652  -0.661  0.00  0.00    -0.346 OA
ATOM      7  C   UNL     1      -3.943  -4.531  -0.577  0.00  0.00    +0.140 C 
ATOM      8  C   UNL     1      -3.515  -3.766   0.687  0.00  0.00    +0.125 C 
ENDROOT
BRANCH   7   9
ATOM      9  N   UNL     1      -3.535  -3.758  -1.757  0.00  0.00    -0.290 NA
ATOM     10  C   UNL     1      -4.230  -2.464  -1.804  0.00  0.00    +0.104 C 
ATOM     11  C   UNL     1      -3.647  -1.617  -2.941  0.00  0.00    +0.120 C 
ATOM     12  N   UNL     1      -3.706  -2.400  -4.185  0.00  0.00    -0.327 N 
ATOM     13  C   UNL     1      -3.152  -3.762  -4.176  0.00  0.00    +0.120 C 
ATOM     14  C   UNL     1      -3.754  -4.525  -2.991  0.00  0.00    +0.104 C 
BRANCH  12  15
ATOM     15  C   UNL     1      -4.274  -1.863  -5.343  0.00  0.00    +0.030 A 
ATOM     16  C   UNL     1      -4.674  -0.534  -5.371  0.00  0.00    +0.023 A 
ATOM     17  C   UNL     1      -5.235  -0.007  -6.518  0.00  0.00    +0.002 A 
ATOM     18  C   UNL     1      -5.397  -0.802  -7.638  0.00  0.00    +0.000 A 
ATOM     19  C   UNL     1      -4.999  -2.126  -7.614  0.00  0.00    +0.002 A 
ATOM     20  C   UNL     1      -4.433  -2.658  -6.471  0.00  0.00    +0.023 A 
ENDBRANCH  12  15
ENDBRANCH   7   9
BRANCH   1  21
ATOM     21  N   UNL     1      -1.396  -2.943  -0.236  0.00  0.00    +0.387 N 
ATOM     22  H   UNL     1      -1.794  -2.016  -0.201  0.00  0.00    -0.085 HD
ATOM     23  H   UNL     1      -1.590  -3.357  -1.136  0.00  0.00    -0.085 HD
BRANCH  21  24
ATOM     24  C   UNL     1       0.057  -2.860  -0.038  0.00  0.00    -0.042 C 
BRANCH  24  30
ATOM     25  C   UNL     1       0.608  -0.626  -1.037  0.00  0.00    +0.121 A 
ATOM     26  C   UNL     1       1.173   0.153  -2.036  0.00  0.00    +0.046 A 
ATOM     27  C   UNL     1       1.784  -0.449  -3.118  0.00  0.00    +0.004 A 
ATOM     28  C   UNL     1       1.834  -1.829  -3.206  0.00  0.00    +0.000 A 
ATOM     29  C   UNL     1       1.272  -2.608  -2.212  0.00  0.00    +0.005 A 
ATOM     30  C   UNL     1       0.664  -2.010  -1.125  0.00  0.00    -0.023 A 
BRANCH  25  32
ATOM     31  C   UNL     1      -0.014   1.393   0.053  0.00  0.00    +0.277 C 
ATOM     32  O   UNL     1       0.006  -0.036   0.029  0.00  0.00    -0.495 OA
ENDBRANCH  25  32
ENDBRANCH  24  30
ENDBRANCH  21  24
ENDBRANCH   1  21
BRANCH   8  33
ATOM     33  O   UNL     1      -4.096  -4.422   1.816  0.00  0.00    -0.392 OA
ATOM     34  H   UNL     1      -5.062  -4.456   1.797  0.00  0.00    +0.210 HD
ENDBRANCH   8  33
TORSDOF 7
