REMARK  Name = ZINC40407750
REMARK  11 active torsions:
REMARK  status: ('A' for Active; 'I' for Inactive)
REMARK    1  A    between atoms: C_1  and  C_2
REMARK    2  A    between atoms: C_2  and  C_4
REMARK    3  A    between atoms: C_2  and  N_35
REMARK    4  A    between atoms: C_4  and  O_5
REMARK    5  A    between atoms: O_5  and  C_6
REMARK    6  A    between atoms: C_10  and  C_12
REMARK    7  A    between atoms: C_15  and  C_29
REMARK    8  A    between atoms: C_16  and  C_18
REMARK    9  A    between atoms: N_27  and  O_28
REMARK   10  A    between atoms: N_35  and  C_36
REMARK   11  A    between atoms: N_35  and  C_37
REMARK                            x       y       z     vdW  Elec       q    Type
REMARK                         _______ _______ _______ _____ _____    ______ ____
ROOT
ATOM      1  C   UNL     1       6.105   0.627  -3.695  0.00  0.00    +0.158 A 
ATOM      2  N   UNL     1       6.678   1.493  -2.810  0.00  0.00    -0.336 N 
ATOM      3  H   UNL     1       6.244   1.911  -2.050  0.00  0.00    +0.167 HD
ATOM      4  C   UNL     1       7.985   1.660  -3.194  0.00  0.00    +0.074 A 
ATOM      5  C   UNL     1       8.165   0.874  -4.324  0.00  0.00    +0.097 A 
ATOM      6  N   UNL     1       7.000   0.265  -4.585  0.00  0.00    -0.226 NA
ENDROOT
BRANCH   5   7
ATOM      7  C   UNL     1       9.419   0.731  -5.098  0.00  0.00    +0.003 A 
ATOM      8  C   UNL     1      10.639   0.588  -4.433  0.00  0.00    +0.011 A 
ATOM      9  C   UNL     1      11.802   0.455  -5.153  0.00  0.00    +0.011 A 
ATOM     10  C   UNL     1      11.770   0.461  -6.556  0.00  0.00    +0.003 A 
ATOM     11  C   UNL     1      10.551   0.604  -7.216  0.00  0.00    -0.037 A 
ATOM     12  C   UNL     1       9.384   0.733  -6.492  0.00  0.00    +0.014 A 
ATOM     13  C   UNL     1      10.777   0.581  -8.709  0.00  0.00    +0.042 C 
ATOM     14  C   UNL     1      12.288   0.406  -8.915  0.00  0.00    +0.064 C 
ATOM     15  C   UNL     1      12.875   0.335  -7.527  0.00  0.00    +0.088 C 
ATOM     16  N   UNL     1      14.128   0.189  -7.238  0.00  0.00    -0.092 NA
BRANCH  16  17
ATOM     17  O   UNL     1      15.085   0.080  -8.275  0.00  0.00    -0.409 OA
ATOM     18  H   UNL     1      15.994  -0.026  -7.962  0.00  0.00    +0.328 HD
ENDBRANCH  16  17
ENDBRANCH   5   7
BRANCH   1  23
ATOM     19  C   UNL     1       2.618   0.185  -2.667  0.00  0.00    +0.318 A 
ATOM     20  N   UNL     1       2.136  -0.663  -3.562  0.00  0.00    -0.203 NA
ATOM     21  C   UNL     1       2.898  -1.134  -4.536  0.00  0.00    +0.118 A 
ATOM     22  C   UNL     1       4.220  -0.731  -4.615  0.00  0.00    +0.051 A 
ATOM     23  C   UNL     1       4.701   0.166  -3.655  0.00  0.00    +0.113 A 
ATOM     24  N   UNL     1       3.872   0.601  -2.707  0.00  0.00    -0.192 NA
BRANCH  19  25
ATOM     25  O   UNL     1       1.803   0.643  -1.687  0.00  0.00    -0.464 OA
BRANCH  25  26
ATOM     26  C   UNL     1       0.456   0.165  -1.686  0.00  0.00    +0.217 C 
BRANCH  26  28
ATOM     27  C   UNL     1      -0.201   2.312  -0.591  0.00  0.00    -0.010 C 
ATOM     28  C   UNL     1      -0.306   0.787  -0.515  0.00  0.00    -0.034 C 
BRANCH  28  29
ATOM     29  N   UNL     1       0.274   0.319   0.751  0.00  0.00    +0.380 N 
ATOM     30  C   UNL     1      -0.458   0.917   1.876  0.00  0.00    -0.096 C 
ATOM     31  C   UNL     1       0.173  -1.145   0.824  0.00  0.00    -0.096 C 
ATOM     32  H   UNL     1       1.244   0.592   0.798  0.00  0.00    -0.082 HD
ENDBRANCH  28  29
ENDBRANCH  26  28
ENDBRANCH  25  26
ENDBRANCH  19  25
ENDBRANCH   1  23
BRANCH   4  33
ATOM     33  C   UNL     1       8.998   2.509  -2.537  0.00  0.00    +0.003 A 
ATOM     34  C   UNL     1       9.801   3.382  -3.283  0.00  0.00    +0.030 A 
ATOM     35  C   UNL     1      10.734   4.156  -2.628  0.00  0.00    +0.111 A 
ATOM     36  N   UNL     1      10.877   4.082  -1.318  0.00  0.00    -0.263 NA
ATOM     37  C   UNL     1      10.142   3.274  -0.577  0.00  0.00    +0.111 A 
ATOM     38  C   UNL     1       9.181   2.468  -1.148  0.00  0.00    +0.030 A 
ENDBRANCH   4  33
TORSDOF 8
