REMARK  Name = ZINC62642163
REMARK  5 active torsions:
REMARK  status: ('A' for Active; 'I' for Inactive)
REMARK    1  A    between atoms: C_1  and  C_2
REMARK    2  A    between atoms: C_2  and  C_3
REMARK    3  A    between atoms: C_6  and  N_12
REMARK    4  A    between atoms: C_8  and  N_9
REMARK    5  A    between atoms: C_13  and  C_15
REMARK                            x       y       z     vdW  Elec       q    Type
REMARK                         _______ _______ _______ _____ _____    ______ ____
ROOT
ATOM      1  N   UNL     1       4.846  -2.388  -5.833  0.00  0.00    -0.278 N 
ATOM      2  C   UNL     1       4.081  -2.881  -6.827  0.00  0.00    +0.303 C 
ATOM      3  O   UNL     1       4.587  -3.529  -7.720  0.00  0.00    -0.265 OA
ATOM      4  H   UNL     1       4.455  -1.809  -5.161  0.00  0.00    +0.155 HD
ENDROOT
BRANCH   2   5
ATOM      5  C   UNL     1       2.608  -2.630  -6.829  0.00  0.00    +0.302 C 
ATOM      6  O   UNL     1       2.087  -2.069  -5.888  0.00  0.00    -0.265 OA
ATOM      7  N   UNL     1       1.859  -3.027  -7.877  0.00  0.00    -0.290 N 
ATOM      8  C   UNL     1       0.436  -2.855  -7.802  0.00  0.00    +0.112 C 
ATOM      9  C   UNL     1      -0.323  -3.942  -8.501  0.00  0.00    +0.007 C 
ATOM     10  C   UNL     1       0.198  -5.331  -8.174  0.00  0.00    +0.008 C 
ATOM     11  C   UNL     1       1.323  -5.803  -9.073  0.00  0.00    -0.009 C 
ATOM     12  C   UNL     1       0.965  -5.610 -10.549  0.00  0.00    +0.007 C 
ATOM     13  C   UNL     1       0.707  -4.117 -10.761  0.00  0.00    -0.009 C 
ATOM     14  C   UNL     1      -0.544  -3.728  -9.972  0.00  0.00    +0.008 C 
ATOM     15  C   UNL     1       1.897  -3.281 -10.350  0.00  0.00    +0.026 C 
ATOM     16  C   UNL     1       2.530  -3.604  -9.028  0.00  0.00    +0.077 C 
ATOM     17  C   UNL     1       2.653  -5.117  -8.798  0.00  0.00    +0.026 C 
ENDBRANCH   2   5
BRANCH   1  21
ATOM     18  C   UNL     1       8.894  -3.352  -5.650  0.00  0.00    -0.017 A 
ATOM     19  C   UNL     1       8.463  -2.100  -5.247  0.00  0.00    +0.007 A 
ATOM     20  C   UNL     1       7.122  -1.778  -5.307  0.00  0.00    +0.024 A 
ATOM     21  C   UNL     1       6.205  -2.711  -5.772  0.00  0.00    +0.036 A 
ATOM     22  C   UNL     1       6.640  -3.967  -6.176  0.00  0.00    +0.056 A 
ATOM     23  C   UNL     1       7.984  -4.281  -6.119  0.00  0.00    +0.131 A 
BRANCH  23  24
ATOM     24  N   UNL     1       8.450  -5.617  -6.554  0.00  0.00    +0.057 N 
ATOM     25  O   UNL     1       7.672  -6.395  -7.056  0.00  0.00    -0.126 OA
ATOM     26  O   UNL     1       9.608  -5.931  -6.407  0.00  0.00    -0.126 OA
ENDBRANCH  23  24
BRANCH  18  28
ATOM     27  C   UNL     1      10.963  -3.630  -6.987  0.00  0.00    +0.009 C 
ATOM     28  C   UNL     1      10.358  -3.700  -5.584  0.00  0.00    +0.034 C 
ENDBRANCH  18  28
ENDBRANCH   1  21
TORSDOF 4
