REMARK  Name = ZINC65775279
REMARK  3 active torsions:
REMARK  status: ('A' for Active; 'I' for Inactive)
REMARK    1  A    between atoms: C_6  and  N_7
REMARK    2  A    between atoms: N_10  and  N_11
REMARK    3  A    between atoms: C_12  and  C_14
REMARK                            x       y       z     vdW  Elec       q    Type
REMARK                         _______ _______ _______ _____ _____    ______ ____
ROOT
ATOM      1  N   UNL     1      -1.198  -0.715   0.010  0.00  0.00    -0.268 N 
ATOM      2  C   UNL     1      -2.369  -0.058   0.127  0.00  0.00    +0.320 C 
ATOM      3  O   UNL     1      -2.386   1.158   0.134  0.00  0.00    -0.251 OA
ATOM      4  N   UNL     1      -3.521  -0.749   0.236  0.00  0.00    -0.218 N 
ATOM      5  H   UNL     1      -1.190  -1.681  -0.073  0.00  0.00    +0.156 HD
ATOM      6  H   UNL     1      -4.364  -0.277   0.320  0.00  0.00    +0.174 HD
ENDROOT
BRANCH   1  12
ATOM      7  C   UNL     1       0.124   1.150   0.772  0.00  0.00    +0.024 A 
ATOM      8  C   UNL     1       1.309   1.863   0.780  0.00  0.00    +0.015 A 
ATOM      9  C   UNL     1       2.384   1.422   0.021  0.00  0.00    +0.049 A 
ATOM     10  C   UNL     1       2.264   0.250  -0.755  0.00  0.00    +0.051 A 
ATOM     11  C   UNL     1       1.076  -0.457  -0.757  0.00  0.00    +0.037 A 
ATOM     12  C   UNL     1       0.003  -0.005   0.009  0.00  0.00    +0.036 A 
ATOM     13  C   UNL     1       3.571   0.074  -1.424  0.00  0.00    +0.251 C 
ATOM     14  O   UNL     1       3.864  -0.828  -2.183  0.00  0.00    -0.270 OA
ATOM     15  N   UNL     1       4.381   1.082  -1.052  0.00  0.00    -0.248 N 
ATOM     16  C   UNL     1       3.756   1.917  -0.203  0.00  0.00    +0.251 C 
ATOM     17  O   UNL     1       4.241   2.912   0.297  0.00  0.00    -0.270 OA
ATOM     18  H   UNL     1       5.295   1.192  -1.356  0.00  0.00    +0.158 HD
ENDBRANCH   1  12
BRANCH   4  19
ATOM     19  N   UNL     1      -3.501  -2.150   0.228  0.00  0.00    -0.229 N 
ATOM     20  C   UNL     1      -4.653  -2.841   0.338  0.00  0.00    +0.267 C 
ATOM     21  O   UNL     1      -5.710  -2.248   0.443  0.00  0.00    -0.268 OA
ATOM     22  H   UNL     1      -2.658  -2.622   0.144  0.00  0.00    +0.173 HD
BRANCH  20  23
ATOM     23  C   UNL     1      -4.632  -4.306   0.329  0.00  0.00    +0.076 A 
ATOM     24  C   UNL     1      -5.686  -5.194   0.422  0.00  0.00    +0.024 A 
ATOM     25  C   UNL     1      -5.375  -6.550   0.389  0.00  0.00    -0.036 A 
ATOM     26  C   UNL     1      -4.059  -6.868   0.270  0.00  0.00    -0.006 A 
ATOM     27  S   UNL     1      -3.240  -5.411   0.188  0.00  0.00    -0.088 S 
ATOM     28  C   UNL     1      -3.445  -8.235   0.216  0.00  0.00    +0.043 C 
ATOM     29  C   UNL     1      -4.450  -9.224  -0.384  0.00  0.00    +0.005 C 
ATOM     30  C   UNL     1      -5.295  -9.806   0.746  0.00  0.00    +0.001 C 
ATOM     31  C   UNL     1      -6.065  -8.701   1.464  0.00  0.00    +0.005 C 
ATOM     32  C   UNL     1      -6.470  -7.608   0.481  0.00  0.00    +0.036 C 
ENDBRANCH  20  23
ENDBRANCH   4  19
TORSDOF 3
