REMARK  Name = ZINC40386786
REMARK  8 active torsions:
REMARK  status: ('A' for Active; 'I' for Inactive)
REMARK    1  A    between atoms: C_1  and  C_2
REMARK    2  A    between atoms: C_2  and  C_3
REMARK    3  A    between atoms: C_2  and  C_4
REMARK    4  A    between atoms: C_4  and  N_5
REMARK    5  A    between atoms: C_8  and  C_23
REMARK    6  A    between atoms: C_10  and  N_22
REMARK    7  A    between atoms: N_11  and  C_15
REMARK    8  A    between atoms: C_15  and  C_16
REMARK                            x       y       z     vdW  Elec       q    Type
REMARK                         _______ _______ _______ _____ _____    ______ ____
ROOT
ATOM      1  N   UNL     1      -2.734   0.791  -0.579  0.00  0.00    -0.313 N 
ATOM      2  C   UNL     1      -3.854   0.101  -1.005  0.00  0.00    +0.218 A 
ATOM      3  N   UNL     1      -4.487   0.538  -2.090  0.00  0.00    -0.214 NA
ATOM      4  C   UNL     1      -5.569  -0.064  -2.567  0.00  0.00    +0.089 A 
ATOM      5  C   UNL     1      -6.053  -1.206  -1.890  0.00  0.00    +0.086 A 
ATOM      6  C   UNL     1      -7.113  -2.089  -2.058  0.00  0.00    +0.126 A 
ATOM      7  N   UNL     1      -7.046  -2.995  -1.068  0.00  0.00    -0.244 N 
ATOM      8  N   UNL     1      -5.949  -2.721  -0.243  0.00  0.00    -0.149 NA
ATOM      9  C   UNL     1      -5.321  -1.658  -0.693  0.00  0.00    +0.188 A 
ATOM     10  N   UNL     1      -4.232  -0.958  -0.318  0.00  0.00    -0.193 NA
ATOM     11  H   UNL     1      -2.432   1.574  -1.066  0.00  0.00    +0.149 HD
ENDROOT
BRANCH   4  12
ATOM     12  C   UNL     1      -6.252   0.448  -3.776  0.00  0.00    +0.001 A 
ATOM     13  C   UNL     1      -7.642   0.572  -3.795  0.00  0.00    +0.011 A 
ATOM     14  C   UNL     1      -8.273   1.050  -4.925  0.00  0.00    +0.020 A 
ATOM     15  C   UNL     1      -7.530   1.407  -6.038  0.00  0.00    +0.041 A 
ATOM     16  C   UNL     1      -6.151   1.286  -6.024  0.00  0.00    +0.020 A 
ATOM     17  C   UNL     1      -5.508   0.815  -4.898  0.00  0.00    +0.011 A 
ATOM     18 CL   UNL     1      -8.331   2.009  -7.455  0.00  0.00    -0.084 Cl
ENDBRANCH   4  12
BRANCH   6  19
ATOM     19  N   UNL     1      -8.062  -2.043  -3.062  0.00  0.00    -0.343 N 
ATOM     20  H   UNL     1      -7.889  -1.538  -3.871  0.00  0.00    +0.144 HD
ATOM     21  H   UNL     1      -8.902  -2.517  -2.957  0.00  0.00    +0.144 HD
ENDBRANCH   6  19
BRANCH   1  22
ATOM     22  C   UNL     1      -2.002   0.339   0.607  0.00  0.00    +0.107 C 
BRANCH  22  24
ATOM     23  C   UNL     1      -1.327   2.668   1.208  0.00  0.00    +0.009 C 
ATOM     24  C   UNL     1      -0.814   1.270   0.859  0.00  0.00    -0.000 C 
ATOM     25  C   UNL     1       0.020   0.728   2.022  0.00  0.00    +0.009 C 
ENDBRANCH  22  24
ENDBRANCH   1  22
BRANCH   7  26
ATOM     26  C   UNL     1      -7.983  -4.106  -0.880  0.00  0.00    +0.180 C 
BRANCH  26  27
ATOM     27  C   UNL     1      -7.486  -5.315  -1.629  0.00  0.00    -0.026 A 
ATOM     28  C   UNL     1      -7.862  -5.517  -2.943  0.00  0.00    +0.005 A 
ATOM     29  C   UNL     1      -7.406  -6.627  -3.630  0.00  0.00    +0.000 A 
ATOM     30  C   UNL     1      -6.573  -7.534  -3.002  0.00  0.00    +0.000 A 
ATOM     31  C   UNL     1      -6.195  -7.331  -1.688  0.00  0.00    +0.000 A 
ATOM     32  C   UNL     1      -6.648  -6.220  -1.002  0.00  0.00    +0.005 A 
ENDBRANCH  26  27
ENDBRANCH   7  26
TORSDOF 6
