REMARK  Name = ZINC39675574
REMARK  11 active torsions:
REMARK  status: ('A' for Active; 'I' for Inactive)
REMARK    1  A    between atoms: C_1  and  C_2
REMARK    2  A    between atoms: C_2  and  O_4
REMARK    3  A    between atoms: O_4  and  C_5
REMARK    4  A    between atoms: C_10  and  C_11
REMARK    5  A    between atoms: C_15  and  C_24
REMARK    6  A    between atoms: N_26  and  C_27
REMARK    7  A    between atoms: C_27  and  C_28
REMARK    8  A    between atoms: C_28  and  C_30
REMARK    9  A    between atoms: C_28  and  N_36
REMARK   10  A    between atoms: N_36  and  C_37
REMARK   11  A    between atoms: N_36  and  C_38
REMARK                            x       y       z     vdW  Elec       q    Type
REMARK                         _______ _______ _______ _____ _____    ______ ____
ROOT
ATOM      1  C   UNL     1      -3.757  -2.006  -0.104  0.00  0.00    +0.250 C 
ATOM      2  O   UNL     1      -3.948  -0.817  -0.273  0.00  0.00    -0.270 OA
ATOM      3  N   UNL     1      -4.800  -2.860  -0.093  0.00  0.00    -0.296 N 
ATOM      4  C   UNL     1      -4.762  -4.338   0.008  0.00  0.00    +0.121 C 
ATOM      5  C   UNL     1      -5.948  -4.697   0.930  0.00  0.00    +0.100 C 
ATOM      6  C   UNL     1      -6.918  -3.510   0.802  0.00  0.00    -0.004 C 
ATOM      7  C   UNL     1      -6.244  -2.533  -0.172  0.00  0.00    +0.115 C 
ATOM      8  C   UNL     1      -8.256  -3.979   0.240  0.00  0.00    -0.010 C 
ATOM      9  C   UNL     1      -9.222  -2.793   0.177  0.00  0.00    -0.082 C 
ATOM     10  N   UNL     1      -9.403  -2.234   1.522  0.00  0.00    +0.379 N 
ATOM     11  C   UNL     1      -8.128  -1.701   2.018  0.00  0.00    -0.082 C 
ATOM     12  C   UNL     1      -7.116  -2.842   2.159  0.00  0.00    -0.010 C 
ATOM     13  H   UNL     1     -10.086  -1.492   1.488  0.00  0.00    -0.086 HD
ATOM     14  H   UNL     1      -9.728  -2.958   2.145  0.00  0.00    -0.086 HD
ENDROOT
BRANCH   1  20
ATOM     15  C   UNL     1      -1.454  -1.766   0.822  0.00  0.00    +0.144 A 
ATOM     16  C   UNL     1      -0.169  -2.255   1.002  0.00  0.00    +0.047 A 
ATOM     17  C   UNL     1       0.191  -3.471   0.457  0.00  0.00    +0.004 A 
ATOM     18  C   UNL     1      -0.725  -4.211  -0.274  0.00  0.00    +0.001 A 
ATOM     19  C   UNL     1      -2.006  -3.739  -0.463  0.00  0.00    +0.017 A 
ATOM     20  C   UNL     1      -2.385  -2.514   0.089  0.00  0.00    +0.079 A 
BRANCH  15  21
ATOM     21  O   UNL     1      -1.810  -0.571   1.358  0.00  0.00    -0.425 OA
BRANCH  21  23
ATOM     22  C   UNL     1      -2.696   0.735   3.258  0.00  0.00    +0.136 C 
ATOM     23  C   UNL     1      -2.387  -0.571   2.571  0.00  0.00    +0.309 C 
ATOM     24  O   UNL     1      -2.658  -1.617   3.111  0.00  0.00    -0.251 OA
ENDBRANCH  21  23
ENDBRANCH  15  21
ENDBRANCH   1  20
BRANCH   5  25
ATOM     25  C   UNL     1      -6.608  -5.970   0.465  0.00  0.00    +0.218 C 
ATOM     26  O   UNL     1      -6.528  -6.304  -0.699  0.00  0.00    -0.275 OA
ATOM     27  N   UNL     1      -7.288  -6.736   1.341  0.00  0.00    -0.316 N 
ATOM     28  H   UNL     1      -7.352  -6.469   2.271  0.00  0.00    +0.149 HD
BRANCH  27  29
ATOM     29  C   UNL     1      -7.929  -7.973   0.888  0.00  0.00    +0.093 C 
BRANCH  29  30
ATOM     30  C   UNL     1      -8.731  -8.582   2.039  0.00  0.00    -0.021 C 
BRANCH  30  31
ATOM     31  C   UNL     1      -9.854  -7.651   2.418  0.00  0.00    -0.059 A 
ATOM     32  C   UNL     1     -11.017  -7.631   1.671  0.00  0.00    +0.002 A 
ATOM     33  C   UNL     1     -12.047  -6.776   2.019  0.00  0.00    +0.000 A 
ATOM     34  C   UNL     1     -11.914  -5.942   3.113  0.00  0.00    +0.000 A 
ATOM     35  C   UNL     1     -10.751  -5.963   3.860  0.00  0.00    +0.000 A 
ATOM     36  C   UNL     1      -9.723  -6.820   3.515  0.00  0.00    +0.002 A 
ENDBRANCH  30  31
BRANCH  30  37
ATOM     37  N   UNL     1      -9.289  -9.875   1.618  0.00  0.00    +0.382 N 
ATOM     38  C   UNL     1      -8.193 -10.818   1.357  0.00  0.00    -0.096 C 
ATOM     39  C   UNL     1     -10.150 -10.407   2.682  0.00  0.00    -0.096 C 
ATOM     40  H   UNL     1      -9.832  -9.749   0.777  0.00  0.00    -0.082 HD
ENDBRANCH  30  37
ENDBRANCH  29  30
ENDBRANCH  27  29
ENDBRANCH   5  25
TORSDOF 8
