REMARK  Name = ZINC18581045
REMARK  11 active torsions:
REMARK  status: ('A' for Active; 'I' for Inactive)
REMARK    1  A    between atoms: C_1  and  C_2
REMARK    2  A    between atoms: C_2  and  C_3
REMARK    3  A    between atoms: C_3  and  C_5
REMARK    4  A    between atoms: C_3  and  C_6
REMARK    5  A    between atoms: C_6  and  C_7
REMARK    6  A    between atoms: C_8  and  C_33
REMARK    7  A    between atoms: C_16  and  S_18
REMARK    8  A    between atoms: S_18  and  C_19
REMARK    9  A    between atoms: C_19  and  C_21
REMARK   10  A    between atoms: C_19  and  C_22
REMARK   11  A    between atoms: N_27  and  C_28
REMARK                            x       y       z     vdW  Elec       q    Type
REMARK                         _______ _______ _______ _____ _____    ______ ____
ROOT
ATOM      1  C   UNL     1      14.517   1.741  -0.593  0.00  0.00    -0.023 A 
ATOM      2  C   UNL     1      14.379   1.534  -1.911  0.00  0.00    -0.007 A 
ATOM      3  S   UNL     1      12.612   1.535  -2.147  0.00  0.00    -0.073 S 
ATOM      4  C   UNL     1      12.110   1.814  -0.468  0.00  0.00    +0.117 A 
ATOM      5  C   UNL     1      13.330   1.898   0.229  0.00  0.00    +0.075 A 
ATOM      6  C   UNL     1      13.227   2.124   1.638  0.00  0.00    +0.261 A 
ATOM      7  O   UNL     1      14.232   2.211   2.324  0.00  0.00    -0.267 OA
ATOM      8  N   UNL     1      12.008   2.240   2.196  0.00  0.00    -0.301 N 
ATOM      9  H   UNL     1      11.935   2.393   3.151  0.00  0.00    +0.171 HD
ATOM     10  C   UNL     1      10.873   2.145   1.444  0.00  0.00    +0.171 A 
ATOM     11  N   UNL     1      10.938   1.931   0.146  0.00  0.00    -0.216 NA
ATOM     12  C   UNL     1      15.459   1.346  -2.945  0.00  0.00    +0.052 C 
ENDROOT
BRANCH   1  13
ATOM     13  C   UNL     1      15.889   1.810   0.028  0.00  0.00    +0.040 C 
BRANCH  13  14
ATOM     14  C   UNL     1      16.322   0.409   0.465  0.00  0.00    -0.010 C 
ATOM     15  C   UNL     1      15.398  -0.086   1.580  0.00  0.00    +0.008 C 
BRANCH  14  17
ATOM     16  C   UNL     1      18.237  -0.960   1.301  0.00  0.00    +0.004 C 
ATOM     17  C   UNL     1      17.762   0.458   0.981  0.00  0.00    +0.000 C 
ENDBRANCH  14  17
ENDBRANCH  13  14
ENDBRANCH   1  13
BRANCH  10  18
ATOM     18  S   UNL     1       9.300   2.303   2.221  0.00  0.00    -0.075 S 
BRANCH  18  19
ATOM     19  C   UNL     1       8.218   2.098   0.785  0.00  0.00    +0.137 C 
ATOM     20  C   UNL     1       8.430   3.264  -0.183  0.00  0.00    +0.029 C 
BRANCH  19  21
ATOM     21  C   UNL     1       6.781   2.076   1.238  0.00  0.00    +0.233 C 
ATOM     22  O   UNL     1       6.464   2.617   2.276  0.00  0.00    -0.274 OA
ATOM     23  N   UNL     1       5.848   1.455   0.490  0.00  0.00    -0.239 N 
ATOM     24  C   UNL     1       4.563   1.435   0.895  0.00  0.00    +0.306 C 
ATOM     25  O   UNL     1       4.245   1.978   1.935  0.00  0.00    -0.252 OA
ATOM     26  N   UNL     1       3.630   0.814   0.146  0.00  0.00    -0.296 N 
ATOM     27  H   UNL     1       6.101   1.022  -0.341  0.00  0.00    +0.159 HD
ATOM     28  H   UNL     1       3.883   0.381  -0.684  0.00  0.00    +0.151 HD
BRANCH  26  29
ATOM     29  C   UNL     1       2.232   0.792   0.586  0.00  0.00    +0.074 C 
ATOM     30  C   UNL     1       1.453   1.995  -0.001  0.00  0.00    +0.022 C 
ATOM     31  C   UNL     1      -0.019   1.534   0.011  0.00  0.00    +0.002 C 
ATOM     32  C   UNL     1       0.002  -0.004   0.002  0.00  0.00    +0.002 C 
ATOM     33  C   UNL     1       1.486  -0.425  -0.014  0.00  0.00    +0.022 C 
ENDBRANCH  26  29
ENDBRANCH  19  21
ENDBRANCH  18  19
ENDBRANCH  10  18
TORSDOF 7
