REMARK  Name = ZINC39659885
REMARK  8 active torsions:
REMARK  status: ('A' for Active; 'I' for Inactive)
REMARK    1  A    between atoms: C_1  and  C_2
REMARK    2  A    between atoms: C_4  and  C_11
REMARK    3  A    between atoms: N_5  and  C_7
REMARK    4  A    between atoms: C_7  and  C_8
REMARK    5  A    between atoms: C_7  and  C_9
REMARK    6  A    between atoms: C_7  and  C_10
REMARK    7  A    between atoms: C_15  and  C_24
REMARK    8  A    between atoms: N_26  and  C_27
REMARK                            x       y       z     vdW  Elec       q    Type
REMARK                         _______ _______ _______ _____ _____    ______ ____
ROOT
ATOM      1  C   UNL     1      -0.589  -4.129  -1.200  0.00  0.00    +0.265 C 
ATOM      2  O   UNL     1      -0.871  -4.005  -2.377  0.00  0.00    -0.268 OA
ATOM      3  N   UNL     1      -0.721  -5.327  -0.598  0.00  0.00    -0.295 N 
ATOM      4  C   UNL     1      -0.557  -5.644   0.840  0.00  0.00    +0.121 C 
ATOM      5  C   UNL     1      -1.677  -6.663   1.145  0.00  0.00    +0.100 C 
ATOM      6  C   UNL     1      -2.004  -7.306  -0.213  0.00  0.00    -0.004 C 
ATOM      7  C   UNL     1      -1.069  -6.625  -1.224  0.00  0.00    +0.115 C 
ATOM      8  C   UNL     1      -1.731  -8.806  -0.168  0.00  0.00    -0.010 C 
ATOM      9  C   UNL     1      -2.117  -9.432  -1.511  0.00  0.00    -0.082 C 
ATOM     10  N   UNL     1      -3.538  -9.181  -1.778  0.00  0.00    +0.379 N 
ATOM     11  C   UNL     1      -3.776  -7.739  -1.913  0.00  0.00    -0.082 C 
ATOM     12  C   UNL     1      -3.459  -7.042  -0.587  0.00  0.00    -0.010 C 
ATOM     13  H   UNL     1      -3.805  -9.646  -2.634  0.00  0.00    -0.086 HD
ATOM     14  H   UNL     1      -4.092  -9.542  -1.016  0.00  0.00    -0.086 HD
ENDROOT
BRANCH   1  18
ATOM     15  C   UNL     1       1.313  -1.131   2.421  0.00  0.00    +0.067 C 
ATOM     16  C   UNL     1       0.726  -1.649   1.134  0.00  0.00    +0.061 A 
ATOM     17  C   UNL     1       0.402  -2.978   0.855  0.00  0.00    +0.057 A 
ATOM     18  C   UNL     1      -0.102  -2.970  -0.434  0.00  0.00    +0.124 A 
ATOM     19  N   UNL     1      -0.058  -1.671  -0.853  0.00  0.00    -0.254 N 
ATOM     20  N   UNL     1       0.423  -0.932   0.082  0.00  0.00    -0.175 NA
BRANCH  19  21
ATOM     21  C   UNL     1      -0.495  -1.191  -2.167  0.00  0.00    +0.056 C 
ATOM     22  C   UNL     1      -1.945  -1.618  -2.408  0.00  0.00    +0.036 C 
ATOM     23  C   UNL     1      -0.400   0.335  -2.210  0.00  0.00    +0.036 C 
ATOM     24  C   UNL     1       0.400  -1.790  -3.253  0.00  0.00    +0.036 C 
ENDBRANCH  19  21
ENDBRANCH   1  18
BRANCH   5  25
ATOM     25  C   UNL     1      -1.188  -7.706   2.117  0.00  0.00    +0.218 C 
ATOM     26  O   UNL     1      -0.005  -7.969   2.180  0.00  0.00    -0.275 OA
ATOM     27  N   UNL     1      -2.064  -8.345   2.917  0.00  0.00    -0.312 N 
ATOM     28  H   UNL     1      -3.016  -8.191   2.816  0.00  0.00    +0.149 HD
BRANCH  27  29
ATOM     29  C   UNL     1      -1.578  -9.274   3.941  0.00  0.00    +0.073 C 
ATOM     30  C   UNL     1      -1.365 -10.655   3.317  0.00  0.00    +0.022 C 
ATOM     31  C   UNL     1      -0.500 -11.507   4.247  0.00  0.00    +0.002 C 
ATOM     32  C   UNL     1       0.667 -10.669   4.771  0.00  0.00    +0.000 C 
ATOM     33  C   UNL     1       0.503 -10.448   6.276  0.00  0.00    +0.000 C 
ATOM     34  C   UNL     1      -0.576  -9.391   6.521  0.00  0.00    +0.000 C 
ATOM     35  C   UNL     1      -1.957 -10.011   6.298  0.00  0.00    +0.002 C 
ATOM     36  C   UNL     1      -2.608  -9.377   5.067  0.00  0.00    +0.022 C 
ENDBRANCH  27  29
ENDBRANCH   5  25
TORSDOF 4
