REMARK  Name = ZINC49152279
REMARK  3 active torsions:
REMARK  status: ('A' for Active; 'I' for Inactive)
REMARK    1  A    between atoms: C_3  and  N_9
REMARK    2  A    between atoms: N_9  and  C_10
REMARK    3  A    between atoms: C_15  and  N_16
REMARK                            x       y       z     vdW  Elec       q    Type
REMARK                         _______ _______ _______ _____ _____    ______ ____
ROOT
ATOM      1  C   UNL     1       3.618   3.516  -0.105  0.00  0.00    +0.054 A 
ATOM      2  C   UNL     1       2.437   4.235  -0.078  0.00  0.00    +0.053 A 
ATOM      3  C   UNL     1       2.471   5.626  -0.161  0.00  0.00    +0.080 A 
ATOM      4  C   UNL     1       3.716   6.287  -0.272  0.00  0.00    +0.067 A 
ATOM      5  C   UNL     1       4.902   5.551  -0.298  0.00  0.00    +0.040 A 
ATOM      6  C   UNL     1       4.852   4.174  -0.210  0.00  0.00    +0.047 A 
ATOM      7  C   UNL     1       3.713   7.752  -0.358  0.00  0.00    +0.259 A 
ATOM      8  O   UNL     1       4.752   8.382  -0.456  0.00  0.00    -0.267 OA
ATOM      9  N   UNL     1       2.514   8.377  -0.325  0.00  0.00    -0.313 N 
ATOM     10  H   UNL     1       2.474   9.345  -0.379  0.00  0.00    +0.170 HD
ATOM     11  C   UNL     1       1.363   7.662  -0.216  0.00  0.00    +0.199 A 
ATOM     12  N   UNL     1       1.333   6.366  -0.138  0.00  0.00    -0.237 NA
ENDROOT
BRANCH   6  13
ATOM     13  N   UNL     1       6.038   3.432  -0.231  0.00  0.00    -0.357 N 
ATOM     14  H   UNL     1       6.005   2.464  -0.172  0.00  0.00    +0.142 HD
ATOM     15  H   UNL     1       6.893   3.885  -0.303  0.00  0.00    +0.142 HD
ENDBRANCH   6  13
BRANCH   1  16
ATOM     16  N   UNL     1       3.583   2.125  -0.021  0.00  0.00    -0.312 N 
ATOM     17  H   UNL     1       4.213   1.657   0.548  0.00  0.00    +0.152 HD
BRANCH  16  20
ATOM     18  C   UNL     1       0.880   1.346  -2.388  0.00  0.00    +0.017 A 
ATOM     19  C   UNL     1       1.812   2.060  -1.661  0.00  0.00    +0.025 A 
ATOM     20  C   UNL     1       2.639   1.404  -0.758  0.00  0.00    +0.046 A 
ATOM     21  C   UNL     1       2.525   0.029  -0.589  0.00  0.00    +0.040 A 
ATOM     22  C   UNL     1       1.591  -0.680  -1.319  0.00  0.00    +0.032 A 
ATOM     23  C   UNL     1       0.769  -0.023  -2.218  0.00  0.00    +0.019 A 
ATOM     24 BR   UNL     1      -0.508  -0.997  -3.216  0.00  0.00    -0.050 Br
ATOM     25 BR   UNL     1       3.648  -0.870   0.638  0.00  0.00    -0.048 Br
ENDBRANCH  16  20
ENDBRANCH   1  16
TORSDOF 3
