REMARK  Name = ZINC06282188
REMARK  10 active torsions:
REMARK  status: ('A' for Active; 'I' for Inactive)
REMARK    1  A    between atoms: C_1  and  C_2
REMARK    2  A    between atoms: C_7  and  C_14
REMARK    3  A    between atoms: C_14  and  C_16
REMARK    4  A    between atoms: C_14  and  N_69
REMARK    5  A    between atoms: N_20  and  C_21
REMARK    6  A    between atoms: C_21  and  C_22
REMARK    7  A    between atoms: C_28  and  C_29
REMARK    8  A    between atoms: C_28  and  N_69
REMARK    9  A    between atoms: C_35  and  C_36
REMARK   10  A    between atoms: C_35  and  N_69
REMARK                            x       y       z     vdW  Elec       q    Type
REMARK                         _______ _______ _______ _____ _____    ______ ____
ROOT
ATOM      1  C   UNL     1       3.833   7.224  -1.803  0.00  0.00    +0.040 C 
ENDROOT
BRANCH   1   8
ATOM      2  C   UNL     1      -3.755   7.038   0.647  0.00  0.00    +0.044 C 
ATOM      3  C   UNL     1      -2.353   7.303   0.161  0.00  0.00    -0.048 A 
ATOM      4  C   UNL     1      -1.969   8.600  -0.153  0.00  0.00    +0.004 A 
ATOM      5  C   UNL     1      -0.704   8.862  -0.596  0.00  0.00    +0.010 A 
ATOM      6  C   UNL     1       0.213   7.815  -0.734  0.00  0.00    -0.001 A 
ATOM      7  C   UNL     1       1.579   8.061  -1.201  0.00  0.00    +0.017 A 
ATOM      8  C   UNL     1       2.423   7.006  -1.320  0.00  0.00    +0.011 A 
ATOM      9  C   UNL     1       1.986   5.705  -0.988  0.00  0.00    +0.251 A 
ATOM     10  O   UNL     1       2.762   4.772  -1.098  0.00  0.00    -0.268 OA
ATOM     11  N   UNL     1       0.736   5.471  -0.553  0.00  0.00    -0.322 N 
ATOM     12  H   UNL     1       0.468   4.564  -0.333  0.00  0.00    +0.169 HD
ATOM     13  C   UNL     1      -0.172   6.499  -0.415  0.00  0.00    +0.049 A 
ATOM     14  C   UNL     1      -1.466   6.256   0.033  0.00  0.00    +0.029 A 
ENDBRANCH   1   8
BRANCH   1  15
ATOM     15  C   UNL     1       4.038   6.492  -3.104  0.00  0.00    +0.143 A 
ATOM     16  N   UNL     1       3.157   6.339  -4.062  0.00  0.00    -0.115 NA
ATOM     17  N   UNL     1       3.709   5.657  -5.006  0.00  0.00    -0.023 NA
ATOM     18  N   UNL     1       4.922   5.377  -4.677  0.00  0.00    -0.044 NA
ATOM     19  N   UNL     1       5.160   5.869  -3.508  0.00  0.00    -0.226 N 
BRANCH  19  20
ATOM     20  C   UNL     1       6.418   5.773  -2.764  0.00  0.00    +0.182 C 
BRANCH  20  21
ATOM     21  C   UNL     1       6.460   4.467  -2.013  0.00  0.00    -0.026 A 
ATOM     22  C   UNL     1       6.874   3.315  -2.654  0.00  0.00    +0.005 A 
ATOM     23  C   UNL     1       6.912   2.117  -1.965  0.00  0.00    +0.000 A 
ATOM     24  C   UNL     1       6.531   2.070  -0.637  0.00  0.00    +0.000 A 
ATOM     25  C   UNL     1       6.122   3.224   0.005  0.00  0.00    +0.000 A 
ATOM     26  C   UNL     1       6.084   4.422  -0.684  0.00  0.00    +0.005 A 
ENDBRANCH  20  21
ENDBRANCH  19  20
ENDBRANCH   1  15
BRANCH   1  27
ATOM     27  N   UNL     1       4.092   8.663  -2.016  0.00  0.00    +0.395 N 
ATOM     28  H   UNL     1       5.064   8.786  -2.322  0.00  0.00    -0.079 HD
BRANCH  27  29
ATOM     29  C   UNL     1       3.189   9.189  -3.062  0.00  0.00    -0.041 C 
BRANCH  29  30
ATOM     30  C   UNL     1       3.861   9.027  -4.401  0.00  0.00    -0.064 A 
ATOM     31  C   UNL     1       5.237   9.127  -4.501  0.00  0.00    +0.002 A 
ATOM     32  C   UNL     1       5.853   8.973  -5.728  0.00  0.00    +0.000 A 
ATOM     33  C   UNL     1       5.094   8.729  -6.857  0.00  0.00    +0.000 A 
ATOM     34  C   UNL     1       3.719   8.635  -6.758  0.00  0.00    +0.000 A 
ATOM     35  C   UNL     1       3.102   8.783  -5.530  0.00  0.00    +0.002 A 
ENDBRANCH  29  30
ENDBRANCH  27  29
BRANCH  27  36
ATOM     36  C   UNL     1       3.889   9.405  -0.754  0.00  0.00    -0.040 C 
BRANCH  36  37
ATOM     37  C   UNL     1       5.109   9.227   0.112  0.00  0.00    -0.046 A 
ATOM     38  C   UNL     1       5.127   8.268   1.113  0.00  0.00    +0.005 A 
ATOM     39  C   UNL     1       6.273   8.137   1.882  0.00  0.00    +0.020 A 
ATOM     40  C   UNL     1       7.349   8.967   1.633  0.00  0.00    +0.111 A 
ATOM     41  N   UNL     1       7.296   9.873   0.676  0.00  0.00    -0.263 NA
ATOM     42  C   UNL     1       6.224  10.022  -0.078  0.00  0.00    +0.112 A 
ENDBRANCH  36  37
ENDBRANCH  27  36
ENDBRANCH   1  27
TORSDOF 9
