REMARK  Name = ZINC06244786
REMARK  10 active torsions:
REMARK  status: ('A' for Active; 'I' for Inactive)
REMARK    1  A    between atoms: C_1  and  C_2
REMARK    2  A    between atoms: C_5  and  C_41
REMARK    3  A    between atoms: C_9  and  C_14
REMARK    4  A    between atoms: C_14  and  C_16
REMARK    5  A    between atoms: C_14  and  N_75
REMARK    6  A    between atoms: N_20  and  C_21
REMARK    7  A    between atoms: C_27  and  C_28
REMARK    8  A    between atoms: C_27  and  N_75
REMARK    9  A    between atoms: C_34  and  C_35
REMARK   10  A    between atoms: C_34  and  N_75
REMARK                            x       y       z     vdW  Elec       q    Type
REMARK                         _______ _______ _______ _____ _____    ______ ____
ROOT
ATOM      1  C   UNL     1       2.112   3.029  -0.346  0.00  0.00    +0.040 C 
ENDROOT
BRANCH   1  10
ATOM      2  C   UNL     1       0.605   5.753  -4.520  0.00  0.00    +0.044 C 
ATOM      3  C   UNL     1       1.886   5.048  -4.884  0.00  0.00    -0.041 A 
ATOM      4  C   UNL     1       2.423   5.203  -6.131  0.00  0.00    +0.004 A 
ATOM      5  C   UNL     1       3.603   4.559  -6.476  0.00  0.00    +0.005 A 
ATOM      6  C   UNL     1       4.255   3.750  -5.569  0.00  0.00    -0.026 A 
ATOM      7  C   UNL     1       3.726   3.577  -4.295  0.00  0.00    +0.052 A 
ATOM      8  C   UNL     1       2.529   4.233  -3.948  0.00  0.00    +0.002 A 
ATOM      9  C   UNL     1       1.981   4.045  -2.603  0.00  0.00    +0.018 A 
ATOM     10  C   UNL     1       2.650   3.244  -1.738  0.00  0.00    +0.011 A 
ATOM     11  C   UNL     1       3.849   2.614  -2.133  0.00  0.00    +0.251 A 
ATOM     12  O   UNL     1       4.436   1.901  -1.338  0.00  0.00    -0.268 OA
ATOM     13  N   UNL     1       4.357   2.775  -3.368  0.00  0.00    -0.322 N 
ATOM     14  H   UNL     1       5.182   2.325  -3.608  0.00  0.00    +0.169 HD
ATOM     15  C   UNL     1       5.535   3.057  -5.958  0.00  0.00    +0.046 C 
ENDBRANCH   1  10
BRANCH   1  16
ATOM     16  C   UNL     1       1.766   1.574  -0.160  0.00  0.00    +0.143 A 
ATOM     17  N   UNL     1       2.577   0.621   0.230  0.00  0.00    -0.115 NA
ATOM     18  N   UNL     1       1.908  -0.480   0.265  0.00  0.00    -0.023 NA
ATOM     19  N   UNL     1       0.692  -0.254  -0.091  0.00  0.00    -0.044 NA
ATOM     20  N   UNL     1       0.565   1.002  -0.361  0.00  0.00    -0.227 N 
BRANCH  20  21
ATOM     21  C   UNL     1      -0.656   1.676  -0.810  0.00  0.00    +0.111 C 
ATOM     22  C   UNL     1      -1.800   1.353   0.153  0.00  0.00    +0.027 C 
ATOM     23  C   UNL     1      -3.075   2.057  -0.315  0.00  0.00    +0.002 C 
ATOM     24  C   UNL     1      -3.439   1.572  -1.719  0.00  0.00    +0.000 C 
ATOM     25  C   UNL     1      -2.295   1.895  -2.683  0.00  0.00    +0.002 C 
ATOM     26  C   UNL     1      -1.020   1.191  -2.215  0.00  0.00    +0.027 C 
ENDBRANCH  20  21
ENDBRANCH   1  16
BRANCH   1  27
ATOM     27  N   UNL     1       3.151   3.399   0.638  0.00  0.00    +0.395 N 
ATOM     28  H   UNL     1       3.870   2.666   0.656  0.00  0.00    -0.079 HD
BRANCH  27  29
ATOM     29  C   UNL     1       3.781   4.679   0.250  0.00  0.00    -0.041 C 
BRANCH  29  30
ATOM     30  C   UNL     1       4.975   4.922   1.137  0.00  0.00    -0.064 A 
ATOM     31  C   UNL     1       4.830   5.633   2.313  0.00  0.00    +0.002 A 
ATOM     32  C   UNL     1       5.924   5.851   3.129  0.00  0.00    +0.000 A 
ATOM     33  C   UNL     1       7.166   5.367   2.763  0.00  0.00    +0.000 A 
ATOM     34  C   UNL     1       7.313   4.660   1.584  0.00  0.00    +0.000 A 
ATOM     35  C   UNL     1       6.217   4.437   0.771  0.00  0.00    +0.002 A 
ENDBRANCH  29  30
ENDBRANCH  27  29
BRANCH  27  36
ATOM     36  C   UNL     1       2.553   3.518   1.984  0.00  0.00    -0.040 C 
BRANCH  36  37
ATOM     37  C   UNL     1       2.366   2.135   2.553  0.00  0.00    -0.046 A 
ATOM     38  C   UNL     1       1.127   1.515   2.498  0.00  0.00    +0.005 A 
ATOM     39  C   UNL     1       1.004   0.240   3.030  0.00  0.00    +0.020 A 
ATOM     40  C   UNL     1       2.109  -0.361   3.602  0.00  0.00    +0.111 A 
ATOM     41  N   UNL     1       3.271   0.262   3.641  0.00  0.00    -0.263 NA
ATOM     42  C   UNL     1       3.426   1.472   3.141  0.00  0.00    +0.112 A 
ENDBRANCH  36  37
ENDBRANCH  27  36
ENDBRANCH   1  27
TORSDOF 8
