REMARK  Name = ZINC48548090
REMARK  12 active torsions:
REMARK  status: ('A' for Active; 'I' for Inactive)
REMARK    1  A    between atoms: C_1  and  C_2
REMARK    2  A    between atoms: C_2  and  C_8
REMARK    3  A    between atoms: N_3  and  N_4
REMARK    4  A    between atoms: C_8  and  C_10
REMARK    5  A    between atoms: C_8  and  C_18
REMARK    6  A    between atoms: C_10  and  N_11
REMARK    7  A    between atoms: N_11  and  C_12
REMARK    8  A    between atoms: N_11  and  C_15
REMARK    9  A    between atoms: C_12  and  C_13
REMARK   10  A    between atoms: C_15  and  C_16
REMARK   11  A    between atoms: C_18  and  C_20
REMARK   12  A    between atoms: C_18  and  C_26
REMARK                            x       y       z     vdW  Elec       q    Type
REMARK                         _______ _______ _______ _____ _____    ______ ____
ROOT
ATOM      1  C   UNL     1      -0.068  -0.306  -1.071  0.00  0.00    +0.030 C 
ENDROOT
BRANCH   1   3
ATOM      2  C   UNL     1       0.300   1.959   0.173  0.00  0.00    +0.063 C 
ATOM      3  C   UNL     1       0.574   0.483   0.041  0.00  0.00    +0.038 C 
ATOM      4  N   UNL     1       1.353  -0.100   0.873  0.00  0.00    -0.181 NA
BRANCH   4   5
ATOM      5  N   UNL     1       1.950   0.634   1.906  0.00  0.00    -0.249 N 
ATOM      6  C   UNL     1       2.784   0.010   2.797  0.00  0.00    +0.187 C 
ATOM      7  N   UNL     1       3.352   0.708   3.779  0.00  0.00    -0.370 N 
ATOM      8  N   UNL     1       3.026  -1.295   2.680  0.00  0.00    -0.370 N 
ATOM      9  H   UNL     1       1.774   1.584   1.991  0.00  0.00    +0.192 HD
ATOM     10  H   UNL     1       3.175   1.658   3.864  0.00  0.00    +0.159 HD
ATOM     11  H   UNL     1       2.613  -1.803   1.965  0.00  0.00    +0.159 HD
ATOM     12  H   UNL     1       3.616  -1.736   3.311  0.00  0.00    +0.159 HD
ATOM     13  H   UNL     1       3.942   0.266   4.410  0.00  0.00    +0.159 HD
ENDBRANCH   4   5
ENDBRANCH   1   3
BRANCH   1  14
ATOM     14  C   UNL     1       0.515  -1.721  -1.094  0.00  0.00    -0.068 C 
BRANCH  14  15
ATOM     15  N   UNL     1      -0.044  -2.462  -2.232  0.00  0.00    +0.385 N 
ATOM     16  H   UNL     1      -1.022  -2.234  -2.335  0.00  0.00    -0.081 HD
BRANCH  15  17
ATOM     17  C   UNL     1       0.676  -2.092  -3.458  0.00  0.00    -0.051 C 
BRANCH  17  18
ATOM     18  C   UNL     1       0.372  -0.658  -3.806  0.00  0.00    -0.053 C 
ATOM     19  C   UNL     1       1.349   0.205  -3.941  0.00  0.00    +0.002 C 
ENDBRANCH  17  18
ENDBRANCH  15  17
BRANCH  15  20
ATOM     20  C   UNL     1       0.100  -3.905  -1.996  0.00  0.00    -0.051 C 
BRANCH  20  21
ATOM     21  C   UNL     1      -0.739  -4.305  -0.809  0.00  0.00    -0.053 C 
ATOM     22  C   UNL     1      -1.627  -5.260  -0.928  0.00  0.00    +0.002 C 
ENDBRANCH  20  21
ENDBRANCH  15  20
ENDBRANCH  14  15
ENDBRANCH   1  14
BRANCH   1  23
ATOM     23  C   UNL     1      -1.578  -0.380  -0.837  0.00  0.00    +0.067 C 
BRANCH  23  24
ATOM     24  C   UNL     1      -2.164   1.007  -0.895  0.00  0.00    +0.092 A 
ATOM     25  C   UNL     1      -1.807   1.861  -1.902  0.00  0.00    +0.200 A 
ATOM     26  C   UNL     1      -2.408   3.204  -1.914  0.00  0.00    +0.065 A 
ATOM     27  C   UNL     1      -2.089   4.127  -2.913  0.00  0.00    +0.015 A 
ATOM     28  C   UNL     1      -2.669   5.376  -2.895  0.00  0.00    +0.001 A 
ATOM     29  C   UNL     1      -3.565   5.718  -1.893  0.00  0.00    +0.004 A 
ATOM     30  C   UNL     1      -3.889   4.816  -0.901  0.00  0.00    +0.047 A 
ATOM     31  C   UNL     1      -3.315   3.551  -0.900  0.00  0.00    +0.143 A 
ATOM     32  O   UNL     1      -3.622   2.655   0.063  0.00  0.00    -0.422 OA
ATOM     33  C   UNL     1      -3.083   1.426   0.079  0.00  0.00    +0.345 A 
ATOM     34  O   UNL     1      -3.396   0.653   0.968  0.00  0.00    -0.245 OA
ATOM     35  O   UNL     1      -0.928   1.483  -2.858  0.00  0.00    -0.287 OA
ENDBRANCH  23  24
BRANCH  23  36
ATOM     36  C   UNL     1      -1.848  -0.982   0.518  0.00  0.00    -0.039 A 
ATOM     37  C   UNL     1      -1.272  -0.430   1.647  0.00  0.00    +0.004 A 
ATOM     38  C   UNL     1      -1.519  -0.982   2.890  0.00  0.00    +0.000 A 
ATOM     39  C   UNL     1      -2.342  -2.087   3.004  0.00  0.00    +0.000 A 
ATOM     40  C   UNL     1      -2.919  -2.639   1.875  0.00  0.00    +0.000 A 
ATOM     41  C   UNL     1      -2.675  -2.084   0.633  0.00  0.00    +0.004 A 
ENDBRANCH  23  36
ENDBRANCH   1  23
TORSDOF 11
