REMARK  Name = ZINC54104348
REMARK  5 active torsions:
REMARK  status: ('A' for Active; 'I' for Inactive)
REMARK    1  A    between atoms: C_1  and  C_2
REMARK    2  A    between atoms: C_12  and  C_14
REMARK    3  A    between atoms: N_21  and  C_22
REMARK    4  A    between atoms: C_22  and  C_24
REMARK    5  A    between atoms: C_25  and  C_26
REMARK                            x       y       z     vdW  Elec       q    Type
REMARK                         _______ _______ _______ _____ _____    ______ ____
ROOT
ATOM      1  C   UNL     1       0.189   1.562   0.172  0.00  0.00    +0.062 C 
ATOM      2  C   UNL     1       0.212   0.064   0.014  0.00  0.00    +0.031 C 
ATOM      3  N   UNL     1       0.343  -0.432  -1.149  0.00  0.00    -0.254 NA
ATOM      4  C   UNL     1       0.358  -1.758  -1.463  0.00  0.00    +0.085 A 
ATOM      5  C   UNL     1      -0.349  -2.146  -2.612  0.00  0.00    +0.029 A 
ATOM      6  C   UNL     1      -0.381  -3.465  -3.004  0.00  0.00    +0.002 A 
ATOM      7  C   UNL     1       0.290  -4.423  -2.263  0.00  0.00    +0.002 A 
ATOM      8  C   UNL     1       0.987  -4.058  -1.132  0.00  0.00    +0.025 A 
ATOM      9  C   UNL     1       1.028  -2.725  -0.718  0.00  0.00    +0.058 A 
ATOM     10  N   UNL     1       1.742  -2.448   0.439  0.00  0.00    -0.302 N 
ATOM     11  C   UNL     1       1.352  -1.597   1.393  0.00  0.00    +0.105 C 
ATOM     12  C   UNL     1       0.085  -0.802   1.240  0.00  0.00    +0.124 C 
ATOM     13  N   UNL     1       2.083  -1.452   2.474  0.00  0.00    -0.165 NA
ATOM     14  H   UNL     1       2.588  -2.906   0.565  0.00  0.00    +0.153 HD
ENDROOT
BRANCH  12  15
ATOM     15  C   UNL     1      -1.083  -1.740   1.081  0.00  0.00    -0.032 A 
ATOM     16  C   UNL     1      -1.104  -2.941   1.767  0.00  0.00    +0.006 A 
ATOM     17  C   UNL     1      -2.176  -3.801   1.622  0.00  0.00    +0.020 A 
ATOM     18  C   UNL     1      -3.228  -3.462   0.790  0.00  0.00    +0.041 A 
ATOM     19  C   UNL     1      -3.206  -2.261   0.104  0.00  0.00    +0.020 A 
ATOM     20  C   UNL     1      -2.137  -1.398   0.254  0.00  0.00    +0.006 A 
ATOM     21 CL   UNL     1      -4.574  -4.543   0.607  0.00  0.00    -0.084 Cl
ENDBRANCH  12  15
BRANCH  13  22
ATOM     22  C   UNL     1       3.149  -2.246   2.676  0.00  0.00    +0.262 C 
ATOM     23  O   UNL     1       3.026  -3.455   2.625  0.00  0.00    -0.269 OA
BRANCH  22  24
ATOM     24  C   UNL     1       4.473  -1.649   2.961  0.00  0.00    +0.076 C 
ATOM     25  C   UNL     1       5.538  -2.442   3.163  0.00  0.00    +0.101 C 
BRANCH  25  26
ATOM     26  C   UNL     1       6.855  -1.847   3.447  0.00  0.00    +0.380 C 
ATOM     27  O   UNL     1       6.979  -0.632   3.498  0.00  0.00    -0.241 OA
ATOM     28  O   UNL     1       7.825  -2.569   3.631  0.00  0.00    -0.241 OA
ENDBRANCH  25  26
ENDBRANCH  22  24
ENDBRANCH  13  22
TORSDOF 4
