REMARK  Name = ZINC02952203
REMARK  6 active torsions:
REMARK  status: ('A' for Active; 'I' for Inactive)
REMARK    1  A    between atoms: N_9  and  C_14
REMARK    2  A    between atoms: C_14  and  C_15
REMARK    3  A    between atoms: C_15  and  C_16
REMARK    4  A    between atoms: C_16  and  C_17
REMARK    5  A    between atoms: C_22  and  C_25
REMARK    6  A    between atoms: C_22  and  N_63
REMARK                            x       y       z     vdW  Elec       q    Type
REMARK                         _______ _______ _______ _____ _____    ______ ____
ROOT
ATOM      1  C   UNL     1       6.846   6.061  -2.734  0.00  0.00    +0.216 C 
ATOM      2  O   UNL     1       6.115   5.659  -3.614  0.00  0.00    -0.276 OA
ATOM      3  N   UNL     1       7.998   6.686  -3.048  0.00  0.00    -0.302 N 
ATOM      4  C   UNL     1       8.892   7.184  -1.994  0.00  0.00    +0.107 C 
ATOM      5  C   UNL     1      10.297   6.612  -2.235  0.00  0.00    +0.016 C 
ATOM      6  C   UNL     1      10.747   6.962  -3.655  0.00  0.00    +0.015 C 
ATOM      7  C   UNL     1       9.789   6.327  -4.666  0.00  0.00    +0.016 C 
ATOM      8  C   UNL     1       8.381   6.890  -4.452  0.00  0.00    +0.107 C 
ENDROOT
BRANCH   6  14
ATOM      9  C   UNL     1      12.146   4.989  -3.735  0.00  0.00    -0.077 C 
ATOM     10  C   UNL     1      13.537   4.476  -4.116  0.00  0.00    -0.019 C 
ATOM     11  C   UNL     1      14.582   5.127  -3.205  0.00  0.00    -0.004 C 
ATOM     12  C   UNL     1      14.486   6.649  -3.337  0.00  0.00    -0.019 C 
ATOM     13  C   UNL     1      13.067   7.098  -2.979  0.00  0.00    -0.077 C 
ATOM     14  N   UNL     1      12.112   6.457  -3.907  0.00  0.00    +0.389 N 
ATOM     15  H   UNL     1      12.380   6.686  -4.871  0.00  0.00    -0.080 HD
ENDBRANCH   6  14
BRANCH   6  16
ATOM     16  C   UNL     1      10.740   8.459  -3.830  0.00  0.00    +0.200 C 
ATOM     17  O   UNL     1      10.074   9.153  -3.091  0.00  0.00    -0.278 OA
ATOM     18  N   UNL     1      11.475   9.027  -4.806  0.00  0.00    -0.330 N 
ATOM     19  H   UNL     1      11.949   8.469  -5.444  0.00  0.00    +0.145 HD
ATOM     20  H   UNL     1      11.531   9.993  -4.872  0.00  0.00    +0.145 HD
ENDBRANCH   6  16
BRANCH   1  21
ATOM     21  C   UNL     1       6.468   5.860  -1.290  0.00  0.00    +0.098 C 
BRANCH  21  22
ATOM     22  C   UNL     1       5.125   5.129  -1.211  0.00  0.00    +0.031 C 
BRANCH  22  23
ATOM     23  C   UNL     1       4.741   4.925   0.256  0.00  0.00    +0.130 C 
BRANCH  23  32
ATOM     24  C   UNL     1       0.783   0.221   0.558  0.00  0.00    +0.001 A 
ATOM     25  C   UNL     1      -0.361   1.004   0.586  0.00  0.00    +0.002 A 
ATOM     26  C   UNL     1      -0.273   2.381   0.544  0.00  0.00    +0.026 A 
ATOM     27  C   UNL     1       0.971   2.989   0.473  0.00  0.00    +0.056 A 
ATOM     28  C   UNL     1       2.132   2.197   0.444  0.00  0.00    +0.063 A 
ATOM     29  C   UNL     1       2.029   0.808   0.487  0.00  0.00    +0.015 A 
ATOM     30  C   UNL     1       3.438   2.876   0.369  0.00  0.00    +0.264 A 
ATOM     31  O   UNL     1       4.472   2.237   0.342  0.00  0.00    -0.267 OA
ATOM     32  N   UNL     1       3.456   4.226   0.331  0.00  0.00    -0.261 N 
ATOM     33  C   UNL     1       2.319   4.939   0.361  0.00  0.00    +0.330 A 
ATOM     34  O   UNL     1       2.393   6.152   0.325  0.00  0.00    -0.246 OA
ATOM     35  N   UNL     1       1.104   4.370   0.429  0.00  0.00    -0.307 N 
ATOM     36  H   UNL     1       0.287   4.947   0.448  0.00  0.00    +0.170 HD
ENDBRANCH  23  32
ENDBRANCH  22  23
ENDBRANCH  21  22
ENDBRANCH   1  21
TORSDOF 6
