REMARK  Name = ZINC43527075
REMARK  8 active torsions:
REMARK  status: ('A' for Active; 'I' for Inactive)
REMARK    1  A    between atoms: C_3  and  C_6
REMARK    2  A    between atoms: C_6  and  N_7
REMARK    3  A    between atoms: N_7  and  C_8
REMARK    4  A    between atoms: C_8  and  N_10
REMARK    5  A    between atoms: N_10  and  C_11
REMARK    6  A    between atoms: C_11  and  C_12
REMARK    7  A    between atoms: C_21  and  C_23
REMARK    8  A    between atoms: C_23  and  N_24
REMARK                            x       y       z     vdW  Elec       q    Type
REMARK                         _______ _______ _______ _____ _____    ______ ____
ROOT
ATOM      1  C   UNL     1       7.872   0.352   4.637  0.00  0.00    -0.051 C 
ATOM      2  C   UNL     1       9.349   0.460   5.023  0.00  0.00    -0.010 C 
ATOM      3  C   UNL     1       9.562   1.758   5.812  0.00  0.00    -0.015 C 
ATOM      4  C   UNL     1       9.150   2.938   4.921  0.00  0.00    -0.015 C 
ATOM      5  C   UNL     1       7.684   2.764   4.517  0.00  0.00    -0.078 C 
ATOM      6  N   UNL     1       7.139   1.517   5.140  0.00  0.00    +0.383 N 
ATOM      7  C   UNL     1       7.207   1.578   6.601  0.00  0.00    -0.076 C 
ATOM      8  C   UNL     1       8.660   1.724   7.053  0.00  0.00    -0.041 C 
ATOM      9  H   UNL     1       6.170   1.421   4.876  0.00  0.00    -0.081 HD
ENDROOT
BRANCH   1  10
ATOM     10  C   UNL     1       7.749   0.293   3.113  0.00  0.00    +0.088 C 
BRANCH  10  11
ATOM     11  N   UNL     1       6.333   0.306   2.737  0.00  0.00    -0.328 N 
ATOM     12  H   UNL     1       5.649   0.346   3.424  0.00  0.00    +0.148 HD
BRANCH  11  13
ATOM     13  C   UNL     1       5.981   0.260   1.437  0.00  0.00    +0.131 C 
ATOM     14  S   UNL     1       7.188   0.188   0.225  0.00  0.00    -0.019 S 
BRANCH  13  15
ATOM     15  N   UNL     1       4.678   0.271   1.091  0.00  0.00    -0.319 N 
ATOM     16  H   UNL     1       3.994   0.312   1.778  0.00  0.00    +0.148 HD
BRANCH  15  17
ATOM     17  C   UNL     1       4.295   0.222  -0.322  0.00  0.00    +0.177 C 
BRANCH  17  20
ATOM     18  C   UNL     1       0.687   0.912  -0.623  0.00  0.00    +0.041 A 
ATOM     19  C   UNL     1       2.029   1.349  -0.540  0.00  0.00    +0.046 A 
ATOM     20  C   UNL     1       2.792   0.246  -0.436  0.00  0.00    +0.122 A 
ATOM     21  O   UNL     1       1.988  -0.829  -0.453  0.00  0.00    -0.466 OA
ATOM     22  C   UNL     1       0.711  -0.431  -0.566  0.00  0.00    +0.195 A 
ENDBRANCH  17  20
ENDBRANCH  15  17
ENDBRANCH  13  15
ENDBRANCH  11  13
ENDBRANCH  10  11
ENDBRANCH   1  10
BRANCH   8  23
ATOM     23  C   UNL     1       8.823   3.026   7.841  0.00  0.00    -0.077 C 
BRANCH  23  24
ATOM     24  N   UNL     1       8.062   2.937   9.094  0.00  0.00    +0.380 N 
ATOM     25  C   UNL     1       8.089   4.238   9.774  0.00  0.00    -0.079 C 
ATOM     26  C   UNL     1       7.231   4.175  11.039  0.00  0.00    -0.019 C 
ATOM     27  C   UNL     1       7.788   3.097  11.974  0.00  0.00    -0.004 C 
ATOM     28  C   UNL     1       7.825   1.759  11.230  0.00  0.00    -0.019 C 
ATOM     29  C   UNL     1       8.661   1.912   9.957  0.00  0.00    -0.079 C 
ATOM     30  H   UNL     1       7.106   2.687   8.890  0.00  0.00    -0.082 HD
ENDBRANCH  23  24
ENDBRANCH   8  23
TORSDOF 8
