REMARK  Name = ZINC09493277
REMARK  6 active torsions:
REMARK  status: ('A' for Active; 'I' for Inactive)
REMARK    1  A    between atoms: C_4  and  C_7
REMARK    2  A    between atoms: C_15  and  C_18
REMARK    3  A    between atoms: C_18  and  O_19
REMARK    4  A    between atoms: O_19  and  C_20
REMARK    5  A    between atoms: C_20  and  C_22
REMARK    6  A    between atoms: C_25  and  N_28
REMARK                            x       y       z     vdW  Elec       q    Type
REMARK                         _______ _______ _______ _____ _____    ______ ____
ROOT
ATOM      1  C   UNL     1      10.045  -2.116  -0.533  0.00  0.00    +0.340 C 
ATOM      2  O   UNL     1      11.034  -1.356   0.172  0.00  0.00    -0.333 OA
ATOM      3  C   UNL     1      11.047   0.026  -0.198  0.00  0.00    +0.203 C 
ATOM      4  C   UNL     1       9.638   0.564  -0.167  0.00  0.00    +0.023 A 
ATOM      5  C   UNL     1       9.429   1.930  -0.159  0.00  0.00    +0.047 A 
ATOM      6  C   UNL     1       8.140   2.434  -0.134  0.00  0.00    +0.124 A 
ATOM      7  C   UNL     1       7.058   1.570  -0.117  0.00  0.00    +0.049 A 
ATOM      8  C   UNL     1       7.264   0.205  -0.124  0.00  0.00    +0.035 A 
ATOM      9  C   UNL     1       8.557  -0.302  -0.141  0.00  0.00    +0.136 A 
ATOM     10  O   UNL     1       8.749  -1.649  -0.147  0.00  0.00    -0.459 OA
ATOM     11  F   UNL     1       7.937   3.770  -0.126  0.00  0.00    -0.205 F 
ENDROOT
BRANCH   1  15
ATOM     12  C   UNL     1      10.442  -6.253   0.457  0.00  0.00    +0.000 A 
ATOM     13  C   UNL     1      11.496  -5.579  -0.132  0.00  0.00    +0.000 A 
ATOM     14  C   UNL     1      11.367  -4.240  -0.452  0.00  0.00    +0.010 A 
ATOM     15  C   UNL     1      10.185  -3.576  -0.184  0.00  0.00    +0.020 A 
ATOM     16  C   UNL     1       9.133  -4.248   0.409  0.00  0.00    +0.010 A 
ATOM     17  C   UNL     1       9.260  -5.588   0.725  0.00  0.00    +0.000 A 
ENDBRANCH   1  15
BRANCH   8  18
ATOM     18  C   UNL     1       6.087  -0.735  -0.107  0.00  0.00    +0.271 C 
BRANCH  18  19
ATOM     19  O   UNL     1       4.855   0.033  -0.084  0.00  0.00    -0.456 OA
BRANCH  19  20
ATOM     20  C   UNL     1       3.701  -0.662  -0.066  0.00  0.00    +0.340 C 
ATOM     21  O   UNL     1       3.723  -1.877  -0.070  0.00  0.00    -0.245 OA
BRANCH  20  22
ATOM     22  C   UNL     1       2.410   0.051  -0.042  0.00  0.00    +0.059 A 
ATOM     23  C   UNL     1       1.212  -0.669  -0.024  0.00  0.00    +0.017 A 
ATOM     24  C   UNL     1       0.009   0.000  -0.001  0.00  0.00    +0.024 A 
ATOM     25  C   UNL     1      -0.014   1.392   0.003  0.00  0.00    +0.035 A 
ATOM     26  C   UNL     1       1.176   2.111  -0.016  0.00  0.00    +0.024 A 
ATOM     27  C   UNL     1       2.383   1.449  -0.038  0.00  0.00    +0.017 A 
BRANCH  25  28
ATOM     28  N   UNL     1      -1.234   2.066   0.019  0.00  0.00    -0.270 N 
ATOM     29  C   UNL     1      -1.354   3.226   0.696  0.00  0.00    +0.301 C 
ATOM     30  O   UNL     1      -0.379   3.726   1.221  0.00  0.00    -0.253 OA
ATOM     31  N   UNL     1      -2.555   3.830   0.789  0.00  0.00    -0.313 N 
ATOM     32  H   UNL     1      -1.997   1.701  -0.456  0.00  0.00    +0.156 HD
ATOM     33  H   UNL     1      -3.333   3.431   0.370  0.00  0.00    +0.146 HD
ATOM     34  H   UNL     1      -2.641   4.665   1.276  0.00  0.00    +0.146 HD
ENDBRANCH  25  28
ENDBRANCH  20  22
ENDBRANCH  19  20
ENDBRANCH  18  19
ENDBRANCH   8  18
TORSDOF 6
