REMARK  Name = ZINC32901894
REMARK  5 active torsions:
REMARK  status: ('A' for Active; 'I' for Inactive)
REMARK    1  A    between atoms: C_1  and  C_2
REMARK    2  A    between atoms: C_4  and  C_7
REMARK    3  A    between atoms: C_7  and  N_12
REMARK    4  A    between atoms: C_13  and  C_15
REMARK    5  A    between atoms: C_18  and  N_21
REMARK                            x       y       z     vdW  Elec       q    Type
REMARK                         _______ _______ _______ _____ _____    ______ ____
ROOT
ATOM      1  N   UNL     1       0.002  -0.004   0.002  0.00  0.00    -0.299 N 
ATOM      2  C   UNL     1       0.617  -0.675   0.996  0.00  0.00    +0.245 C 
ATOM      3  O   UNL     1       1.154  -0.065   1.899  0.00  0.00    -0.270 OA
ATOM      4  H   UNL     1      -0.484  -0.556  -0.816  0.00  0.00    +0.150 HD
ENDROOT
BRANCH   2   5
ATOM      5  C   UNL     1       0.637  -2.154   0.988  0.00  0.00    +0.037 A 
ATOM      6  C   UNL     1       0.015  -2.857  -0.045  0.00  0.00    +0.015 A 
ATOM      7  C   UNL     1       0.043  -4.237  -0.049  0.00  0.00    +0.033 A 
ATOM      8  C   UNL     1       0.674  -4.922   0.973  0.00  0.00    +0.126 A 
ATOM      9  C   UNL     1       1.287  -4.231   2.003  0.00  0.00    +0.033 A 
ATOM     10  C   UNL     1       1.272  -2.852   2.016  0.00  0.00    +0.015 A 
BRANCH   8  11
ATOM     11  N   UNL     1       0.694  -6.402   0.965  0.00  0.00    +0.056 N 
ATOM     12  O   UNL     1       1.249  -7.009   1.864  0.00  0.00    -0.126 OA
ATOM     13  O   UNL     1       0.154  -7.014   0.060  0.00  0.00    -0.126 OA
ENDBRANCH   8  11
ENDBRANCH   2   5
BRANCH   1  14
ATOM     14  C   UNL     1      -0.018   1.461   0.010  0.00  0.00    +0.098 C 
ATOM     15  C   UNL     1      -0.794   1.986   1.244  0.00  0.00    +0.034 C 
ATOM     16  C   UNL     1      -2.273   1.860   0.791  0.00  0.00    +0.003 C 
ATOM     17  C   UNL     1      -2.248   2.250  -0.701  0.00  0.00    +0.003 C 
ATOM     18  C   UNL     1      -0.814   1.997  -1.198  0.00  0.00    +0.034 C 
BRANCH  14  22
ATOM     19  C   UNL     1       4.769   2.408   1.136  0.00  0.00    +0.112 C 
ATOM     20  C   UNL     1       3.409   2.397   0.487  0.00  0.00    +0.224 A 
ATOM     21  N   UNL     1       2.366   1.700   0.869  0.00  0.00    -0.194 NA
ATOM     22  C   UNL     1       1.387   2.006  -0.000  0.00  0.00    +0.195 A 
ATOM     23  N   UNL     1       1.876   2.854  -0.855  0.00  0.00    -0.059 NA
ATOM     24  O   UNL     1       3.035   3.096  -0.589  0.00  0.00    -0.338 OA
ENDBRANCH  14  22
ENDBRANCH   1  14
TORSDOF 4
