REMARK  Name = ZINC64179172
REMARK  6 active torsions:
REMARK  status: ('A' for Active; 'I' for Inactive)
REMARK    1  A    between atoms: C_1  and  C_2
REMARK    2  A    between atoms: N_4  and  C_5
REMARK    3  A    between atoms: C_5  and  C_7
REMARK    4  A    between atoms: C_5  and  C_17
REMARK    5  A    between atoms: C_7  and  C_8
REMARK    6  A    between atoms: N_19  and  C_20
REMARK                            x       y       z     vdW  Elec       q    Type
REMARK                         _______ _______ _______ _____ _____    ______ ____
ROOT
ATOM      1  C   UNL     1      -0.304  -2.702  -1.159  0.00  0.00    +0.238 C 
ATOM      2  O   UNL     1       0.552  -2.025  -1.687  0.00  0.00    -0.273 OA
ATOM      3  N   UNL     1      -0.628  -3.904  -1.677  0.00  0.00    -0.284 N 
ATOM      4  H   UNL     1      -1.258  -4.478  -1.213  0.00  0.00    +0.155 HD
ENDROOT
BRANCH   3   5
ATOM      5  C   UNL     1      -0.057  -4.323  -2.885  0.00  0.00    +0.035 A 
ATOM      6  C   UNL     1       0.200  -5.673  -3.113  0.00  0.00    +0.025 A 
ATOM      7  C   UNL     1       0.754  -6.106  -4.277  0.00  0.00    +0.031 A 
ATOM      8  C   UNL     1       1.091  -5.195  -5.304  0.00  0.00    +0.080 A 
ATOM      9  C   UNL     1       0.820  -3.832  -5.047  0.00  0.00    +0.043 A 
ATOM     10  C   UNL     1       0.256  -3.398  -3.873  0.00  0.00    +0.040 A 
ATOM     11  S   UNL     1       1.373  -3.046  -6.541  0.00  0.00    -0.052 S 
ATOM     12  C   UNL     1       1.913  -4.525  -7.387  0.00  0.00    +0.162 A 
ATOM     13  N   UNL     1       1.644  -5.464  -6.509  0.00  0.00    -0.225 NA
ATOM     14  N   UNL     1       2.470  -4.649  -8.644  0.00  0.00    -0.310 N 
ATOM     15  C   UNL     1       2.747  -3.542  -9.572  0.00  0.00    +0.107 C 
ATOM     16  C   UNL     1       3.342  -4.158 -10.855  0.00  0.00    +0.020 C 
ATOM     17  C   UNL     1       2.842  -5.626 -10.800  0.00  0.00    +0.020 C 
ATOM     18  C   UNL     1       2.892  -5.912  -9.276  0.00  0.00    +0.107 C 
ENDBRANCH   3   5
BRANCH   1  19
ATOM     19  C   UNL     1      -1.007  -2.200   0.076  0.00  0.00    +0.163 C 
BRANCH  19  23
ATOM     20  C   UNL     1       0.534   1.294   0.343  0.00  0.00    +0.109 C 
ATOM     21  C   UNL     1       0.377  -0.202   0.249  0.00  0.00    +0.211 C 
ATOM     22  O   UNL     1       1.357  -0.916   0.246  0.00  0.00    -0.276 OA
ATOM     23  N   UNL     1      -0.854  -0.746   0.168  0.00  0.00    -0.304 N 
ATOM     24  H   UNL     1      -1.638  -0.175   0.170  0.00  0.00    +0.149 HD
ENDBRANCH  19  23
BRANCH  19  25
ATOM     25  C   UNL     1      -0.393  -2.857   1.315  0.00  0.00    +0.065 C 
BRANCH  25  26
ATOM     26  C   UNL     1      -1.173  -2.450   2.538  0.00  0.00    -0.039 C 
ATOM     27  C   UNL     1      -2.180  -3.135   3.125  0.00  0.00    -0.001 A 
ATOM     28  C   UNL     1      -2.827  -4.415   2.812  0.00  0.00    +0.010 A 
ATOM     29  C   UNL     1      -3.834  -4.852   3.602  0.00  0.00    +0.001 A 
ATOM     30  C   UNL     1      -4.275  -4.114   4.709  0.00  0.00    +0.002 A 
ATOM     31  C   UNL     1      -3.731  -2.930   5.060  0.00  0.00    +0.026 A 
ATOM     32  C   UNL     1      -2.664  -2.376   4.300  0.00  0.00    +0.043 A 
ATOM     33  N   UNL     1      -1.983  -1.264   4.434  0.00  0.00    -0.380 N 
ATOM     34  C   UNL     1      -0.984  -1.195   3.361  0.00  0.00    +0.144 C 
ATOM     35  H   UNL     1      -2.114  -0.600   5.129  0.00  0.00    +0.160 HD
ENDBRANCH  25  26
ENDBRANCH  19  25
ENDBRANCH   1  19
TORSDOF 5
