REMARK  Name = ZINC17305524
REMARK  6 active torsions:
REMARK  status: ('A' for Active; 'I' for Inactive)
REMARK    1  A    between atoms: C_3  and  C_6
REMARK    2  A    between atoms: C_6  and  N_7
REMARK    3  A    between atoms: N_7  and  S_8
REMARK    4  A    between atoms: S_8  and  C_11
REMARK    5  A    between atoms: C_14  and  C_17
REMARK    6  A    between atoms: N_19  and  C_20
REMARK                            x       y       z     vdW  Elec       q    Type
REMARK                         _______ _______ _______ _____ _____    ______ ____
ROOT
ATOM      1  C   UNL     1      -2.171   9.999  -0.934  0.00  0.00    +0.105 A 
ATOM      2  C   UNL     1      -2.770   9.308  -1.971  0.00  0.00    +0.029 A 
ATOM      3  C   UNL     1      -2.755   7.929  -1.985  0.00  0.00    +0.015 A 
ATOM      4  C   UNL     1      -2.132   7.230  -0.950  0.00  0.00    +0.037 A 
ATOM      5  C   UNL     1      -1.533   7.934   0.097  0.00  0.00    +0.015 A 
ATOM      6  C   UNL     1      -1.551   9.313   0.096  0.00  0.00    +0.029 A 
ENDROOT
BRANCH   4   7
ATOM      7  C   UNL     1      -2.112   5.752  -0.958  0.00  0.00    +0.244 C 
ATOM      8  O   UNL     1      -2.639   5.142  -1.868  0.00  0.00    -0.270 OA
ATOM      9  N   UNL     1      -1.510   5.081   0.044  0.00  0.00    -0.306 N 
ATOM     10  H   UNL     1      -1.089   5.567   0.770  0.00  0.00    +0.150 HD
BRANCH   9  11
ATOM     11  C   UNL     1      -1.490   3.616   0.036  0.00  0.00    +0.036 C 
ATOM     12  C   UNL     1      -0.773   3.123  -1.223  0.00  0.00    +0.029 C 
ATOM     13  C   UNL     1      -0.753   1.593  -1.232  0.00  0.00    -0.008 C 
ATOM     14  C   UNL     1      -0.013   1.086   0.008  0.00  0.00    +0.007 C 
ATOM     15  C   UNL     1      -0.729   1.579   1.267  0.00  0.00    -0.008 C 
ATOM     16  C   UNL     1      -0.750   3.109   1.275  0.00  0.00    +0.029 C 
ATOM     17  C   UNL     1      -2.164   1.050   1.278  0.00  0.00    +0.007 C 
ATOM     18  C   UNL     1      -2.904   1.556   0.038  0.00  0.00    -0.008 C 
ATOM     19  C   UNL     1      -2.188   1.063  -1.221  0.00  0.00    +0.007 C 
ATOM     20  C   UNL     1      -2.925   3.086   0.047  0.00  0.00    +0.029 C 
ENDBRANCH   9  11
ENDBRANCH   4   7
BRANCH   1  21
ATOM     21  S   UNL     1      -2.195  11.761  -0.924  0.00  0.00    +0.059 S 
ATOM     22  O   UNL     1      -1.094  12.178  -0.128  0.00  0.00    -0.153 OA
ATOM     23  O   UNL     1      -2.358  12.173  -2.274  0.00  0.00    -0.153 OA
BRANCH  21  24
ATOM     24  N   UNL     1      -3.564  12.227  -0.118  0.00  0.00    -0.183 NA
ATOM     25  H   UNL     1      -4.266  12.703  -0.589  0.00  0.00    +0.148 HD
BRANCH  24  26
ATOM     26  C   UNL     1      -3.716  11.921   1.307  0.00  0.00    +0.180 C 
BRANCH  26  29
ATOM     27  C   UNL     1      -6.828  13.455   2.550  0.00  0.00    +0.041 A 
ATOM     28  C   UNL     1      -6.132  12.388   1.936  0.00  0.00    +0.046 A 
ATOM     29  C   UNL     1      -4.837  12.748   1.882  0.00  0.00    +0.120 A 
ATOM     30  O   UNL     1      -4.712  13.967   2.432  0.00  0.00    -0.466 OA
ATOM     31  C   UNL     1      -5.917  14.403   2.833  0.00  0.00    +0.195 A 
ENDBRANCH  26  29
ENDBRANCH  24  26
ENDBRANCH  21  24
ENDBRANCH   1  21
TORSDOF 6
