REMARK  Name = ZINC39674639
REMARK  7 active torsions:
REMARK  status: ('A' for Active; 'I' for Inactive)
REMARK    1  A    between atoms: C_1  and  C_2
REMARK    2  A    between atoms: C_4  and  C_14
REMARK    3  A    between atoms: C_7  and  C_12
REMARK    4  A    between atoms: C_14  and  C_15
REMARK    5  A    between atoms: C_15  and  N_16
REMARK    6  A    between atoms: C_17  and  C_19
REMARK    7  A    between atoms: C_30  and  C_32
REMARK                            x       y       z     vdW  Elec       q    Type
REMARK                         _______ _______ _______ _____ _____    ______ ____
ROOT
ATOM      1  C   UNL     1       1.375  -1.007  -7.406  0.00  0.00    +0.100 C 
ATOM      2  C   UNL     1       1.324   0.508  -7.702  0.00  0.00    +0.121 C 
ATOM      3  N   UNL     1       2.660   0.827  -8.258  0.00  0.00    -0.296 N 
ATOM      4  C   UNL     1       2.985  -0.332  -9.123  0.00  0.00    +0.115 C 
ATOM      5  C   UNL     1       2.465  -1.556  -8.343  0.00  0.00    -0.004 C 
ATOM      6  C   UNL     1       3.594  -2.182  -7.530  0.00  0.00    -0.010 C 
ATOM      7  C   UNL     1       4.637  -2.770  -8.485  0.00  0.00    -0.082 C 
ATOM      8  N   UNL     1       4.005  -3.781  -9.341  0.00  0.00    +0.379 N 
ATOM      9  C   UNL     1       2.982  -3.153 -10.186  0.00  0.00    -0.082 C 
ATOM     10  C   UNL     1       1.869  -2.580  -9.303  0.00  0.00    -0.010 C 
ATOM     11  C   UNL     1       3.410   1.923  -8.029  0.00  0.00    +0.252 C 
ATOM     12  O   UNL     1       4.495   2.040  -8.565  0.00  0.00    -0.270 OA
ATOM     13  H   UNL     1       4.705  -4.210  -9.926  0.00  0.00    -0.086 HD
ATOM     14  H   UNL     1       3.574  -4.488  -8.763  0.00  0.00    -0.086 HD
ENDROOT
BRANCH  11  15
ATOM     15  C   UNL     1       2.914   2.981  -7.128  0.00  0.00    +0.107 A 
ATOM     16  C   UNL     1       3.206   2.935  -5.761  0.00  0.00    +0.138 A 
ATOM     17  C   UNL     1       2.738   3.931  -4.924  0.00  0.00    +0.039 A 
ATOM     18  C   UNL     1       1.983   4.971  -5.435  0.00  0.00    +0.006 A 
ATOM     19  C   UNL     1       1.689   5.024  -6.786  0.00  0.00    +0.039 A 
ATOM     20  C   UNL     1       2.154   4.040  -7.638  0.00  0.00    +0.138 A 
ATOM     21  F   UNL     1       1.871   4.097  -8.957  0.00  0.00    -0.205 F 
ATOM     22  F   UNL     1       3.943   1.919  -5.260  0.00  0.00    -0.205 F 
ENDBRANCH  11  15
BRANCH   1  24
ATOM     23  N   UNL     1       1.327  -2.362  -5.336  0.00  0.00    -0.315 N 
ATOM     24  C   UNL     1       1.751  -1.248  -5.966  0.00  0.00    +0.218 C 
ATOM     25  O   UNL     1       2.435  -0.440  -5.375  0.00  0.00    -0.275 OA
ATOM     26  H   UNL     1       0.780  -3.008  -5.809  0.00  0.00    +0.149 HD
BRANCH  23  27
ATOM     27  C   UNL     1       1.693  -2.596  -3.937  0.00  0.00    +0.108 C 
BRANCH  27  28
ATOM     28  C   UNL     1       1.089  -3.920  -3.467  0.00  0.00    +0.052 C 
BRANCH  28  31
ATOM     29  C   UNL     1      -0.444  -5.430  -1.043  0.00  0.00    +0.035 C 
ATOM     30  C   UNL     1       1.079  -5.347  -1.173  0.00  0.00    +0.103 C 
ATOM     31  C   UNL     1       1.464  -4.161  -2.028  0.00  0.00    -0.037 C 
ATOM     32  C   UNL     1       2.218  -3.357  -1.235  0.00  0.00    +0.000 A 
ATOM     33  C   UNL     1       2.856  -2.113  -1.482  0.00  0.00    +0.028 A 
ATOM     34  C   UNL     1       3.574  -1.496  -0.484  0.00  0.00    +0.052 A 
ATOM     35  C   UNL     1       3.699  -2.094   0.840  0.00  0.00    +0.021 A 
ATOM     36  C   UNL     1       3.114  -3.274   1.133  0.00  0.00    +0.027 A 
ATOM     37  C   UNL     1       2.337  -3.975   0.104  0.00  0.00    +0.043 A 
ATOM     38  N   UNL     1       1.687  -5.114   0.141  0.00  0.00    -0.378 N 
ATOM     39  H   UNL     1       1.619  -5.703   0.908  0.00  0.00    +0.160 HD
BRANCH  34  40
ATOM     40  C   UNL     1       4.211  -0.241  -0.751  0.00  0.00    +0.099 C 
ATOM     41  N   UNL     1       4.716   0.754  -0.962  0.00  0.00    -0.191 NA
ENDBRANCH  34  40
ENDBRANCH  28  31
ENDBRANCH  27  28
ENDBRANCH  23  27
ENDBRANCH   1  24
TORSDOF 6
