REMARK  Name = ZINC31811208
REMARK  9 active torsions:
REMARK  status: ('A' for Active; 'I' for Inactive)
REMARK    1  A    between atoms: C_1  and  O_2
REMARK    2  A    between atoms: O_2  and  C_3
REMARK    3  A    between atoms: C_3  and  C_5
REMARK    4  A    between atoms: C_5  and  C_6
REMARK    5  A    between atoms: C_6  and  C_8
REMARK    6  A    between atoms: C_6  and  N_12
REMARK    7  A    between atoms: C_8  and  O_10
REMARK    8  A    between atoms: O_10  and  C_11
REMARK    9  A    between atoms: C_24  and  C_26
REMARK                            x       y       z     vdW  Elec       q    Type
REMARK                         _______ _______ _______ _____ _____    ______ ____
ROOT
ATOM      1  N   UNL     1      -5.377  -2.210   0.268  0.00  0.00    -0.286 N 
ATOM      2  C   UNL     1      -4.639  -1.991   1.375  0.00  0.00    +0.304 C 
ATOM      3  O   UNL     1      -3.445  -2.220   1.364  0.00  0.00    -0.253 OA
ATOM      4  N   UNL     1      -5.225  -1.518   2.492  0.00  0.00    -0.273 N 
ATOM      5  C   UNL     1      -4.422  -1.168   3.673  0.00  0.00    +0.116 C 
ATOM      6  C   UNL     1      -4.541   0.339   3.934  0.00  0.00    +0.074 C 
ATOM      7  C   UNL     1      -5.988   0.739   3.813  0.00  0.00    +0.040 A 
ATOM      8  C   UNL     1      -6.944   0.005   3.203  0.00  0.00    +0.062 A 
ATOM      9  N   UNL     1      -8.097   0.672   3.287  0.00  0.00    -0.348 N 
ATOM     10  C   UNL     1      -7.897   1.793   3.930  0.00  0.00    +0.171 A 
ATOM     11  N   UNL     1      -6.591   1.869   4.276  0.00  0.00    -0.349 N 
ATOM     12  H   UNL     1      -6.165   2.593   4.761  0.00  0.00    +0.166 HD
ATOM     13  C   UNL     1      -6.686  -1.332   2.558  0.00  0.00    +0.156 C 
ATOM     14  H   UNL     1      -6.341  -2.102   0.298  0.00  0.00    +0.151 HD
ATOM     15  H   UNL     1      -8.947   0.372   2.929  0.00  0.00    +0.167 HD
ENDROOT
BRANCH  13  16
ATOM     16  C   UNL     1      -7.305  -2.425   3.390  0.00  0.00    -0.021 A 
ATOM     17  C   UNL     1      -6.997  -2.530   4.733  0.00  0.00    +0.007 A 
ATOM     18  C   UNL     1      -7.565  -3.533   5.497  0.00  0.00    +0.015 A 
ATOM     19  C   UNL     1      -8.442  -4.431   4.916  0.00  0.00    +0.018 A 
ATOM     20  C   UNL     1      -8.750  -4.326   3.571  0.00  0.00    +0.015 A 
ATOM     21  C   UNL     1      -8.185  -3.320   2.810  0.00  0.00    +0.007 A 
ATOM     22 BR   UNL     1      -9.219  -5.803   5.959  0.00  0.00    -0.050 Br
ENDBRANCH  13  16
BRANCH   1  23
ATOM     23  C   UNL     1      -4.724  -2.612  -0.980  0.00  0.00    +0.194 C 
BRANCH  23  24
ATOM     24  C   UNL     1      -4.249  -1.385  -1.716  0.00  0.00    +0.328 C 
ATOM     25  O   UNL     1      -4.436  -0.288  -1.245  0.00  0.00    -0.249 OA
BRANCH  24  26
ATOM     26  O   UNL     1      -3.617  -1.512  -2.893  0.00  0.00    -0.467 OA
ATOM     27  C   UNL     1      -3.194  -0.307  -3.535  0.00  0.00    +0.280 C 
ENDBRANCH  24  26
ENDBRANCH  23  24
BRANCH  23  28
ATOM     28  C   UNL     1      -5.720  -3.377  -1.854  0.00  0.00    +0.154 C 
BRANCH  28  29
ATOM     29  C   UNL     1      -6.102  -4.665  -1.171  0.00  0.00    +0.309 C 
ATOM     30  O   UNL     1      -5.626  -4.943  -0.096  0.00  0.00    -0.251 OA
BRANCH  29  32
ATOM     31  C   UNL     1      -7.287  -6.706  -1.054  0.00  0.00    +0.280 C 
ATOM     32  O   UNL     1      -6.971  -5.503  -1.758  0.00  0.00    -0.468 OA
ENDBRANCH  29  32
ENDBRANCH  28  29
ENDBRANCH  23  28
ENDBRANCH   1  23
TORSDOF 7
