REMARK  Name = ZINC63159781
REMARK  9 active torsions:
REMARK  status: ('A' for Active; 'I' for Inactive)
REMARK    1  A    between atoms: C_1  and  C_2
REMARK    2  A    between atoms: C_5  and  N_8
REMARK    3  A    between atoms: C_9  and  C_37
REMARK    4  A    between atoms: C_11  and  N_15
REMARK    5  A    between atoms: C_12  and  C_14
REMARK    6  A    between atoms: C_16  and  C_18
REMARK    7  A    between atoms: C_18  and  N_19
REMARK    8  A    between atoms: C_22  and  C_27
REMARK    9  A    between atoms: C_27  and  C_28
REMARK                            x       y       z     vdW  Elec       q    Type
REMARK                         _______ _______ _______ _____ _____    ______ ____
ROOT
ATOM      1  C   UNL     1      -0.089 -10.128   1.454  0.00  0.00    +0.214 C 
ENDROOT
BRANCH   1   2
ATOM      2  N   UNL     1      -0.185 -11.265   0.535  0.00  0.00    -0.216 N 
ATOM      3  C   UNL     1      -1.345 -11.761   0.063  0.00  0.00    +0.244 C 
ATOM      4  O   UNL     1      -2.465 -11.366   0.309  0.00  0.00    -0.273 OA
ATOM      5  C   UNL     1      -0.960 -12.915  -0.841  0.00  0.00    +0.165 C 
ATOM      6  N   UNL     1       0.511 -12.937  -0.765  0.00  0.00    -0.287 N 
ATOM      7  C   UNL     1       0.870 -11.935   0.057  0.00  0.00    +0.310 C 
ATOM      8  O   UNL     1       2.022 -11.669   0.337  0.00  0.00    -0.252 OA
ATOM      9  H   UNL     1       1.106 -13.553  -1.222  0.00  0.00    +0.151 HD
BRANCH   5  10
ATOM     10  C   UNL     1      -1.548 -14.227  -0.319  0.00  0.00    +0.065 C 
BRANCH  10  11
ATOM     11  C   UNL     1      -1.254 -15.335  -1.298  0.00  0.00    -0.039 C 
ATOM     12  C   UNL     1      -0.221 -16.206  -1.254  0.00  0.00    -0.001 A 
ATOM     13  C   UNL     1       0.897 -16.377  -0.317  0.00  0.00    +0.010 A 
ATOM     14  C   UNL     1       1.796 -17.362  -0.541  0.00  0.00    +0.001 A 
ATOM     15  C   UNL     1       1.688 -18.221  -1.643  0.00  0.00    +0.002 A 
ATOM     16  C   UNL     1       0.690 -18.127  -2.547  0.00  0.00    +0.026 A 
ATOM     17  C   UNL     1      -0.312 -17.127  -2.409  0.00  0.00    +0.043 A 
ATOM     18  N   UNL     1      -1.361 -16.836  -3.139  0.00  0.00    -0.380 N 
ATOM     19  C   UNL     1      -2.058 -15.700  -2.526  0.00  0.00    +0.144 C 
ATOM     20  H   UNL     1      -1.634 -17.297  -3.948  0.00  0.00    +0.160 HD
ENDBRANCH  10  11
ENDBRANCH   5  10
ENDBRANCH   1   2
BRANCH   1  22
ATOM     21  N   UNL     1       0.104  -7.666   1.303  0.00  0.00    -0.285 N 
ATOM     22  C   UNL     1       0.007  -8.849   0.663  0.00  0.00    +0.235 C 
ATOM     23  O   UNL     1      -0.004  -8.883  -0.549  0.00  0.00    -0.274 OA
ATOM     24  H   UNL     1       0.185  -7.643   2.269  0.00  0.00    +0.155 HD
BRANCH  21  27
ATOM     25  N   UNL     1       0.597  -4.755  -0.971  0.00  0.00    -0.245 N 
ATOM     26  C   UNL     1       1.036  -6.094  -0.544  0.00  0.00    +0.137 C 
ATOM     27  C   UNL     1       0.088  -6.471   0.572  0.00  0.00    +0.050 C 
ATOM     28  C   UNL     1      -0.757  -5.469   0.733  0.00  0.00    +0.038 C 
ATOM     29  N   UNL     1      -0.493  -4.429  -0.152  0.00  0.00    -0.266 N 
ATOM     30  C   UNL     1      -1.867  -5.451   1.752  0.00  0.00    +0.063 C 
ATOM     31  C   UNL     1       2.476  -6.044  -0.030  0.00  0.00    +0.036 C 
ATOM     32  H   UNL     1      -0.993  -3.599  -0.198  0.00  0.00    +0.170 HD
BRANCH  25  37
ATOM     33  C   UNL     1       2.865  -1.560  -5.070  0.00  0.00    +0.044 C 
ATOM     34  C   UNL     1       2.262  -2.409  -3.981  0.00  0.00    -0.050 A 
ATOM     35  C   UNL     1       1.180  -1.940  -3.260  0.00  0.00    +0.005 A 
ATOM     36  C   UNL     1       0.625  -2.715  -2.261  0.00  0.00    +0.025 A 
ATOM     37  C   UNL     1       1.155  -3.968  -1.981  0.00  0.00    +0.048 A 
ATOM     38  C   UNL     1       2.242  -4.437  -2.708  0.00  0.00    +0.025 A 
ATOM     39  C   UNL     1       2.789  -3.659  -3.709  0.00  0.00    +0.005 A 
ENDBRANCH  25  37
ENDBRANCH  21  27
ENDBRANCH   1  22
TORSDOF 6
