REMARK  Name = ZINC20574728
REMARK  5 active torsions:
REMARK  status: ('A' for Active; 'I' for Inactive)
REMARK    1  A    between atoms: C_1  and  C_2
REMARK    2  A    between atoms: C_5  and  N_9
REMARK    3  A    between atoms: N_9  and  S_10
REMARK    4  A    between atoms: S_10  and  C_13
REMARK    5  A    between atoms: C_16  and  C_18
REMARK                            x       y       z     vdW  Elec       q    Type
REMARK                         _______ _______ _______ _____ _____    ______ ____
ROOT
ATOM      1  C   UNL     1      -0.470   4.628   0.677  0.00  0.00    +0.148 A 
ATOM      2  C   UNL     1      -0.771   5.716  -0.077  0.00  0.00    +0.037 A 
ATOM      3  C   UNL     1       0.199   6.668  -0.300  0.00  0.00    +0.020 A 
ATOM      4  C   UNL     1       1.443   6.478   0.240  0.00  0.00    +0.041 A 
ATOM      5  S   UNL     1       1.241   4.922   1.092  0.00  0.00    -0.067 S 
ENDROOT
BRANCH   4   6
ATOM      6  C   UNL     1       2.641   7.337   0.142  0.00  0.00    +0.098 A 
ATOM      7  C   UNL     1       3.843   6.949   0.785  0.00  0.00    +0.036 A 
ATOM      8  C   UNL     1       4.927   7.768   0.673  0.00  0.00    +0.073 A 
ATOM      9  C   UNL     1       4.785   8.955  -0.079  0.00  0.00    +0.265 A 
ATOM     10  O   UNL     1       5.730   9.718  -0.207  0.00  0.00    -0.266 OA
ATOM     11  N   UNL     1       3.602   9.240  -0.654  0.00  0.00    -0.243 N 
ATOM     12  H   UNL     1       3.482  10.165  -1.238  0.00  0.00    +0.192 HD
ATOM     13  N   UNL     1       2.591   8.456  -0.545  0.00  0.00    -0.170 NA
ENDBRANCH   4   6
BRANCH   1  14
ATOM     14  S   UNL     1      -1.501   3.271   1.126  0.00  0.00    +0.098 S 
ATOM     15  O   UNL     1      -2.842   3.704   0.948  0.00  0.00    -0.148 OA
ATOM     16  O   UNL     1      -1.016   2.786   2.370  0.00  0.00    -0.148 OA
BRANCH  14  17
ATOM     17  N   UNL     1      -1.240   2.070   0.015  0.00  0.00    -0.097 NA
BRANCH  17  22
ATOM     18  C   UNL     1       3.858  -0.383  -0.387  0.00  0.00    +0.045 C 
ATOM     19  C   UNL     1       2.504   0.270  -0.279  0.00  0.00    -0.032 A 
ATOM     20  C   UNL     1       2.097   1.179  -1.239  0.00  0.00    +0.007 A 
ATOM     21  C   UNL     1       0.858   1.779  -1.143  0.00  0.00    +0.027 A 
ATOM     22  C   UNL     1       0.017   1.469  -0.081  0.00  0.00    +0.076 A 
ATOM     23  C   UNL     1       0.427   0.556   0.882  0.00  0.00    +0.047 A 
ATOM     24  C   UNL     1       1.670  -0.041   0.781  0.00  0.00    +0.046 A 
ATOM     25 CL   UNL     1       2.185  -1.182   1.983  0.00  0.00    -0.083 Cl
ENDBRANCH  17  22
ENDBRANCH  14  17
ENDBRANCH   1  14
TORSDOF 4
