REMARK  Name = ZINC39266300
REMARK  6 active torsions:
REMARK  status: ('A' for Active; 'I' for Inactive)
REMARK    1  A    between atoms: C_4  and  C_7
REMARK    2  A    between atoms: C_7  and  C_8
REMARK    3  A    between atoms: N_12  and  C_22
REMARK    4  A    between atoms: C_22  and  C_23
REMARK    5  A    between atoms: N_25  and  C_26
REMARK    6  A    between atoms: C_26  and  C_27
REMARK                            x       y       z     vdW  Elec       q    Type
REMARK                         _______ _______ _______ _____ _____    ______ ____
ROOT
ATOM      1  C   UNL     1       4.171  -0.963   1.399  0.00  0.00    +0.164 C 
ATOM      2  C   UNL     1       5.423  -1.798   1.386  0.00  0.00    +0.241 C 
ATOM      3  O   UNL     1       5.438  -2.846   1.996  0.00  0.00    -0.273 OA
ATOM      4  N   UNL     1       6.513  -1.421   0.724  0.00  0.00    -0.260 N 
ATOM      5  C   UNL     1       6.629  -0.282  -0.053  0.00  0.00    +0.049 A 
ATOM      6  C   UNL     1       7.323  -0.400  -1.261  0.00  0.00    +0.024 A 
ATOM      7  C   UNL     1       7.484   0.689  -2.087  0.00  0.00    +0.002 A 
ATOM      8  C   UNL     1       6.959   1.920  -1.727  0.00  0.00    +0.001 A 
ATOM      9  C   UNL     1       6.273   2.056  -0.544  0.00  0.00    +0.015 A 
ATOM     10  C   UNL     1       6.096   0.954   0.309  0.00  0.00    +0.058 A 
ATOM     11  C   UNL     1       5.344   1.170   1.551  0.00  0.00    +0.246 C 
ATOM     12  O   UNL     1       5.541   2.204   2.160  0.00  0.00    -0.270 OA
ATOM     13  N   UNL     1       4.457   0.312   2.057  0.00  0.00    -0.300 N 
ATOM     14  H   UNL     1       3.993   0.536   2.878  0.00  0.00    +0.150 HD
ENDROOT
BRANCH   1  15
ATOM     15  C   UNL     1       3.711  -0.707  -0.038  0.00  0.00    +0.067 C 
BRANCH  15  19
ATOM     16  C   UNL     1      -0.017   1.378   0.010  0.00  0.00    +0.000 A 
ATOM     17  C   UNL     1       1.171   2.086   0.002  0.00  0.00    +0.000 A 
ATOM     18  C   UNL     1       2.377   1.411  -0.013  0.00  0.00    +0.004 A 
ATOM     19  C   UNL     1       2.396   0.029  -0.020  0.00  0.00    -0.045 A 
ATOM     20  C   UNL     1       1.208  -0.679  -0.012  0.00  0.00    +0.004 A 
ATOM     21  C   UNL     1       0.002  -0.004   0.002  0.00  0.00    +0.000 A 
ENDBRANCH  15  19
ENDBRANCH   1  15
BRANCH   4  22
ATOM     22  C   UNL     1       7.691  -2.284   0.828  0.00  0.00    +0.209 C 
BRANCH  22  23
ATOM     23  C   UNL     1       7.659  -3.313  -0.273  0.00  0.00    +0.231 C 
ATOM     24  O   UNL     1       6.742  -3.323  -1.066  0.00  0.00    -0.274 OA
ATOM     25  N   UNL     1       8.650  -4.221  -0.376  0.00  0.00    -0.310 N 
ATOM     26  H   UNL     1       9.383  -4.213   0.258  0.00  0.00    +0.149 HD
BRANCH  25  27
ATOM     27  C   UNL     1       8.618  -5.221  -1.447  0.00  0.00    +0.139 C 
BRANCH  27  28
ATOM     28  C   UNL     1       9.831  -6.109  -1.340  0.00  0.00    -0.030 A 
ATOM     29  C   UNL     1      10.997  -5.769  -2.000  0.00  0.00    +0.005 A 
ATOM     30  C   UNL     1      12.109  -6.584  -1.902  0.00  0.00    +0.000 A 
ATOM     31  C   UNL     1      12.055  -7.739  -1.144  0.00  0.00    +0.000 A 
ATOM     32  C   UNL     1      10.889  -8.079  -0.483  0.00  0.00    +0.000 A 
ATOM     33  C   UNL     1       9.778  -7.261  -0.578  0.00  0.00    +0.005 A 
ENDBRANCH  27  28
ENDBRANCH  25  27
ENDBRANCH  22  23
ENDBRANCH   4  22
TORSDOF 6
