REMARK  Name = ZINC66584162
REMARK  5 active torsions:
REMARK  status: ('A' for Active; 'I' for Inactive)
REMARK    1  A    between atoms: C_5  and  C_7
REMARK    2  A    between atoms: C_8  and  S_9
REMARK    3  A    between atoms: S_9  and  N_12
REMARK    4  A    between atoms: N_12  and  C_13
REMARK    5  A    between atoms: C_17  and  C_19
REMARK                            x       y       z     vdW  Elec       q    Type
REMARK                         _______ _______ _______ _____ _____    ______ ____
ROOT
ATOM      1  C   UNL     1      -0.603  -6.482   1.684  0.00  0.00    +0.075 A 
ATOM      2  C   UNL     1      -0.158  -7.413   0.752  0.00  0.00    +0.027 A 
ATOM      3  C   UNL     1      -0.258  -8.765   1.019  0.00  0.00    +0.003 A 
ATOM      4  C   UNL     1      -0.800  -9.199   2.212  0.00  0.00    +0.010 A 
ATOM      5  C   UNL     1      -1.248  -8.273   3.153  0.00  0.00    +0.004 A 
ATOM      6  C   UNL     1      -1.143  -6.910   2.887  0.00  0.00    +0.036 A 
ENDROOT
BRANCH   5   7
ATOM      7  C   UNL     1      -1.831  -8.738   4.436  0.00  0.00    +0.091 A 
ATOM      8  C   UNL     1      -1.925 -10.123   4.705  0.00  0.00    +0.035 A 
ATOM      9  C   UNL     1      -2.466 -10.514   5.895  0.00  0.00    +0.073 A 
ATOM     10  C   UNL     1      -2.900  -9.507   6.786  0.00  0.00    +0.265 A 
ATOM     11  O   UNL     1      -3.390  -9.809   7.862  0.00  0.00    -0.266 OA
ATOM     12  N   UNL     1      -2.767  -8.213   6.440  0.00  0.00    -0.243 N 
ATOM     13  H   UNL     1      -3.067  -7.527   7.057  0.00  0.00    +0.192 HD
ATOM     14  N   UNL     1      -2.251  -7.863   5.318  0.00  0.00    -0.171 NA
ENDBRANCH   5   7
BRANCH   1  15
ATOM     15  N   UNL     1      -0.500  -5.116   1.410  0.00  0.00    -0.098 NA
BRANCH  15  16
ATOM     16  S   UNL     1       0.145  -4.606  -0.027  0.00  0.00    +0.085 S 
ATOM     17  O   UNL     1      -0.753  -5.022  -1.046  0.00  0.00    -0.149 OA
ATOM     18  O   UNL     1       1.514  -4.987  -0.016  0.00  0.00    -0.149 OA
BRANCH  16  20
ATOM     19  C   UNL     1       1.249  -2.160  -0.023  0.00  0.00    +0.030 C 
ATOM     20  C   UNL     1       0.113  -2.844  -0.016  0.00  0.00    +0.159 C 
BRANCH  19  25
ATOM     21  C   UNL     1      -0.017   1.375   0.010  0.00  0.00    +0.001 A 
ATOM     22  C   UNL     1       1.170   2.087   0.002  0.00  0.00    +0.001 A 
ATOM     23  C   UNL     1       2.382   1.422  -0.013  0.00  0.00    +0.020 A 
ATOM     24  C   UNL     1       2.416   0.041  -0.021  0.00  0.00    +0.048 A 
ATOM     25  C   UNL     1       1.221  -0.682  -0.014  0.00  0.00    -0.005 A 
ATOM     26  C   UNL     1       0.002  -0.004   0.002  0.00  0.00    +0.009 A 
ATOM     27 CL   UNL     1       3.938  -0.793  -0.042  0.00  0.00    -0.083 Cl
ENDBRANCH  19  25
ENDBRANCH  16  20
ENDBRANCH  15  16
ENDBRANCH   1  15
TORSDOF 5
