REMARK  Name = ZINC16361637
REMARK  8 active torsions:
REMARK  status: ('A' for Active; 'I' for Inactive)
REMARK    1  A    between atoms: C_1  and  C_2
REMARK    2  A    between atoms: C_4  and  N_10
REMARK    3  A    between atoms: C_7  and  C_8
REMARK    4  A    between atoms: C_11  and  C_13
REMARK    5  A    between atoms: C_13  and  S_14
REMARK    6  A    between atoms: S_14  and  C_15
REMARK    7  A    between atoms: C_17  and  C_21
REMARK    8  A    between atoms: C_21  and  C_22
REMARK                            x       y       z     vdW  Elec       q    Type
REMARK                         _______ _______ _______ _____ _____    ______ ____
ROOT
ATOM      1  C   UNL     1       1.442  -0.649  -0.144  0.00  0.00    +0.173 C 
ENDROOT
BRANCH   1   3
ATOM      2  N   UNL     1      -0.016   1.344   0.009  0.00  0.00    -0.284 N 
ATOM      3  C   UNL     1       0.088   0.000  -0.009  0.00  0.00    +0.228 C 
ATOM      4  O   UNL     1      -0.907  -0.687   0.083  0.00  0.00    -0.275 OA
ATOM      5  H   UNL     1       0.891   1.966   0.020  0.00  0.00    +0.155 HD
BRANCH   2   9
ATOM      6  C   UNL     1      -4.812   1.136  -1.053  0.00  0.00    +0.044 C 
ATOM      7  C   UNL     1      -3.621   1.869  -0.492  0.00  0.00    -0.046 A 
ATOM      8  C   UNL     1      -2.376   1.271  -0.501  0.00  0.00    +0.028 A 
ATOM      9  C   UNL     1      -1.279   1.947   0.016  0.00  0.00    +0.048 A 
ATOM     10  C   UNL     1      -1.438   3.223   0.544  0.00  0.00    +0.039 A 
ATOM     11  C   UNL     1      -2.685   3.818   0.543  0.00  0.00    +0.020 A 
ATOM     12  C   UNL     1      -3.776   3.141   0.029  0.00  0.00    -0.046 A 
ATOM     13  C   UNL     1      -5.136   3.790   0.035  0.00  0.00    +0.044 C 
ATOM     14 BR   UNL     1       0.051   4.146   1.255  0.00  0.00    -0.048 Br
ENDBRANCH   2   9
ENDBRANCH   1   3
BRANCH   1  15
ATOM     15  S   UNL     1       1.251  -2.453  -0.137  0.00  0.00    -0.077 S 
BRANCH  15  16
ATOM     16  C   UNL     1       2.899  -3.056  -0.300  0.00  0.00    +0.185 A 
ATOM     17  N   UNL     1       3.255  -4.344  -0.343  0.00  0.00    -0.205 NA
ATOM     18  C   UNL     1       4.554  -4.439  -0.470  0.00  0.00    +0.156 A 
ATOM     19  N   UNL     1       5.066  -3.197  -0.502  0.00  0.00    -0.156 NA
ATOM     20  H   UNL     1       4.147  -1.229  -0.414  0.00  0.00    +0.191 HD
ATOM     21  N   UNL     1       3.978  -2.315  -0.400  0.00  0.00    -0.254 N 
BRANCH  18  22
ATOM     22  C   UNL     1       5.341  -5.721  -0.564  0.00  0.00    +0.113 C 
BRANCH  22  23
ATOM     23  C   UNL     1       5.034  -6.587   0.631  0.00  0.00    -0.040 A 
ATOM     24  C   UNL     1       5.798  -6.479   1.778  0.00  0.00    +0.004 A 
ATOM     25  C   UNL     1       5.514  -7.270   2.875  0.00  0.00    +0.000 A 
ATOM     26  C   UNL     1       4.472  -8.177   2.822  0.00  0.00    +0.000 A 
ATOM     27  C   UNL     1       3.711  -8.289   1.673  0.00  0.00    +0.000 A 
ATOM     28  C   UNL     1       3.992  -7.494   0.578  0.00  0.00    +0.004 A 
ENDBRANCH  22  23
ENDBRANCH  18  22
ENDBRANCH  15  16
ENDBRANCH   1  15
TORSDOF 6
