REMARK  Name = ZINC63383719
REMARK  12 active torsions:
REMARK  status: ('A' for Active; 'I' for Inactive)
REMARK    1  A    between atoms: C_1  and  C_2
REMARK    2  A    between atoms: C_2  and  C_3
REMARK    3  A    between atoms: C_2  and  C_4
REMARK    4  A    between atoms: C_4  and  C_5
REMARK    5  A    between atoms: C_5  and  N_6
REMARK    6  A    between atoms: C_7  and  C_9
REMARK    7  A    between atoms: C_9  and  C_11
REMARK    8  A    between atoms: C_9  and  N_15
REMARK    9  A    between atoms: C_11  and  C_12
REMARK   10  A    between atoms: C_12  and  C_13
REMARK   11  A    between atoms: C_12  and  C_14
REMARK   12  A    between atoms: C_16  and  C_18
REMARK                            x       y       z     vdW  Elec       q    Type
REMARK                         _______ _______ _______ _____ _____    ______ ____
ROOT
ATOM      1  C   UNL     1      -5.047  -8.222   0.022  0.00  0.00    +0.167 C 
ATOM      2  C   UNL     1      -5.335  -8.928  -1.318  0.00  0.00    +0.065 C 
ATOM      3  C   UNL     1      -5.532 -10.392  -1.013  0.00  0.00    -0.034 C 
ATOM      4  C   UNL     1      -4.952 -11.471  -1.528  0.00  0.00    -0.001 A 
ATOM      5  C   UNL     1      -3.994 -11.632  -2.633  0.00  0.00    +0.010 A 
ATOM      6  C   UNL     1      -3.582 -12.901  -2.889  0.00  0.00    +0.001 A 
ATOM      7  C   UNL     1      -4.021 -14.013  -2.164  0.00  0.00    +0.002 A 
ATOM      8  C   UNL     1      -4.908 -13.959  -1.138  0.00  0.00    +0.026 A 
ATOM      9  C   UNL     1      -5.419 -12.677  -0.780  0.00  0.00    +0.043 A 
ATOM     10  N   UNL     1      -6.282 -12.340   0.131  0.00  0.00    -0.375 N 
ATOM     11  C   UNL     1      -6.510 -10.896   0.043  0.00  0.00    +0.131 C 
ATOM     12  C   UNL     1      -6.142 -10.186   1.351  0.00  0.00    +0.134 C 
ATOM     13  N   UNL     1      -5.970  -8.751   1.035  0.00  0.00    -0.276 N 
ATOM     14  C   UNL     1      -6.799  -8.035   1.815  0.00  0.00    +0.248 C 
ATOM     15  O   UNL     1      -6.840  -6.821   1.859  0.00  0.00    -0.270 OA
ATOM     16  C   UNL     1      -7.647  -8.931   2.605  0.00  0.00    +0.042 A 
ATOM     17  C   UNL     1      -7.256 -10.281   2.342  0.00  0.00    -0.013 A 
ATOM     18  C   UNL     1      -7.864 -11.363   2.938  0.00  0.00    +0.006 A 
ATOM     19  C   UNL     1      -8.891 -11.094   3.839  0.00  0.00    +0.000 A 
ATOM     20  C   UNL     1      -9.287  -9.803   4.126  0.00  0.00    +0.001 A 
ATOM     21  C   UNL     1      -8.679  -8.652   3.505  0.00  0.00    +0.013 A 
ATOM     22  H   UNL     1      -6.705 -12.943   0.763  0.00  0.00    +0.160 HD
ENDROOT
BRANCH   1  24
ATOM     23  N   UNL     1      -4.206  -5.898  -0.071  0.00  0.00    -0.302 N 
ATOM     24  C   UNL     1      -5.258  -6.738  -0.131  0.00  0.00    +0.235 C 
ATOM     25  O   UNL     1      -6.375  -6.299  -0.308  0.00  0.00    -0.274 OA
ATOM     26  H   UNL     1      -3.305  -6.252  -0.004  0.00  0.00    +0.150 HD
BRANCH  23  27
ATOM     27  C   UNL     1      -4.422  -4.449  -0.106  0.00  0.00    +0.159 C 
BRANCH  27  29
ATOM     28  N   UNL     1      -3.189  -2.464  -0.917  0.00  0.00    -0.314 N 
ATOM     29  C   UNL     1      -3.160  -3.764  -0.563  0.00  0.00    +0.233 C 
ATOM     30  O   UNL     1      -2.118  -4.382  -0.611  0.00  0.00    -0.274 OA
ATOM     31  H   UNL     1      -4.031  -1.981  -0.922  0.00  0.00    +0.149 HD
BRANCH  28  32
ATOM     32  C   UNL     1      -1.950  -1.779  -1.294  0.00  0.00    +0.104 C 
BRANCH  32  33
ATOM     33  C   UNL     1      -2.259  -0.323  -1.648  0.00  0.00    +0.022 C 
BRANCH  33  35
ATOM     34  C   UNL     1      -1.290   1.810  -2.516  0.00  0.00    +0.007 C 
ATOM     35  C   UNL     1      -0.965   0.392  -2.042  0.00  0.00    -0.016 C 
ATOM     36  C   UNL     1      -0.032   0.460  -0.832  0.00  0.00    +0.007 C 
ENDBRANCH  33  35
ENDBRANCH  32  33
ENDBRANCH  28  32
ENDBRANCH  27  29
BRANCH  27  37
ATOM     37  C   UNL     1      -4.793  -3.954   1.293  0.00  0.00    +0.034 C 
BRANCH  37  38
ATOM     38  C   UNL     1      -5.050  -2.447   1.250  0.00  0.00    -0.015 C 
ATOM     39  C   UNL     1      -6.296  -2.166   0.409  0.00  0.00    +0.007 C 
ATOM     40  C   UNL     1      -5.266  -1.925   2.672  0.00  0.00    +0.007 C 
ENDBRANCH  37  38
ENDBRANCH  27  37
ENDBRANCH  23  27
ENDBRANCH   1  24
TORSDOF 8
