REMARK  Name = ZINC24350209
REMARK  6 active torsions:
REMARK  status: ('A' for Active; 'I' for Inactive)
REMARK    1  A    between atoms: C_1  and  C_2
REMARK    2  A    between atoms: C_7  and  C_8
REMARK    3  A    between atoms: N_10  and  C_11
REMARK    4  A    between atoms: C_17  and  C_19
REMARK    5  A    between atoms: C_21  and  C_25
REMARK    6  A    between atoms: C_21  and  C_26
REMARK                            x       y       z     vdW  Elec       q    Type
REMARK                         _______ _______ _______ _____ _____    ______ ____
ROOT
ATOM      1  C   UNL     1      -1.237   2.247   0.020  0.00  0.00    +0.047 C 
ATOM      2  C   UNL     1      -0.017   1.363   0.009  0.00  0.00    -0.010 A 
ATOM      3  C   UNL     1       1.319   1.782  -0.001  0.00  0.00    +0.042 A 
ATOM      4  C   UNL     1       2.121   0.640  -0.017  0.00  0.00    +0.028 A 
ATOM      5  N   UNL     1       1.319  -0.424  -0.013  0.00  0.00    -0.354 N 
ATOM      6  H   UNL     1       1.748  -1.437  -0.022  0.00  0.00    +0.166 HD
ATOM      7  C   UNL     1       0.002  -0.004   0.002  0.00  0.00    +0.106 A 
ATOM      8  C   UNL     1       3.627   0.698  -0.038  0.00  0.00    +0.060 C 
ATOM      9  C   UNL     1       4.073   2.074  -0.541  0.00  0.00    -0.023 C 
ATOM     10  C   UNL     1       3.399   3.189   0.265  0.00  0.00    +0.086 C 
ATOM     11  C   UNL     1       1.901   3.133   0.006  0.00  0.00    +0.166 C 
ATOM     12  O   UNL     1       1.235   4.129  -0.182  0.00  0.00    -0.292 OA
ATOM     13  C   UNL     1       5.591   2.196  -0.399  0.00  0.00    +0.011 C 
ATOM     14  C   UNL     1       3.691   2.219  -2.016  0.00  0.00    +0.011 C 
ENDROOT
BRANCH   7  15
ATOM     15  C   UNL     1      -1.178  -0.878   0.009  0.00  0.00    +0.261 C 
ATOM     16  O   UNL     1      -2.294  -0.394   0.022  0.00  0.00    -0.269 OA
ATOM     17  N   UNL     1      -1.024  -2.217   0.000  0.00  0.00    -0.307 N 
ATOM     18  H   UNL     1      -0.015  -2.655  -0.012  0.00  0.00    +0.149 HD
BRANCH  17  19
ATOM     19  C   UNL     1      -2.201  -3.089   0.007  0.00  0.00    +0.076 C 
ATOM     20  C   UNL     1      -2.672  -3.300   1.447  0.00  0.00    +0.022 C 
ATOM     21  C   UNL     1      -1.551  -3.950   2.260  0.00  0.00    +0.002 C 
ATOM     22  C   UNL     1      -1.189  -5.301   1.640  0.00  0.00    +0.000 C 
ATOM     23  C   UNL     1      -0.718  -5.090   0.199  0.00  0.00    +0.005 C 
ATOM     24  C   UNL     1      -1.839  -4.440  -0.614  0.00  0.00    +0.006 C 
ATOM     25  C   UNL     1      -1.368  -4.230  -2.054  0.00  0.00    +0.009 C 
ENDBRANCH  17  19
ENDBRANCH   7  15
TORSDOF 2
