REMARK  Name = ZINC40051386
REMARK  4 active torsions:
REMARK  status: ('A' for Active; 'I' for Inactive)
REMARK    1  A    between atoms: C_8  and  C_24
REMARK    2  A    between atoms: N_10  and  C_12
REMARK    3  A    between atoms: C_12  and  C_13
REMARK    4  A    between atoms: N_18  and  C_19
REMARK                            x       y       z     vdW  Elec       q    Type
REMARK                         _______ _______ _______ _____ _____    ______ ____
ROOT
ATOM      1  C   UNL     1       0.139   1.359  -0.217  0.00  0.00    +0.000 A 
ATOM      2  C   UNL     1       1.273   2.000   0.245  0.00  0.00    +0.000 A 
ATOM      3  C   UNL     1       2.429   1.278   0.463  0.00  0.00    +0.005 A 
ATOM      4  C   UNL     1       2.461  -0.087   0.219  0.00  0.00    -0.030 A 
ATOM      5  C   UNL     1       1.331  -0.725  -0.246  0.00  0.00    -0.041 A 
ATOM      6  C   UNL     1       0.169   0.001  -0.462  0.00  0.00    +0.004 A 
ATOM      7  C   UNL     1       1.320  -2.203  -0.536  0.00  0.00    +0.063 C 
ATOM      8  C   UNL     1       2.515  -2.877   0.140  0.00  0.00    +0.148 C 
ATOM      9  N   UNL     1       3.732  -2.128  -0.208  0.00  0.00    -0.278 NA
ATOM     10  C   UNL     1       3.745  -0.832   0.477  0.00  0.00    +0.121 C 
ENDROOT
BRANCH   8  11
ATOM     11  C   UNL     1       2.635  -4.299  -0.344  0.00  0.00    +0.233 C 
ATOM     12  O   UNL     1       3.203  -4.538  -1.389  0.00  0.00    -0.274 OA
ATOM     13  N   UNL     1       2.110  -5.305   0.384  0.00  0.00    -0.300 N 
ATOM     14  C   UNL     1       1.304  -5.151   1.604  0.00  0.00    +0.108 C 
ATOM     15  C   UNL     1       0.949  -6.568   2.101  0.00  0.00    +0.020 C 
ATOM     16  C   UNL     1       2.049  -7.449   1.452  0.00  0.00    +0.020 C 
ATOM     17  C   UNL     1       2.245  -6.742   0.085  0.00  0.00    +0.108 C 
ENDBRANCH   8  11
BRANCH   9  18
ATOM     18  C   UNL     1       4.938  -2.904   0.112  0.00  0.00    +0.181 C 
BRANCH  18  19
ATOM     19  C   UNL     1       6.123  -2.310  -0.604  0.00  0.00    +0.234 C 
ATOM     20  O   UNL     1       5.978  -1.336  -1.311  0.00  0.00    -0.274 OA
ATOM     21  N   UNL     1       7.344  -2.861  -0.458  0.00  0.00    -0.239 N 
ATOM     22  C   UNL     1       8.405  -2.329  -1.098  0.00  0.00    +0.306 C 
ATOM     23  O   UNL     1       8.259  -1.353  -1.807  0.00  0.00    -0.252 OA
ATOM     24  N   UNL     1       9.626  -2.881  -0.952  0.00  0.00    -0.296 N 
ATOM     25  H   UNL     1       7.460  -3.640   0.108  0.00  0.00    +0.159 HD
ATOM     26  H   UNL     1       9.742  -3.660  -0.386  0.00  0.00    +0.151 HD
BRANCH  24  27
ATOM     27  C   UNL     1      10.778  -2.303  -1.648  0.00  0.00    +0.074 C 
ATOM     28  C   UNL     1      10.908  -2.918  -3.056  0.00  0.00    +0.022 C 
ATOM     29  C   UNL     1      12.436  -3.047  -3.275  0.00  0.00    +0.002 C 
ATOM     30  C   UNL     1      12.948  -3.462  -1.874  0.00  0.00    +0.002 C 
ATOM     31  C   UNL     1      12.075  -2.648  -0.896  0.00  0.00    +0.022 C 
ENDBRANCH  24  27
ENDBRANCH  18  19
ENDBRANCH   9  18
TORSDOF 4
