REMARK  Name = ZINC16933531
REMARK  7 active torsions:
REMARK  status: ('A' for Active; 'I' for Inactive)
REMARK    1  A    between atoms: C_1  and  C_2
REMARK    2  A    between atoms: C_2  and  N_3
REMARK    3  A    between atoms: C_7  and  C_8
REMARK    4  A    between atoms: C_11  and  C_14
REMARK    5  A    between atoms: N_17  and  C_18
REMARK    6  A    between atoms: C_21  and  C_25
REMARK    7  A    between atoms: C_23  and  O_24
REMARK                            x       y       z     vdW  Elec       q    Type
REMARK                         _______ _______ _______ _____ _____    ______ ____
ROOT
ATOM      1  N   UNL     1      -0.794   2.517   1.639  0.00  0.00    -0.246 N 
ATOM      2  C   UNL     1      -1.489   3.174   0.727  0.00  0.00    +0.259 C 
ATOM      3  O   UNL     1      -2.343   2.623   0.058  0.00  0.00    -0.269 OA
ATOM      4  C   UNL     1      -1.182   4.609   0.557  0.00  0.00    +0.078 C 
ATOM      5  C   UNL     1      -1.732   5.513  -0.292  0.00  0.00    +0.028 C 
ATOM      6  S   UNL     1       0.110   4.835   1.771  0.00  0.00    -0.049 S 
ATOM      7  C   UNL     1       0.166   3.161   2.390  0.00  0.00    +0.169 C 
ATOM      8  N   UNL     1       0.936   2.665   3.332  0.00  0.00    -0.222 NA
ENDROOT
BRANCH   5   9
ATOM      9  C   UNL     1      -1.385   6.936  -0.176  0.00  0.00    -0.024 A 
ATOM     10  C   UNL     1      -0.783   7.421   0.990  0.00  0.00    +0.008 A 
ATOM     11  C   UNL     1      -0.456   8.757   1.089  0.00  0.00    +0.004 A 
ATOM     12  C   UNL     1      -0.732   9.619   0.042  0.00  0.00    -0.050 A 
ATOM     13  C   UNL     1      -1.332   9.149  -1.113  0.00  0.00    +0.004 A 
ATOM     14  C   UNL     1      -1.660   7.815  -1.230  0.00  0.00    +0.008 A 
ATOM     15  C   UNL     1      -0.376  11.079   0.160  0.00  0.00    +0.044 C 
ENDBRANCH   5   9
BRANCH   8  16
ATOM     16  C   UNL     1       1.773   3.488   4.036  0.00  0.00    +0.108 A 
ATOM     17  C   UNL     1       1.289   4.674   4.589  0.00  0.00    +0.032 A 
ATOM     18  C   UNL     1       2.138   5.499   5.299  0.00  0.00    +0.005 A 
ATOM     19  C   UNL     1       3.468   5.154   5.464  0.00  0.00    -0.047 A 
ATOM     20  C   UNL     1       3.959   3.980   4.921  0.00  0.00    +0.051 A 
ATOM     21  C   UNL     1       3.119   3.140   4.211  0.00  0.00    +0.142 A 
ATOM     22  C   UNL     1       4.387   6.062   6.241  0.00  0.00    +0.044 C 
BRANCH  21  23
ATOM     23  O   UNL     1       3.599   1.984   3.681  0.00  0.00    -0.505 OA
ATOM     24  H   UNL     1       3.946   2.077   2.783  0.00  0.00    +0.292 HD
ENDBRANCH  21  23
ENDBRANCH   8  16
BRANCH   1  26
ATOM     25  C   UNL     1      -0.147   0.264   0.941  0.00  0.00    +0.025 C 
ATOM     26  C   UNL     1      -1.049   1.091   1.858  0.00  0.00    +0.112 C 
ENDBRANCH   1  26
TORSDOF 4
