REMARK  Name = ZINC06241359
REMARK  2 active torsions:
REMARK  status: ('A' for Active; 'I' for Inactive)
REMARK    1  A    between atoms: C_6  and  C_7
REMARK    2  A    between atoms: C_20  and  C_22
REMARK                            x       y       z     vdW  Elec       q    Type
REMARK                         _______ _______ _______ _____ _____    ______ ____
ROOT
ATOM      1  C   UNL     1      -1.262  -0.761   0.011  0.00  0.00    +0.013 C 
ATOM      2  C   UNL     1      -1.244  -2.099  -0.098  0.00  0.00    -0.021 C 
ATOM      3  C   UNL     1       0.062  -2.864  -0.112  0.00  0.00    +0.037 C 
ATOM      4  C   UNL     1      -0.053  -3.944  -1.196  0.00  0.00    +0.009 C 
ATOM      5  C   UNL     1      -1.177  -4.907  -0.820  0.00  0.00    +0.035 C 
ATOM      6  C   UNL     1      -2.458  -4.176  -0.550  0.00  0.00    -0.017 C 
ATOM      7  C   UNL     1      -2.502  -2.874  -0.203  0.00  0.00    +0.072 C 
ATOM      8  N   UNL     1      -3.684  -2.245   0.053  0.00  0.00    -0.214 NA
ATOM      9  C   UNL     1      -4.855  -2.816  -0.010  0.00  0.00    +0.232 C 
ATOM     10  N   UNL     1      -6.125  -2.372   0.204  0.00  0.00    -0.231 N 
ATOM     11  N   UNL     1      -6.959  -3.331   0.011  0.00  0.00    -0.086 NA
ATOM     12  N   UNL     1      -6.355  -4.419  -0.325  0.00  0.00    -0.165 N 
ATOM     13  N   UNL     1      -4.986  -4.148  -0.355  0.00  0.00    -0.193 N 
ATOM     14  C   UNL     1      -3.777  -4.921  -0.661  0.00  0.00    +0.157 C 
ATOM     15  H   UNL     1      -6.775  -5.271  -0.521  0.00  0.00    +0.195 HD
ATOM     16  H   UNL     1      -6.363  -1.468   0.463  0.00  0.00    +0.193 HD
ENDROOT
BRANCH   1  22
ATOM     17  C   UNL     1       0.179   1.252  -0.246  0.00  0.00    +0.011 A 
ATOM     18  C   UNL     1       1.348   1.933   0.013  0.00  0.00    +0.039 A 
ATOM     19  C   UNL     1       2.333   1.353   0.798  0.00  0.00    +0.123 A 
ATOM     20  C   UNL     1       2.148   0.085   1.326  0.00  0.00    +0.039 A 
ATOM     21  C   UNL     1       0.982  -0.607   1.074  0.00  0.00    +0.011 A 
ATOM     22  C   UNL     1      -0.014  -0.027   0.284  0.00  0.00    -0.025 A 
ATOM     23  F   UNL     1       3.477   2.026   1.048  0.00  0.00    -0.205 F 
ENDBRANCH   1  22
BRANCH  14  24
ATOM     24  C   UNL     1      -3.734  -6.094   0.284  0.00  0.00    -0.021 A 
ATOM     25  C   UNL     1      -3.981  -5.904   1.631  0.00  0.00    +0.008 A 
ATOM     26  C   UNL     1      -3.942  -6.979   2.500  0.00  0.00    +0.038 A 
ATOM     27  C   UNL     1      -3.656  -8.245   2.020  0.00  0.00    +0.123 A 
ATOM     28  C   UNL     1      -3.409  -8.434   0.671  0.00  0.00    +0.038 A 
ATOM     29  C   UNL     1      -3.454  -7.359  -0.196  0.00  0.00    +0.008 A 
ATOM     30  F   UNL     1      -3.617  -9.296   2.868  0.00  0.00    -0.205 F 
ENDBRANCH  14  24
TORSDOF 2
