REMARK  Name = ZINC39314638
REMARK  12 active torsions:
REMARK  status: ('A' for Active; 'I' for Inactive)
REMARK    1  A    between atoms: C_1  and  C_2
REMARK    2  A    between atoms: C_2  and  O_3
REMARK    3  A    between atoms: O_3  and  C_4
REMARK    4  A    between atoms: C_4  and  C_6
REMARK    5  A    between atoms: C_7  and  N_35
REMARK    6  A    between atoms: C_21  and  C_23
REMARK    7  A    between atoms: C_25  and  O_33
REMARK    8  A    between atoms: C_26  and  O_31
REMARK    9  A    between atoms: C_27  and  O_29
REMARK   10  A    between atoms: O_29  and  C_30
REMARK   11  A    between atoms: O_31  and  C_32
REMARK   12  A    between atoms: O_33  and  C_34
REMARK                            x       y       z     vdW  Elec       q    Type
REMARK                         _______ _______ _______ _____ _____    ______ ____
ROOT
ATOM      1  C   UNL     1      -2.788  -2.394   0.010  0.00  0.00    +0.102 C 
ATOM      2  C   UNL     1      -2.916  -3.738  -0.088  0.00  0.00    +0.194 C 
ATOM      3  O   UNL     1      -4.126  -4.344  -0.062  0.00  0.00    -0.445 OA
ATOM      4  C   UNL     1      -5.196  -3.547  -0.127  0.00  0.00    +0.129 C 
ATOM      5  C   UNL     1      -6.325  -3.845  -0.875  0.00  0.00    +0.035 A 
ATOM      6  C   UNL     1      -6.424  -5.046  -1.607  0.00  0.00    +0.013 A 
ATOM      7  C   UNL     1      -7.552  -5.308  -2.321  0.00  0.00    +0.001 A 
ATOM      8  C   UNL     1      -8.616  -4.410  -2.347  0.00  0.00    +0.002 A 
ATOM      9  C   UNL     1      -8.578  -3.231  -1.665  0.00  0.00    +0.024 A 
ATOM     10  C   UNL     1      -7.444  -2.894  -0.907  0.00  0.00    +0.044 A 
ATOM     11  N   UNL     1      -7.403  -1.732  -0.244  0.00  0.00    -0.284 N 
ATOM     12  C   UNL     1      -6.389  -1.348   0.505  0.00  0.00    +0.229 C 
ATOM     13  O   UNL     1      -6.424  -0.273   1.074  0.00  0.00    -0.275 OA
ATOM     14  C   UNL     1      -5.181  -2.246   0.657  0.00  0.00    +0.154 C 
ATOM     15  C   UNL     1      -3.968  -1.470   0.141  0.00  0.00    +0.080 C 
ATOM     16  H   UNL     1      -8.165  -1.137  -0.320  0.00  0.00    +0.155 HD
ENDROOT
BRANCH  15  17
ATOM     17  C   UNL     1      -3.631  -0.361   1.105  0.00  0.00    -0.031 A 
ATOM     18  C   UNL     1      -3.289  -0.663   2.410  0.00  0.00    +0.054 A 
ATOM     19  C   UNL     1      -2.980   0.353   3.300  0.00  0.00    +0.165 A 
ATOM     20  C   UNL     1      -3.014   1.677   2.880  0.00  0.00    +0.204 A 
ATOM     21  C   UNL     1      -3.358   1.977   1.567  0.00  0.00    +0.165 A 
ATOM     22  C   UNL     1      -3.661   0.954   0.681  0.00  0.00    +0.054 A 
BRANCH  21  23
ATOM     23  O   UNL     1      -3.393   3.271   1.150  0.00  0.00    -0.491 OA
ATOM     24  C   UNL     1      -3.755   3.504  -0.213  0.00  0.00    +0.277 C 
ENDBRANCH  21  23
BRANCH  20  25
ATOM     25  O   UNL     1      -2.711   2.678   3.751  0.00  0.00    -0.488 OA
ATOM     26  C   UNL     1      -1.342   3.079   3.828  0.00  0.00    +0.277 C 
ENDBRANCH  20  25
BRANCH  19  27
ATOM     27  O   UNL     1      -2.644   0.056   4.584  0.00  0.00    -0.491 OA
ATOM     28  C   UNL     1      -2.630  -1.327   4.947  0.00  0.00    +0.277 C 
ENDBRANCH  19  27
ENDBRANCH  15  17
BRANCH   2  29
ATOM     29  N   UNL     1      -1.790  -4.506  -0.218  0.00  0.00    -0.329 N 
ATOM     30  H   UNL     1      -0.914  -4.095  -0.161  0.00  0.00    +0.145 HD
ATOM     31  H   UNL     1      -1.869  -5.461  -0.366  0.00  0.00    +0.145 HD
ENDBRANCH   2  29
BRANCH   1  32
ATOM     32  C   UNL     1      -1.498  -1.839  -0.005  0.00  0.00    +0.341 C 
ATOM     33  O   UNL     1      -1.077  -1.303  -1.015  0.00  0.00    -0.245 OA
BRANCH  32  34
ATOM     34  O   UNL     1      -0.724  -1.899   1.100  0.00  0.00    -0.462 OA
BRANCH  34  36
ATOM     35  C   UNL     1       1.300  -1.478   2.352  0.00  0.00    +0.048 C 
ATOM     36  C   UNL     1       0.577  -1.314   1.013  0.00  0.00    +0.229 C 
ENDBRANCH  34  36
ENDBRANCH  32  34
ENDBRANCH   1  32
TORSDOF 8
