REMARK  Name = ZINC08857503
REMARK  7 active torsions:
REMARK  status: ('A' for Active; 'I' for Inactive)
REMARK    1  A    between atoms: C_1  and  O_2
REMARK    2  A    between atoms: O_2  and  C_3
REMARK    3  A    between atoms: C_6  and  C_9
REMARK    4  A    between atoms: C_14  and  C_30
REMARK    5  A    between atoms: C_24  and  C_26
REMARK    6  A    between atoms: C_26  and  C_27
REMARK    7  A    between atoms: C_27  and  C_28
REMARK                            x       y       z     vdW  Elec       q    Type
REMARK                         _______ _______ _______ _____ _____    ______ ____
ROOT
ATOM      1  C   UNL     1       5.425   0.105  -1.727  0.00  0.00    +0.032 C 
ATOM      2  C   UNL     1       3.963  -0.092  -1.327  0.00  0.00    +0.059 C 
ATOM      3  C   UNL     1       3.354   1.243  -0.931  0.00  0.00    +0.017 C 
ATOM      4  C   UNL     1       3.744   2.373  -1.543  0.00  0.00    +0.038 C 
ATOM      5  C   UNL     1       3.200   3.758  -1.278  0.00  0.00    +0.153 C 
ATOM      6  N   UNL     1       2.371   3.857  -0.095  0.00  0.00    -0.257 N 
ATOM      7  C   UNL     1       1.157   3.177  -0.007  0.00  0.00    +0.058 A 
ATOM      8  C   UNL     1      -0.050   3.857   0.035  0.00  0.00    +0.025 A 
ATOM      9  C   UNL     1      -1.234   3.141   0.046  0.00  0.00    +0.002 A 
ATOM     10  C   UNL     1      -1.217   1.758   0.017  0.00  0.00    +0.002 A 
ATOM     11  C   UNL     1      -0.013   1.076   0.008  0.00  0.00    +0.025 A 
ATOM     12  C   UNL     1       1.173   1.791   0.001  0.00  0.00    +0.053 A 
ATOM     13  N   UNL     1       2.415   1.170   0.047  0.00  0.00    -0.316 N 
ATOM     14  C   UNL     1       2.780   4.620   0.938  0.00  0.00    +0.221 C 
ATOM     15  O   UNL     1       3.834   5.216   0.872  0.00  0.00    -0.275 OA
ATOM     16  C   UNL     1       4.759   2.338  -2.527  0.00  0.00    +0.163 C 
ATOM     17  O   UNL     1       5.079   3.374  -3.076  0.00  0.00    -0.292 OA
ATOM     18  C   UNL     1       5.457   1.070  -2.918  0.00  0.00    +0.088 C 
ATOM     19  H   UNL     1       2.627   0.646   0.835  0.00  0.00    +0.152 HD
ENDROOT
BRANCH   1  23
ATOM     20  C   UNL     1       7.135  -3.645  -2.856  0.00  0.00    +0.120 A 
ATOM     21  C   UNL     1       7.694  -2.910  -1.821  0.00  0.00    +0.046 A 
ATOM     22  C   UNL     1       7.140  -1.698  -1.458  0.00  0.00    +0.007 A 
ATOM     23  C   UNL     1       6.028  -1.218  -2.125  0.00  0.00    -0.043 A 
ATOM     24  C   UNL     1       5.465  -1.951  -3.153  0.00  0.00    +0.007 A 
ATOM     25  C   UNL     1       6.020  -3.161  -3.524  0.00  0.00    +0.046 A 
BRANCH  20  27
ATOM     26  C   UNL     1       7.051  -5.540  -4.289  0.00  0.00    +0.277 C 
ATOM     27  O   UNL     1       7.679  -4.838  -3.215  0.00  0.00    -0.495 OA
ENDBRANCH  20  27
ENDBRANCH   1  23
BRANCH   5  28
ATOM     28  C   UNL     1       2.385   4.188  -2.470  0.00  0.00    +0.015 A 
ATOM     29  C   UNL     1       2.735   5.006  -3.493  0.00  0.00    +0.013 A 
ATOM     30  C   UNL     1       1.814   5.263  -4.491  0.00  0.00    +0.008 A 
ATOM     31  C   UNL     1       0.588   4.689  -4.418  0.00  0.00    +0.045 A 
ATOM     32  S   UNL     1       0.711   3.747  -2.907  0.00  0.00    -0.099 S 
ENDBRANCH   5  28
BRANCH  14  33
ATOM     33  C   UNL     1       1.927   4.733   2.175  0.00  0.00    +0.107 C 
BRANCH  33  34
ATOM     34  C   UNL     1       2.614   5.652   3.187  0.00  0.00    +0.134 C 
BRANCH  34  35
ATOM     35  C   UNL     1       1.761   5.764   4.424  0.00  0.00    +0.356 C 
ATOM     36  O   UNL     1       0.711   5.170   4.490  0.00  0.00    -0.246 OA
ATOM     37  O   UNL     1       2.168   6.524   5.454  0.00  0.00    -0.246 OA
ENDBRANCH  34  35
ENDBRANCH  33  34
ENDBRANCH  14  33
TORSDOF 6
