REMARK  Name = ZINC01255058
REMARK  4 active torsions:
REMARK  status: ('A' for Active; 'I' for Inactive)
REMARK    1  A    between atoms: C_8  and  N_20
REMARK    2  A    between atoms: C_9  and  C_12
REMARK    3  A    between atoms: N_20  and  C_21
REMARK    4  A    between atoms: C_21  and  C_22
REMARK                            x       y       z     vdW  Elec       q    Type
REMARK                         _______ _______ _______ _____ _____    ______ ____
ROOT
ATOM      1  C   UNL     1      -0.500   0.676  -0.498  0.00  0.00    +0.005 A 
ATOM      2  C   UNL     1       0.589   1.535  -0.300  0.00  0.00    +0.018 A 
ATOM      3  C   UNL     1       1.837   1.030  -0.177  0.00  0.00    +0.096 A 
ATOM      4  N   UNL     1       2.056  -0.314  -0.243  0.00  0.00    -0.268 N 
ATOM      5  C   UNL     1       1.014  -1.177  -0.435  0.00  0.00    +0.142 A 
ATOM      6  C   UNL     1      -0.291  -0.670  -0.566  0.00  0.00    +0.047 A 
ATOM      7  N   UNL     1       1.206  -2.495  -0.502  0.00  0.00    -0.214 NA
ATOM      8  C   UNL     1       2.413  -3.028  -0.387  0.00  0.00    +0.134 A 
ATOM      9  C   UNL     1       3.533  -2.184  -0.186  0.00  0.00    +0.081 A 
ATOM     10  C   UNL     1       3.316  -0.785  -0.117  0.00  0.00    +0.267 A 
ATOM     11  O   UNL     1       4.249  -0.020   0.055  0.00  0.00    -0.267 OA
ENDROOT
BRANCH   9  12
ATOM     12  C   UNL     1       4.830  -2.721  -0.059  0.00  0.00    +0.037 C 
ATOM     13  C   UNL     1       5.095  -3.665   0.914  0.00  0.00    +0.079 C 
ATOM     14  C   UNL     1       6.276  -4.413   1.154  0.00  0.00    +0.275 C 
ATOM     15  O   UNL     1       7.368  -4.252   0.370  0.00  0.00    -0.267 OA
ATOM     16  N   UNL     1       6.288  -5.254   2.143  0.00  0.00    -0.161 NA
ATOM     17  C   UNL     1       5.217  -5.428   2.932  0.00  0.00    +0.139 C 
ATOM     18  S   UNL     1       5.025  -6.474   4.274  0.00  0.00    -0.026 S 
ATOM     19  S   UNL     1       4.044  -4.279   2.225  0.00  0.00    -0.059 S 
ENDBRANCH   9  12
BRANCH   8  20
ATOM     20  N   UNL     1       2.578  -4.393  -0.460  0.00  0.00    -0.326 N 
ATOM     21  H   UNL     1       3.464  -4.780  -0.375  0.00  0.00    +0.148 HD
BRANCH  20  22
ATOM     22  C   UNL     1       1.416  -5.261  -0.667  0.00  0.00    +0.134 C 
BRANCH  22  23
ATOM     23  C   UNL     1       1.872  -6.721  -0.710  0.00  0.00    +0.135 C 
ATOM     24  C   UNL     1       0.662  -7.655  -0.963  0.00  0.00    +0.035 C 
ATOM     25  C   UNL     1       1.366  -8.886  -1.596  0.00  0.00    +0.031 C 
ATOM     26  C   UNL     1       2.518  -8.232  -2.390  0.00  0.00    +0.160 C 
ATOM     27  O   UNL     1       2.753  -6.936  -1.824  0.00  0.00    -0.375 OA
ENDBRANCH  22  23
ENDBRANCH  20  22
ENDBRANCH   8  20
TORSDOF 4
