REMARK  Name = ZINC01017693
REMARK  2 active torsions:
REMARK  status: ('A' for Active; 'I' for Inactive)
REMARK    1  A    between atoms: C_3  and  N_25
REMARK    2  A    between atoms: C_6  and  C_7
REMARK                            x       y       z     vdW  Elec       q    Type
REMARK                         _______ _______ _______ _____ _____    ______ ____
ROOT
ATOM      1  C   UNL     1       2.490   1.048  -0.016  0.00  0.00    +0.105 C 
ATOM      2  C   UNL     1       3.071   1.010   1.400  0.00  0.00    +0.029 C 
ATOM      3  C   UNL     1       2.158   0.096   2.265  0.00  0.00    +0.033 C 
ATOM      4  C   UNL     1       2.644  -1.302   1.940  0.00  0.00    -0.030 C 
ATOM      5  C   UNL     1       3.862  -1.266   1.460  0.00  0.00    -0.023 C 
ATOM      6  C   UNL     1       4.360   0.160   1.389  0.00  0.00    +0.049 C 
ATOM      7  C   UNL     1       5.162   0.392   0.143  0.00  0.00    -0.018 A 
ATOM      8  C   UNL     1       6.422  -0.187   0.062  0.00  0.00    +0.007 A 
ATOM      9  C   UNL     1       7.207  -0.013  -1.059  0.00  0.00    +0.022 A 
ATOM     10  C   UNL     1       6.742   0.747  -2.119  0.00  0.00    +0.061 A 
ATOM     11  C   UNL     1       5.491   1.327  -2.048  0.00  0.00    +0.080 A 
ATOM     12  C   UNL     1       4.695   1.152  -0.915  0.00  0.00    +0.051 A 
ATOM     13  N   UNL     1       3.424   1.737  -0.907  0.00  0.00    -0.335 N 
ATOM     14 CL   UNL     1       4.904   2.280  -3.375  0.00  0.00    -0.080 Cl
ATOM     15 CL   UNL     1       7.726   0.968  -3.532  0.00  0.00    -0.082 Cl
ATOM     16  H   UNL     1       3.045   1.815  -1.838  0.00  0.00    +0.147 HD
ENDROOT
BRANCH   1  22
ATOM     17  C   UNL     1      -0.013   1.076   0.008  0.00  0.00    +0.008 A 
ATOM     18  C   UNL     1      -1.219   1.751   0.017  0.00  0.00    +0.033 A 
ATOM     19  C   UNL     1      -1.238   3.133   0.029  0.00  0.00    +0.126 A 
ATOM     20  C   UNL     1      -0.050   3.840   0.022  0.00  0.00    +0.033 A 
ATOM     21  C   UNL     1       1.156   3.165   0.008  0.00  0.00    +0.008 A 
ATOM     22  C   UNL     1       1.175   1.783   0.000  0.00  0.00    -0.027 A 
BRANCH  19  23
ATOM     23  N   UNL     1      -2.529   3.855   0.044  0.00  0.00    +0.056 N 
ATOM     24  O   UNL     1      -2.546   5.073   0.050  0.00  0.00    -0.126 OA
ATOM     25  O   UNL     1      -3.576   3.232   0.050  0.00  0.00    -0.126 OA
ENDBRANCH  19  23
ENDBRANCH   1  22
TORSDOF 2
