REMARK  Name = ZINC25724702
REMARK  10 active torsions:
REMARK  status: ('A' for Active; 'I' for Inactive)
REMARK    1  A    between atoms: C_1  and  C_2
REMARK    2  A    between atoms: C_3  and  C_26
REMARK    3  A    between atoms: N_9  and  C_25
REMARK    4  A    between atoms: C_10  and  S_12
REMARK    5  A    between atoms: S_12  and  C_13
REMARK    6  A    between atoms: C_13  and  C_15
REMARK    7  A    between atoms: C_13  and  C_16
REMARK    8  A    between atoms: N_21  and  C_22
REMARK    9  A    between atoms: C_22  and  C_23
REMARK   10  A    between atoms: C_22  and  C_24
REMARK                            x       y       z     vdW  Elec       q    Type
REMARK                         _______ _______ _______ _____ _____    ______ ____
ROOT
ATOM      1  S   UNL     1      -1.519  -0.894   0.011  0.00  0.00    -0.075 S 
ENDROOT
BRANCH   1  11
ATOM      2  C   UNL     1       4.917   1.761  -0.037  0.00  0.00    +0.045 C 
ATOM      3  C   UNL     1       3.509   2.297  -0.020  0.00  0.00    -0.026 A 
ATOM      4  C   UNL     1       3.286   3.619  -0.011  0.00  0.00    -0.008 A 
ATOM      5  S   UNL     1       1.508   3.740   0.008  0.00  0.00    -0.073 S 
ATOM      6  C   UNL     1       1.114   2.010   0.002  0.00  0.00    +0.117 A 
ATOM      7  C   UNL     1       2.376   1.387  -0.014  0.00  0.00    +0.075 A 
ATOM      8  C   UNL     1       2.364  -0.043  -0.021  0.00  0.00    +0.263 A 
ATOM      9  O   UNL     1       3.409  -0.670  -0.035  0.00  0.00    -0.267 OA
ATOM     10  N   UNL     1       1.183  -0.689  -0.013  0.00  0.00    -0.290 N 
ATOM     11  C   UNL     1       0.002  -0.004   0.002  0.00  0.00    +0.173 A 
ATOM     12  N   UNL     1      -0.016   1.313   0.009  0.00  0.00    -0.216 NA
ATOM     13  C   UNL     1       1.164  -2.153  -0.021  0.00  0.00    +0.154 C 
ATOM     14  C   UNL     1       4.298   4.736  -0.014  0.00  0.00    +0.052 C 
ENDBRANCH   1  11
BRANCH   1  15
ATOM     15  C   UNL     1      -2.690   0.485   0.029  0.00  0.00    +0.137 C 
ATOM     16  C   UNL     1      -2.544   1.262   1.340  0.00  0.00    +0.029 C 
BRANCH  15  17
ATOM     17  C   UNL     1      -4.095  -0.047  -0.085  0.00  0.00    +0.233 C 
ATOM     18  O   UNL     1      -4.346  -1.177   0.276  0.00  0.00    -0.274 OA
ATOM     19  N   UNL     1      -5.073   0.733  -0.587  0.00  0.00    -0.239 N 
ATOM     20  C   UNL     1      -6.330   0.256  -0.689  0.00  0.00    +0.306 C 
ATOM     21  O   UNL     1      -6.581  -0.876  -0.328  0.00  0.00    -0.252 OA
ATOM     22  N   UNL     1      -7.307   1.036  -1.192  0.00  0.00    -0.297 N 
ATOM     23  H   UNL     1      -4.845   1.758  -0.915  0.00  0.00    +0.159 HD
ATOM     24  H   UNL     1      -7.079   2.061  -1.520  0.00  0.00    +0.151 HD
BRANCH  22  25
ATOM     25  C   UNL     1      -8.673   0.518  -1.303  0.00  0.00    +0.068 C 
ATOM     26  C   UNL     1      -9.402   0.715   0.028  0.00  0.00    +0.027 C 
ATOM     27  C   UNL     1      -9.416   1.272  -2.408  0.00  0.00    +0.027 C 
ENDBRANCH  22  25
ENDBRANCH  15  17
ENDBRANCH   1  15
TORSDOF 4
