REMARK  Name = ZINC09065186
REMARK  8 active torsions:
REMARK  status: ('A' for Active; 'I' for Inactive)
REMARK    1  A    between atoms: C_1  and  C_2
REMARK    2  A    between atoms: C_2  and  O_3
REMARK    3  A    between atoms: O_3  and  C_4
REMARK    4  A    between atoms: C_4  and  C_6
REMARK    5  A    between atoms: C_9  and  C_12
REMARK    6  A    between atoms: C_15  and  C_17
REMARK    7  A    between atoms: C_28  and  N_54
REMARK    8  A    between atoms: C_29  and  O_31
REMARK                            x       y       z     vdW  Elec       q    Type
REMARK                         _______ _______ _______ _____ _____    ______ ____
ROOT
ATOM      1  C   UNL     1       5.737  -3.696  -0.072  0.00  0.00    +0.260 C 
ATOM      2  N   UNL     1       4.809  -4.618   0.607  0.00  0.00    -0.311 N 
ATOM      3  C   UNL     1       4.896  -4.672   1.975  0.00  0.00    +0.080 A 
ATOM      4  C   UNL     1       6.069  -4.334   2.664  0.00  0.00    +0.067 A 
ATOM      5  C   UNL     1       6.003  -4.429   4.109  0.00  0.00    -0.027 A 
ATOM      6  C   UNL     1       4.815  -4.838   4.617  0.00  0.00    -0.021 A 
ATOM      7  S   UNL     1       3.780  -5.096   3.201  0.00  0.00    -0.080 S 
ATOM      8  C   UNL     1       4.481  -5.023   6.063  0.00  0.00    -0.036 C 
ATOM      9  C   UNL     1       6.588  -3.896   6.455  0.00  0.00    -0.074 C 
ATOM     10  C   UNL     1       7.158  -4.103   5.049  0.00  0.00    +0.018 C 
ATOM     11  C   UNL     1       5.478  -5.045   8.275  0.00  0.00    -0.096 C 
ATOM     12  C   UNL     1       7.240  -3.921   1.848  0.00  0.00    +0.220 C 
ATOM     13  N   UNL     1       7.039  -3.667   0.583  0.00  0.00    -0.220 NA
ATOM     14  H   UNL     1       4.170  -5.157   0.114  0.00  0.00    +0.149 HD
ATOM     15  N   UNL     1       5.754  -5.059   6.822  0.00  0.00    +0.381 N 
ATOM     16  H   UNL     1       6.260  -5.921   6.587  0.00  0.00    -0.082 HD
ENDROOT
BRANCH   1  20
ATOM     17  C   UNL     1       3.683  -0.675  -0.037  0.00  0.00    +0.135 A 
ATOM     18  C   UNL     1       4.918  -0.103  -0.045  0.00  0.00    +0.050 A 
ATOM     19  C   UNL     1       5.852  -1.157  -0.060  0.00  0.00    +0.049 A 
ATOM     20  C   UNL     1       5.150  -2.308  -0.059  0.00  0.00    +0.148 A 
ATOM     21  O   UNL     1       3.840  -2.013  -0.040  0.00  0.00    -0.456 OA
BRANCH  17  25
ATOM     22  C   UNL     1      -0.017   1.395   0.010  0.00  0.00    +0.059 A 
ATOM     23  C   UNL     1       1.185   2.110   0.002  0.00  0.00    +0.015 A 
ATOM     24  C   UNL     1       2.377   1.443  -0.012  0.00  0.00    +0.012 A 
ATOM     25  C   UNL     1       2.395   0.045  -0.021  0.00  0.00    +0.017 A 
ATOM     26  C   UNL     1       1.194  -0.670  -0.013  0.00  0.00    +0.012 A 
ATOM     27  C   UNL     1       0.002  -0.004   0.002  0.00  0.00    +0.015 A 
BRANCH  22  28
ATOM     28  C   UNL     1      -1.304   2.115   0.020  0.00  0.00    +0.339 C 
ATOM     29  O   UNL     1      -2.348   1.493   0.021  0.00  0.00    -0.245 OA
BRANCH  28  30
ATOM     30  O   UNL     1      -1.322   3.462   0.027  0.00  0.00    -0.461 OA
BRANCH  30  32
ATOM     31  C   UNL     1      -2.444   5.623   0.044  0.00  0.00    +0.048 C 
ATOM     32  C   UNL     1      -2.624   4.104   0.037  0.00  0.00    +0.229 C 
ENDBRANCH  30  32
ENDBRANCH  28  30
ENDBRANCH  22  28
ENDBRANCH  17  25
ENDBRANCH   1  20
BRANCH  12  33
ATOM     33  O   UNL     1       8.473  -3.812   2.396  0.00  0.00    -0.492 OA
ATOM     34  H   UNL     1       9.158  -3.536   1.772  0.00  0.00    +0.294 HD
ENDBRANCH  12  33
TORSDOF 6
