REMARK  Name = ZINC63961774
REMARK  7 active torsions:
REMARK  status: ('A' for Active; 'I' for Inactive)
REMARK    1  A    between atoms: C_1  and  C_2
REMARK    2  A    between atoms: C_5  and  N_9
REMARK    3  A    between atoms: C_6  and  C_8
REMARK    4  A    between atoms: C_14  and  N_18
REMARK    5  A    between atoms: N_18  and  C_19
REMARK    6  A    between atoms: C_19  and  C_20
REMARK    7  A    between atoms: C_20  and  C_21
REMARK                            x       y       z     vdW  Elec       q    Type
REMARK                         _______ _______ _______ _____ _____    ______ ____
ROOT
ATOM      1  N   UNL     1       0.448  -4.130   0.216  0.00  0.00    -0.214 N 
ATOM      2  C   UNL     1       0.585  -5.005  -0.823  0.00  0.00    +0.168 A 
ATOM      3  C   UNL     1       0.782  -6.278  -0.251  0.00  0.00    +0.079 A 
ATOM      4  C   UNL     1       0.756  -6.110   1.151  0.00  0.00    +0.148 A 
ATOM      5  N   UNL     1       0.566  -4.848   1.413  0.00  0.00    -0.172 NA
ATOM      6  C   UNL     1       0.954  -7.377  -1.114  0.00  0.00    +0.133 A 
ATOM      7  N   UNL     1       0.921  -7.162  -2.425  0.00  0.00    -0.220 NA
ATOM      8  C   UNL     1       0.733  -5.950  -2.915  0.00  0.00    +0.225 A 
ATOM      9  N   UNL     1       0.569  -4.893  -2.149  0.00  0.00    -0.216 NA
ENDROOT
BRANCH   1  14
ATOM     10  C   UNL     1      -0.421   1.460  -0.236  0.00  0.00    +0.044 C 
ATOM     11  C   UNL     1      -0.190  -0.025  -0.116  0.00  0.00    -0.050 A 
ATOM     12  C   UNL     1       0.794  -0.633  -0.873  0.00  0.00    +0.005 A 
ATOM     13  C   UNL     1       1.008  -1.993  -0.765  0.00  0.00    +0.028 A 
ATOM     14  C   UNL     1       0.234  -2.750   0.105  0.00  0.00    +0.071 A 
ATOM     15  C   UNL     1      -0.754  -2.136   0.863  0.00  0.00    -0.025 A 
ATOM     16  C   UNL     1      -0.959  -0.774   0.755  0.00  0.00    +0.008 A 
ATOM     17  C   UNL     1      -1.597  -2.953   1.808  0.00  0.00    +0.046 C 
ENDBRANCH   1  14
BRANCH   6  18
ATOM     18  N   UNL     1       1.152  -8.648  -0.610  0.00  0.00    -0.328 N 
ATOM     19  H   UNL     1       1.174  -8.791   0.349  0.00  0.00    +0.147 HD
BRANCH  18  20
ATOM     20  C   UNL     1       1.328  -9.779  -1.524  0.00  0.00    +0.107 C 
BRANCH  20  21
ATOM     21  C   UNL     1       1.528 -11.062  -0.716  0.00  0.00    +0.052 C 
BRANCH  21  22
ATOM     22  C   UNL     1       1.709 -12.226  -1.656  0.00  0.00    -0.040 C 
ATOM     23  C   UNL     1       2.880 -12.749  -2.085  0.00  0.00    -0.001 A 
ATOM     24  C   UNL     1       4.281 -12.405  -1.816  0.00  0.00    +0.010 A 
ATOM     25  C   UNL     1       5.259 -13.129  -2.407  0.00  0.00    +0.001 A 
ATOM     26  C   UNL     1       4.969 -14.197  -3.267  0.00  0.00    +0.002 A 
ATOM     27  C   UNL     1       3.707 -14.573  -3.562  0.00  0.00    +0.026 A 
ATOM     28  C   UNL     1       2.600 -13.882  -2.997  0.00  0.00    +0.043 A 
ATOM     29  N   UNL     1       1.306 -14.051  -3.126  0.00  0.00    -0.380 N 
ATOM     30  C   UNL     1       0.619 -13.048  -2.305  0.00  0.00    +0.144 C 
ATOM     31  H   UNL     1       0.876 -14.729  -3.671  0.00  0.00    +0.160 HD
ENDBRANCH  21  22
ENDBRANCH  20  21
ENDBRANCH  18  20
ENDBRANCH   6  18
TORSDOF 5
