REMARK  Name = ZINC27571979
REMARK  4 active torsions:
REMARK  status: ('A' for Active; 'I' for Inactive)
REMARK    1  A    between atoms: C_3  and  O_29
REMARK    2  A    between atoms: C_4  and  N_26
REMARK    3  A    between atoms: C_6  and  C_7
REMARK    4  A    between atoms: C_18  and  C_23
REMARK                            x       y       z     vdW  Elec       q    Type
REMARK                         _______ _______ _______ _____ _____    ______ ____
ROOT
ATOM      1  C   UNL     1      -1.293  -0.774   0.011  0.00  0.00    +0.105 C 
ATOM      2  C   UNL     1      -1.816  -0.904   1.430  0.00  0.00    +0.029 C 
ATOM      3  C   UNL     1      -0.868  -1.507   2.475  0.00  0.00    +0.033 C 
ATOM      4  C   UNL     1      -1.349  -0.823   3.756  0.00  0.00    -0.030 C 
ATOM      5  C   UNL     1      -1.921   0.339   3.464  0.00  0.00    -0.023 C 
ATOM      6  C   UNL     1      -1.874   0.551   1.985  0.00  0.00    +0.049 C 
ATOM      7  C   UNL     1      -2.927   1.276   1.241  0.00  0.00    -0.019 A 
ATOM      8  C   UNL     1      -3.714   2.222   1.827  0.00  0.00    +0.021 A 
ATOM      9  C   UNL     1      -4.688   2.891   1.077  0.00  0.00    +0.064 A 
ATOM     10  C   UNL     1      -4.849   2.584  -0.279  0.00  0.00    +0.017 A 
ATOM     11  C   UNL     1      -4.062   1.633  -0.861  0.00  0.00    +0.024 A 
ATOM     12  C   UNL     1      -3.096   0.959  -0.116  0.00  0.00    +0.031 A 
ATOM     13  N   UNL     1      -2.333  -0.032  -0.735  0.00  0.00    -0.336 N 
ATOM     14  H   UNL     1      -2.487  -0.241  -1.669  0.00  0.00    +0.147 HD
ENDROOT
BRANCH   1  20
ATOM     15  C   UNL     1      -0.013   1.370  -0.147  0.00  0.00    +0.009 A 
ATOM     16  C   UNL     1       1.173   2.078  -0.155  0.00  0.00    +0.048 A 
ATOM     17  C   UNL     1       2.380   1.409  -0.013  0.00  0.00    +0.147 A 
ATOM     18  C   UNL     1       2.393   0.030   0.137  0.00  0.00    +0.168 A 
ATOM     19  C   UNL     1       1.204  -0.673   0.144  0.00  0.00    +0.042 A 
ATOM     20  C   UNL     1       0.002  -0.004   0.002  0.00  0.00    -0.025 A 
BRANCH  18  21
ATOM     21  N   UNL     1       3.678  -0.687   0.288  0.00  0.00    +0.060 N 
ATOM     22  O   UNL     1       3.689  -1.889   0.418  0.00  0.00    -0.126 OA
ATOM     23  O   UNL     1       4.718  -0.071   0.281  0.00  0.00    -0.126 OA
ENDBRANCH  18  21
BRANCH  17  24
ATOM     24  O   UNL     1       3.548   2.104  -0.021  0.00  0.00    -0.504 OA
ATOM     25  H   UNL     1       3.836   2.400   0.854  0.00  0.00    +0.292 HD
ENDBRANCH  17  24
ENDBRANCH   1  20
BRANCH   9  26
ATOM     26  C   UNL     1      -5.538   3.911   1.710  0.00  0.00    +0.387 C 
ATOM     27  O   UNL     1      -5.395   4.177   2.896  0.00  0.00    -0.241 OA
ATOM     28  O   UNL     1      -6.389   4.494   1.051  0.00  0.00    -0.241 OA
ENDBRANCH   9  26
TORSDOF 4
