REMARK  Name = ZINC57429709
REMARK  6 active torsions:
REMARK  status: ('A' for Active; 'I' for Inactive)
REMARK    1  A    between atoms: C_1  and  C_2
REMARK    2  A    between atoms: C_2  and  C_4
REMARK    3  A    between atoms: C_2  and  C_21
REMARK    4  A    between atoms: C_4  and  C_5
REMARK    5  A    between atoms: N_7  and  C_8
REMARK    6  A    between atoms: C_24  and  C_27
REMARK                            x       y       z     vdW  Elec       q    Type
REMARK                         _______ _______ _______ _____ _____    ______ ____
ROOT
ATOM      1  C   UNL     1      -0.030  -0.130   2.478  0.00  0.00    +0.214 C 
ATOM      2  O   UNL     1      -1.069   0.487   2.378  0.00  0.00    -0.276 OA
ATOM      3  N   UNL     1       0.435  -0.473   3.696  0.00  0.00    -0.308 N 
ATOM      4  H   UNL     1       1.267  -0.967   3.776  0.00  0.00    +0.149 HD
ENDROOT
BRANCH   3   5
ATOM      5  C   UNL     1      -0.315  -0.103   4.898  0.00  0.00    +0.105 C 
ATOM      6  C   UNL     1       0.645  -0.012   6.082  0.00  0.00    +0.027 C 
ATOM      7  C   UNL     1      -0.186   0.150   7.361  0.00  0.00    +0.008 C 
ATOM      8  C   UNL     1      -0.925  -1.160   7.620  0.00  0.00    +0.054 C 
ATOM      9  C   UNL     1      -1.663  -1.609   6.385  0.00  0.00    +0.024 A 
ATOM     10  C   UNL     1      -1.382  -1.135   5.155  0.00  0.00    -0.008 A 
ATOM     11  C   UNL     1      -2.105  -1.610   4.043  0.00  0.00    +0.012 A 
ATOM     12  C   UNL     1      -3.083  -2.539   4.216  0.00  0.00    +0.070 A 
ATOM     13  C   UNL     1      -3.356  -3.008   5.513  0.00  0.00    +0.249 A 
ATOM     14  O   UNL     1      -4.232  -3.839   5.692  0.00  0.00    -0.268 OA
ATOM     15  N   UNL     1      -2.652  -2.537   6.552  0.00  0.00    -0.326 N 
ATOM     16  H   UNL     1      -2.848  -2.865   7.444  0.00  0.00    +0.169 HD
ENDBRANCH   3   5
BRANCH   1  17
ATOM     17  C   UNL     1       0.742  -0.511   1.242  0.00  0.00    +0.103 C 
BRANCH  17  19
ATOM     18  C   UNL     1      -0.019   1.526   0.010  0.00  0.00    +0.013 C 
ATOM     19  C   UNL     1       0.002  -0.004   0.002  0.00  0.00    +0.025 C 
BRANCH  19  20
ATOM     20  C   UNL     1       0.707  -0.490  -1.238  0.00  0.00    -0.044 A 
ATOM     21  C   UNL     1       2.026  -0.142  -1.464  0.00  0.00    +0.004 A 
ATOM     22  C   UNL     1       2.673  -0.587  -2.602  0.00  0.00    +0.012 A 
ATOM     23  C   UNL     1       2.002  -1.382  -3.512  0.00  0.00    +0.055 A 
ATOM     24  C   UNL     1       0.684  -1.731  -3.285  0.00  0.00    +0.012 A 
ATOM     25  C   UNL     1       0.038  -1.289  -2.146  0.00  0.00    +0.004 A 
BRANCH  23  26
ATOM     26  C   UNL     1       2.707  -1.867  -4.753  0.00  0.00    +0.417 C 
ATOM     27  F   UNL     1       3.323  -3.095  -4.489  0.00  0.00    -0.166 F 
ATOM     28  F   UNL     1       1.777  -2.024  -5.786  0.00  0.00    -0.166 F 
ATOM     29  F   UNL     1       3.675  -0.932  -5.134  0.00  0.00    -0.166 F 
ENDBRANCH  23  26
ENDBRANCH  19  20
ENDBRANCH  17  19
ENDBRANCH   1  17
TORSDOF 5
