REMARK  Name = ZINC39951147
REMARK  7 active torsions:
REMARK  status: ('A' for Active; 'I' for Inactive)
REMARK    1  A    between atoms: C_1  and  C_2
REMARK    2  A    between atoms: C_2  and  C_3
REMARK    3  A    between atoms: C_8  and  C_28
REMARK    4  A    between atoms: C_9  and  O_11
REMARK    5  A    between atoms: C_15  and  C_17
REMARK    6  A    between atoms: C_26  and  O_27
REMARK    7  A    between atoms: C_28  and  C_29
REMARK                            x       y       z     vdW  Elec       q    Type
REMARK                         _______ _______ _______ _____ _____    ______ ____
ROOT
ATOM      1  C   UNL     1       0.539  -0.308  -1.320  0.00  0.00    -0.016 C 
ATOM      2  C   UNL     1       1.953   0.096  -1.035  0.00  0.00    +0.023 C 
ATOM      3  C   UNL     1       2.797   0.261  -2.254  0.00  0.00    +0.083 C 
ATOM      4  N   UNL     1       2.519  -0.660  -3.329  0.00  0.00    -0.311 NA
ATOM      5  C   UNL     1       2.179  -2.016  -2.991  0.00  0.00    +0.090 C 
ATOM      6  C   UNL     1       0.713  -2.318  -2.752  0.00  0.00    -0.005 C 
ATOM      7  C   UNL     1       0.301  -1.795  -1.393  0.00  0.00    +0.125 C 
ATOM      8  C   UNL     1      -0.162  -1.619  -3.799  0.00  0.00    -0.065 C 
ATOM      9  N   UNL     1       0.205  -0.198  -3.799  0.00  0.00    +0.394 N 
ATOM     10  C   UNL     1      -0.042   0.438  -2.510  0.00  0.00    -0.067 C 
ATOM     11  C   UNL     1       1.574  -0.047  -4.278  0.00  0.00    +0.037 C 
ATOM     12  H   UNL     1      -0.389   0.259  -4.474  0.00  0.00    -0.079 HD
ENDROOT
BRANCH  11  13
ATOM     13  C   UNL     1       1.709  -0.717  -5.621  0.00  0.00    +0.002 A 
ATOM     14  C   UNL     1       2.960  -1.188  -6.052  0.00  0.00    -0.012 A 
ATOM     15  C   UNL     1       4.107  -1.049  -5.251  0.00  0.00    +0.009 A 
ATOM     16  C   UNL     1       5.303  -1.517  -5.700  0.00  0.00    +0.001 A 
ATOM     17  C   UNL     1       5.410  -2.134  -6.946  0.00  0.00    +0.001 A 
ATOM     18  C   UNL     1       4.321  -2.287  -7.748  0.00  0.00    +0.008 A 
ATOM     19  C   UNL     1       3.069  -1.816  -7.318  0.00  0.00    -0.017 A 
ATOM     20  C   UNL     1       1.923  -1.957  -8.120  0.00  0.00    +0.012 A 
ATOM     21  C   UNL     1       0.726  -1.490  -7.674  0.00  0.00    +0.046 A 
ATOM     22  C   UNL     1       0.615  -0.875  -6.423  0.00  0.00    +0.120 A 
BRANCH  22  23
ATOM     23  O   UNL     1      -0.596  -0.423  -6.002  0.00  0.00    -0.506 OA
ATOM     24  H   UNL     1      -0.784   0.491  -6.255  0.00  0.00    +0.292 HD
ENDBRANCH  22  23
ENDBRANCH  11  13
BRANCH   1  26
ATOM     25  C   UNL     1       0.203  -0.564   1.142  0.00  0.00    +0.004 C 
ATOM     26  C   UNL     1      -0.270   0.172  -0.113  0.00  0.00    +0.004 C 
ENDBRANCH   1  26
BRANCH   7  27
ATOM     27  O   UNL     1      -1.088  -2.068  -1.200  0.00  0.00    -0.391 OA
ATOM     28  H   UNL     1      -1.433  -1.766  -0.348  0.00  0.00    +0.210 HD
ENDBRANCH   7  27
BRANCH   6  29
ATOM     29  C   UNL     1       0.485  -3.829  -2.817  0.00  0.00    +0.005 C 
ATOM     30  C   UNL     1       0.894  -4.348  -4.198  0.00  0.00    +0.004 C 
ENDBRANCH   6  29
TORSDOF 5
