REMARK  Name = ZINC05194537
REMARK  3 active torsions:
REMARK  status: ('A' for Active; 'I' for Inactive)
REMARK    1  A    between atoms: C_1  and  O_2
REMARK    2  A    between atoms: O_2  and  C_3
REMARK    3  A    between atoms: C_19  and  C_21
REMARK                            x       y       z     vdW  Elec       q    Type
REMARK                         _______ _______ _______ _____ _____    ______ ____
ROOT
ATOM      1  C   UNL     1      -3.339   1.595  -4.651  0.00  0.00    +0.162 A 
ATOM      2  C   UNL     1      -3.308   0.990  -5.893  0.00  0.00    +0.049 A 
ATOM      3  C   UNL     1      -2.776  -0.279  -6.032  0.00  0.00    +0.004 A 
ATOM      4  C   UNL     1      -2.270  -0.935  -4.927  0.00  0.00    +0.009 A 
ATOM      5  C   UNL     1      -2.291  -0.331  -3.683  0.00  0.00    +0.020 A 
ATOM      6  C   UNL     1      -2.833   0.934  -3.526  0.00  0.00    +0.170 A 
ATOM      7  O   UNL     1      -2.913   1.581  -2.334  0.00  0.00    -0.463 OA
ATOM      8  C   UNL     1      -2.195   1.089  -1.202  0.00  0.00    +0.190 C 
ATOM      9  C   UNL     1      -0.753   1.593  -1.232  0.00  0.00    +0.051 C 
ATOM     10  C   UNL     1      -0.013   1.086   0.008  0.00  0.00    -0.077 C 
ATOM     11  C   UNL     1      -2.070   1.036   1.289  0.00  0.00    -0.077 C 
ATOM     12  C   UNL     1      -2.874   1.542   0.089  0.00  0.00    +0.051 C 
ATOM     13  N   UNL     1      -2.215  -0.374  -1.292  0.00  0.00    -0.207 N 
ATOM     14  C   UNL     1      -1.708  -1.062  -2.502  0.00  0.00    +0.136 C 
ATOM     15  C   UNL     1      -2.288  -2.475  -2.356  0.00  0.00    +0.086 C 
ATOM     16  C   UNL     1      -2.807  -2.503  -0.933  0.00  0.00    +0.070 C 
ATOM     17  N   UNL     1      -2.714  -1.321  -0.417  0.00  0.00    -0.185 NA
ATOM     18  N   UNL     1      -0.695   1.567   1.225  0.00  0.00    +0.379 N 
ATOM     19  H   UNL     1      -0.729   2.593   1.210  0.00  0.00    -0.086 HD
ATOM     20  H   UNL     1      -0.172   1.254   2.052  0.00  0.00    -0.086 HD
ENDROOT
BRANCH  16  21
ATOM     21  C   UNL     1      -3.337  -3.694  -0.243  0.00  0.00    +0.016 A 
ATOM     22  C   UNL     1      -3.394  -4.922  -0.906  0.00  0.00    +0.011 A 
ATOM     23  C   UNL     1      -3.885  -6.033  -0.253  0.00  0.00    +0.001 A 
ATOM     24  C   UNL     1      -4.331  -5.931   1.053  0.00  0.00    +0.001 A 
ATOM     25  C   UNL     1      -4.283  -4.718   1.715  0.00  0.00    +0.020 A 
ATOM     26  C   UNL     1      -3.789  -3.598   1.076  0.00  0.00    +0.050 A 
ATOM     27 CL   UNL     1      -3.730  -2.076   1.908  0.00  0.00    -0.083 Cl
ENDBRANCH  16  21
BRANCH   1  29
ATOM     28  C   UNL     1      -4.364   3.463  -5.707  0.00  0.00    +0.277 C 
ATOM     29  O   UNL     1      -3.865   2.842  -4.521  0.00  0.00    -0.491 OA
ENDBRANCH   1  29
TORSDOF 2
