REMARK  Name = ZINC15212989
REMARK  5 active torsions:
REMARK  status: ('A' for Active; 'I' for Inactive)
REMARK    1  A    between atoms: C_1  and  C_2
REMARK    2  A    between atoms: C_5  and  N_8
REMARK    3  A    between atoms: C_18  and  N_19
REMARK    4  A    between atoms: N_19  and  N_20
REMARK    5  A    between atoms: C_21  and  C_23
REMARK                            x       y       z     vdW  Elec       q    Type
REMARK                         _______ _______ _______ _____ _____    ______ ____
ROOT
ATOM      1  N   UNL     1       0.775   2.108  -0.079  0.00  0.00    -0.202 N 
ATOM      2  C   UNL     1      -0.317   1.344   0.082  0.00  0.00    +0.258 C 
ATOM      3  O   UNL     1      -1.413   1.870   0.129  0.00  0.00    -0.269 OA
ATOM      4  C   UNL     1      -0.212  -0.116   0.198  0.00  0.00    +0.046 A 
ATOM      5  C   UNL     1      -1.343  -0.916   0.366  0.00  0.00    +0.014 A 
ATOM      6  C   UNL     1      -1.202  -2.283   0.470  0.00  0.00    +0.001 A 
ATOM      7  C   UNL     1       0.052  -2.873   0.410  0.00  0.00    +0.001 A 
ATOM      8  C   UNL     1       1.183  -2.100   0.244  0.00  0.00    +0.009 A 
ATOM      9  C   UNL     1       1.062  -0.720   0.136  0.00  0.00    +0.000 A 
ATOM     10  C   UNL     1       2.240   0.154  -0.042  0.00  0.00    +0.060 C 
ATOM     11  C   UNL     1       3.510  -0.374  -0.110  0.00  0.00    +0.101 C 
ATOM     12  C   UNL     1       2.017   1.600  -0.146  0.00  0.00    +0.259 C 
ATOM     13  O   UNL     1       2.966   2.348  -0.293  0.00  0.00    -0.269 OA
ENDROOT
BRANCH   1  18
ATOM     14  C   UNL     1       0.117   7.728  -0.502  0.00  0.00    +0.044 C 
ATOM     15  C   UNL     1       0.291   6.236  -0.390  0.00  0.00    -0.050 A 
ATOM     16  C   UNL     1      -0.373   5.396  -1.264  0.00  0.00    +0.005 A 
ATOM     17  C   UNL     1      -0.214   4.027  -1.164  0.00  0.00    +0.024 A 
ATOM     18  C   UNL     1       0.613   3.495  -0.184  0.00  0.00    +0.045 A 
ATOM     19  C   UNL     1       1.274   4.341   0.697  0.00  0.00    +0.024 A 
ATOM     20  C   UNL     1       1.116   5.709   0.588  0.00  0.00    +0.005 A 
ENDBRANCH   1  18
BRANCH  11  21
ATOM     21  N   UNL     1       3.696  -1.644  -0.557  0.00  0.00    -0.271 N 
ATOM     22  H   UNL     1       2.950  -2.140  -0.930  0.00  0.00    +0.169 HD
BRANCH  21  23
ATOM     23  N   UNL     1       4.963  -2.236  -0.479  0.00  0.00    -0.237 N 
ATOM     24  C   UNL     1       5.146  -3.495  -0.923  0.00  0.00    +0.232 C 
ATOM     25  O   UNL     1       4.215  -4.116  -1.389  0.00  0.00    -0.274 OA
ATOM     26  H   UNL     1       5.708  -1.740  -0.107  0.00  0.00    +0.173 HD
BRANCH  24  27
ATOM     27  C   UNL     1       6.510  -4.133  -0.839  0.00  0.00    +0.076 C 
ATOM     28  C   UNL     1       7.248  -4.396  -2.153  0.00  0.00    +0.013 C 
ATOM     29  C   UNL     1       6.654  -5.564  -1.361  0.00  0.00    +0.013 C 
ENDBRANCH  24  27
ENDBRANCH  21  23
ENDBRANCH  11  21
TORSDOF 4
