REMARK  Name = ZINC39510544
REMARK  4 active torsions:
REMARK  status: ('A' for Active; 'I' for Inactive)
REMARK    1  A    between atoms: C_1  and  C_2
REMARK    2  A    between atoms: C_3  and  C_12
REMARK    3  A    between atoms: C_14  and  C_17
REMARK    4  A    between atoms: C_22  and  C_23
REMARK                            x       y       z     vdW  Elec       q    Type
REMARK                         _______ _______ _______ _____ _____    ______ ____
ROOT
ATOM      1  C   UNL     1      -0.013   0.052  -2.497  0.00  0.00    +0.204 A 
ATOM      2  N   UNL     1      -0.028   1.390  -2.631  0.00  0.00    -0.190 NA
ATOM      3  C   UNL     1      -0.041   1.712  -3.893  0.00  0.00    +0.242 A 
ATOM      4  O   UNL     1      -0.034   0.587  -4.618  0.00  0.00    -0.337 OA
ATOM      5  N   UNL     1      -0.011  -0.488  -3.690  0.00  0.00    -0.056 NA
ENDROOT
BRANCH   1   8
ATOM      6  C   UNL     1      -0.018   1.503   0.010  0.00  0.00    +0.066 C 
ATOM      7  C   UNL     1       0.002  -0.004   0.002  0.00  0.00    +0.049 A 
ATOM      8  C   UNL     1       0.006  -0.689  -1.211  0.00  0.00    +0.047 A 
ATOM      9  C   UNL     1       0.026  -2.087  -1.196  0.00  0.00    -0.034 A 
ATOM     10  C   UNL     1       0.044  -2.735   0.020  0.00  0.00    -0.043 A 
ATOM     11  C   UNL     1       0.037  -1.982   1.184  0.00  0.00    +0.113 A 
ATOM     12  N   UNL     1       0.022  -0.664   1.142  0.00  0.00    -0.259 NA
ATOM     13  C   UNL     1       0.074  -4.236   0.115  0.00  0.00    -0.045 C 
ATOM     14  N   UNL     1      -0.359  -4.840  -1.149  0.00  0.00    +0.382 N 
ATOM     15  C   UNL     1       0.453  -4.293  -2.247  0.00  0.00    -0.077 C 
ATOM     16  C   UNL     1       0.028  -2.845  -2.496  0.00  0.00    +0.017 C 
ATOM     17  H   UNL     1      -0.236  -5.840  -1.105  0.00  0.00    -0.085 HD
ATOM     18  H   UNL     1      -1.331  -4.625  -1.310  0.00  0.00    -0.085 HD
ENDBRANCH   1   8
BRANCH   3  19
ATOM     19  C   UNL     1      -0.061   3.115  -4.444  0.00  0.00    +0.171 C 
ATOM     20  C   UNL     1       1.111   3.338  -5.378  0.00  0.00    +0.127 C 
ATOM     21  N   UNL     1       0.601   3.608  -6.536  0.00  0.00    -0.161 NA
ATOM     22  N   UNL     1      -0.790   3.599  -6.520  0.00  0.00    -0.153 NA
ATOM     23  C   UNL     1      -1.270   3.322  -5.335  0.00  0.00    +0.091 C 
BRANCH  23  24
ATOM     24  C   UNL     1      -2.685   3.228  -4.946  0.00  0.00    +0.034 A 
ATOM     25  C   UNL     1      -3.033   2.924  -3.625  0.00  0.00    +0.012 A 
ATOM     26  C   UNL     1      -4.361   2.837  -3.268  0.00  0.00    +0.001 A 
ATOM     27  C   UNL     1      -5.352   3.051  -4.212  0.00  0.00    +0.003 A 
ATOM     28  C   UNL     1      -5.019   3.352  -5.520  0.00  0.00    +0.039 A 
ATOM     29  C   UNL     1      -3.692   3.449  -5.894  0.00  0.00    +0.132 A 
ATOM     30  F   UNL     1      -3.368   3.749  -7.170  0.00  0.00    -0.205 F 
ENDBRANCH  23  24
ENDBRANCH   3  19
TORSDOF 3
