REMARK  Name = ZINC13401159
REMARK  6 active torsions:
REMARK  status: ('A' for Active; 'I' for Inactive)
REMARK    1  A    between atoms: C_1  and  C_2
REMARK    2  A    between atoms: C_2  and  O_4
REMARK    3  A    between atoms: O_4  and  C_5
REMARK    4  A    between atoms: C_9  and  C_30
REMARK    5  A    between atoms: C_14  and  C_29
REMARK    6  A    between atoms: C_25  and  C_27
REMARK                            x       y       z     vdW  Elec       q    Type
REMARK                         _______ _______ _______ _____ _____    ______ ____
ROOT
ATOM      1  C   UNL     1      -4.516  -0.707  -1.261  0.00  0.00    +0.180 C 
ATOM      2  C   UNL     1      -3.075  -1.213  -1.264  0.00  0.00    +0.046 C 
ATOM      3  C   UNL     1      -2.486  -1.223  -2.669  0.00  0.00    +0.015 C 
ATOM      4  C   UNL     1      -2.518   0.184  -3.290  0.00  0.00    -0.008 C 
ATOM      5  C   UNL     1      -1.961   0.124  -4.693  0.00  0.00    +0.003 C 
ATOM      6  C   UNL     1      -0.445   0.241  -4.737  0.00  0.00    +0.005 C 
ATOM      7  C   UNL     1       0.128   1.652  -4.804  0.00  0.00    +0.008 C 
ATOM      8  C   UNL     1      -0.628   2.525  -5.775  0.00  0.00    -0.016 C 
ATOM      9  C   UNL     1      -2.139   2.464  -5.448  0.00  0.00    -0.001 C 
ATOM     10  C   UNL     1      -2.632   1.064  -5.692  0.00  0.00    +0.000 C 
ATOM     11  C   UNL     1      -4.150   0.962  -5.633  0.00  0.00    +0.031 C 
ATOM     12  C   UNL     1      -4.643   1.050  -4.223  0.00  0.00    -0.027 C 
ATOM     13  C   UNL     1      -3.930   0.687  -3.202  0.00  0.00    -0.064 C 
ATOM     14  C   UNL     1      -4.575   0.717  -1.826  0.00  0.00    +0.075 C 
ATOM     15  C   UNL     1      -2.702   3.575  -6.342  0.00  0.00    +0.005 C 
ATOM     16  C   UNL     1      -1.647   4.705  -6.188  0.00  0.00    +0.016 C 
ATOM     17  C   UNL     1      -0.349   4.032  -5.676  0.00  0.00    +0.108 C 
ATOM     18  C   UNL     1      -0.333   2.086  -7.210  0.00  0.00    +0.012 C 
ATOM     19  C   UNL     1      -1.658   1.086  -2.406  0.00  0.00    +0.016 C 
ENDROOT
BRANCH  17  20
ATOM     20  C   UNL     1       0.816   4.398  -6.555  0.00  0.00    +0.360 C 
ATOM     21  O   UNL     1       1.733   3.624  -6.697  0.00  0.00    -0.246 OA
ATOM     22  O   UNL     1       0.837   5.586  -7.181  0.00  0.00    -0.246 OA
ENDBRANCH  17  20
BRANCH   1  23
ATOM     23  O   UNL     1      -5.343  -1.582  -2.073  0.00  0.00    -0.461 OA
BRANCH  23  25
ATOM     24  C   UNL     1      -7.548  -2.602  -2.509  0.00  0.00    +0.136 C 
ATOM     25  C   UNL     1      -6.630  -1.711  -1.714  0.00  0.00    +0.304 C 
ATOM     26  O   UNL     1      -7.051  -1.112  -0.753  0.00  0.00    -0.251 OA
ENDBRANCH  23  25
ENDBRANCH   1  23
TORSDOF 3
