REMARK  Name = ZINC35170788
REMARK  5 active torsions:
REMARK  status: ('A' for Active; 'I' for Inactive)
REMARK    1  A    between atoms: C_1  and  C_2
REMARK    2  A    between atoms: C_6  and  C_29
REMARK    3  A    between atoms: C_7  and  N_8
REMARK    4  A    between atoms: C_9  and  C_13
REMARK    5  A    between atoms: C_13  and  N_23
REMARK                            x       y       z     vdW  Elec       q    Type
REMARK                         _______ _______ _______ _____ _____    ______ ____
ROOT
ATOM      1  C   UNL     1      -0.306  -2.027   4.163  0.00  0.00    +0.089 C 
ATOM      2  C   UNL     1      -1.577  -2.864   4.326  0.00  0.00    +0.018 C 
ATOM      3  C   UNL     1      -1.286  -4.059   5.236  0.00  0.00    +0.009 C 
ATOM      4  C   UNL     1      -0.828  -3.557   6.607  0.00  0.00    -0.010 C 
ATOM      5  C   UNL     1      -1.930  -2.697   7.229  0.00  0.00    +0.007 C 
ATOM      6  C   UNL     1      -2.220  -1.502   6.319  0.00  0.00    -0.010 C 
ATOM      7  C   UNL     1      -2.678  -2.005   4.949  0.00  0.00    +0.009 C 
ATOM      8  C   UNL     1      -0.950  -0.665   6.157  0.00  0.00    +0.009 C 
ATOM      9  C   UNL     1       0.152  -1.524   5.534  0.00  0.00    +0.018 C 
ATOM     10  C   UNL     1       0.442  -2.719   6.444  0.00  0.00    +0.009 C 
ENDROOT
BRANCH   1  11
ATOM     11  N   UNL     1       0.751  -2.852   3.565  0.00  0.00    -0.293 NA
ATOM     12  C   UNL     1       0.613  -4.259   3.969  0.00  0.00    +0.066 C 
ATOM     13  C   UNL     1       1.765  -5.072   3.375  0.00  0.00    -0.067 C 
ATOM     14  N   UNL     1       1.740  -4.960   1.911  0.00  0.00    +0.381 N 
ATOM     15  C   UNL     1       1.904  -3.553   1.523  0.00  0.00    -0.067 C 
ATOM     16  C   UNL     1       0.753  -2.727   2.101  0.00  0.00    +0.066 C 
ATOM     17  H   UNL     1       2.493  -5.507   1.519  0.00  0.00    -0.086 HD
ATOM     18  H   UNL     1       0.858  -5.305   1.562  0.00  0.00    -0.086 HD
ENDBRANCH   1  11
BRANCH   1  20
ATOM     19  N   UNL     1      -0.026   0.374   3.346  0.00  0.00    -0.195 N 
ATOM     20  C   UNL     1      -0.592  -0.850   3.267  0.00  0.00    +0.177 A 
ATOM     21  N   UNL     1      -1.434  -0.824   2.267  0.00  0.00    -0.111 NA
ATOM     22  N   UNL     1      -1.439   0.333   1.709  0.00  0.00    -0.023 NA
ATOM     23  N   UNL     1      -0.614   1.121   2.310  0.00  0.00    -0.039 NA
BRANCH  19  30
ATOM     24  C   UNL     1      -0.781   2.346   5.255  0.00  0.00    +0.046 C 
ATOM     25  C   UNL     1       0.610   1.768   5.216  0.00  0.00    -0.025 A 
ATOM     26  C   UNL     1       1.559   2.189   6.127  0.00  0.00    +0.005 A 
ATOM     27  C   UNL     1       2.836   1.659   6.092  0.00  0.00    +0.001 A 
ATOM     28  C   UNL     1       3.167   0.708   5.145  0.00  0.00    +0.005 A 
ATOM     29  C   UNL     1       2.222   0.282   4.232  0.00  0.00    -0.025 A 
ATOM     30  C   UNL     1       0.938   0.808   4.269  0.00  0.00    +0.075 A 
ATOM     31  C   UNL     1       2.583  -0.755   3.200  0.00  0.00    +0.046 C 
ENDBRANCH  19  30
ENDBRANCH   1  20
TORSDOF 3
