REMARK  Name = ZINC66250736
REMARK  7 active torsions:
REMARK  status: ('A' for Active; 'I' for Inactive)
REMARK    1  A    between atoms: C_1  and  C_2
REMARK    2  A    between atoms: C_5  and  S_7
REMARK    3  A    between atoms: S_7  and  N_10
REMARK    4  A    between atoms: C_13  and  C_16
REMARK    5  A    between atoms: C_16  and  N_17
REMARK    6  A    between atoms: C_19  and  C_26
REMARK    7  A    between atoms: C_22  and  C_25
REMARK                            x       y       z     vdW  Elec       q    Type
REMARK                         _______ _______ _______ _____ _____    ______ ____
ROOT
ATOM      1  N   UNL     1       1.300  -4.748  -1.614  0.00  0.00    -0.103 NA
ATOM      2  C   UNL     1       1.753  -5.941  -1.914  0.00  0.00    +0.192 A 
ATOM      3  N   UNL     1       1.972  -6.507  -3.151  0.00  0.00    -0.335 N 
ATOM      4  C   UNL     1       2.455  -7.782  -3.207  0.00  0.00    +0.039 A 
ATOM      5  C   UNL     1       2.705  -8.454  -2.084  0.00  0.00    +0.071 A 
ATOM      6  S   UNL     1       2.260  -7.265  -0.828  0.00  0.00    -0.056 S 
ATOM      7  H   UNL     1       1.786  -6.011  -3.963  0.00  0.00    +0.168 HD
ENDROOT
BRANCH   1   8
ATOM      8  S   UNL     1       1.134  -4.300  -0.029  0.00  0.00    +0.107 S 
ATOM      9  O   UNL     1       2.445  -4.240   0.516  0.00  0.00    -0.146 OA
ATOM     10  O   UNL     1       0.117  -5.126   0.522  0.00  0.00    -0.146 OA
BRANCH   8  15
ATOM     11  C   UNL     1      -0.018   1.503   0.010  0.00  0.00    +0.051 C 
ATOM     12  C   UNL     1       0.002  -0.004   0.002  0.00  0.00    -0.011 A 
ATOM     13  C   UNL     1      -1.039  -0.872   0.002  0.00  0.00    +0.013 A 
ATOM     14  C   UNL     1      -0.780  -2.230  -0.007  0.00  0.00    +0.037 A 
ATOM     15  C   UNL     1       0.507  -2.653  -0.016  0.00  0.00    +0.150 A 
ATOM     16  S   UNL     1       1.404  -1.109  -0.018  0.00  0.00    -0.073 S 
ENDBRANCH   8  15
ENDBRANCH   1   8
BRANCH   4  17
ATOM     17  C   UNL     1       2.705  -8.432  -4.543  0.00  0.00    +0.138 C 
BRANCH  17  18
ATOM     18  N   UNL     1       1.430  -8.602  -5.252  0.00  0.00    -0.292 NA
ATOM     19  C   UNL     1       0.566  -9.568  -4.557  0.00  0.00    +0.116 C 
ATOM     20  C   UNL     1      -0.772  -9.670  -5.294  0.00  0.00    +0.130 C 
ATOM     21  O   UNL     1      -0.534 -10.038  -6.655  0.00  0.00    -0.371 OA
ATOM     22  C   UNL     1       0.303  -9.119  -7.362  0.00  0.00    +0.130 C 
ATOM     23  C   UNL     1       1.652  -9.011  -6.646  0.00  0.00    +0.116 C 
ATOM     24  C   UNL     1       0.520  -9.621  -8.791  0.00  0.00    +0.039 C 
ATOM     25  C   UNL     1      -1.486  -8.317  -5.247  0.00  0.00    +0.039 C 
ENDBRANCH  17  18
ENDBRANCH   4  17
TORSDOF 4
