REMARK  Name = ZINC25059958
REMARK  6 active torsions:
REMARK  status: ('A' for Active; 'I' for Inactive)
REMARK    1  A    between atoms: C_1  and  C_2
REMARK    2  A    between atoms: C_7  and  C_25
REMARK    3  A    between atoms: C_8  and  N_11
REMARK    4  A    between atoms: C_12  and  C_14
REMARK    5  A    between atoms: C_14  and  C_15
REMARK    6  A    between atoms: C_18  and  C_20
REMARK                            x       y       z     vdW  Elec       q    Type
REMARK                         _______ _______ _______ _____ _____    ______ ____
ROOT
ATOM      1  C   UNL     1      -4.735   4.376  -1.577  0.00  0.00    +0.045 C 
ATOM      2  C   UNL     1      -3.982   3.753  -2.723  0.00  0.00    -0.034 A 
ATOM      3  C   UNL     1      -4.438   3.934  -4.041  0.00  0.00    +0.008 A 
ATOM      4  C   UNL     1      -3.758   3.371  -5.074  0.00  0.00    +0.047 A 
ATOM      5  C   UNL     1      -2.600   2.610  -4.809  0.00  0.00    +0.140 A 
ATOM      6  N   UNL     1      -1.764   1.965  -5.606  0.00  0.00    -0.226 NA
ATOM      7  C   UNL     1      -0.800   1.390  -4.866  0.00  0.00    +0.112 A 
ATOM      8  C   UNL     1      -1.048   1.681  -3.541  0.00  0.00    +0.137 A 
ATOM      9  N   UNL     1      -2.178   2.451  -3.510  0.00  0.00    -0.287 N 
ATOM     10  C   UNL     1      -2.874   3.024  -2.481  0.00  0.00    +0.097 A 
ENDROOT
BRANCH   7  11
ATOM     11  C   UNL     1       0.330   0.582  -5.384  0.00  0.00    +0.004 A 
ATOM     12  C   UNL     1       1.577   0.643  -4.762  0.00  0.00    +0.010 A 
ATOM     13  C   UNL     1       2.623  -0.116  -5.245  0.00  0.00    +0.001 A 
ATOM     14  C   UNL     1       2.440  -0.928  -6.351  0.00  0.00    +0.000 A 
ATOM     15  C   UNL     1       1.206  -0.989  -6.974  0.00  0.00    +0.001 A 
ATOM     16  C   UNL     1       0.151  -0.239  -6.497  0.00  0.00    +0.010 A 
ENDBRANCH   7  11
BRANCH   8  17
ATOM     17  N   UNL     1      -0.288   1.272  -2.443  0.00  0.00    -0.269 N 
ATOM     18  C   UNL     1      -0.214   2.054  -1.347  0.00  0.00    +0.224 C 
ATOM     19  O   UNL     1      -0.712   3.160  -1.356  0.00  0.00    -0.275 OA
ATOM     20  H   UNL     1       0.249   0.313  -2.472  0.00  0.00    +0.156 HD
BRANCH  18  21
ATOM     21  C   UNL     1       0.488   1.553  -0.111  0.00  0.00    +0.152 C 
BRANCH  21  22
ATOM     22  C   UNL     1       0.431   2.609   0.962  0.00  0.00    +0.058 A 
ATOM     23  C   UNL     1      -0.083   2.310   2.184  0.00  0.00    +0.071 A 
ATOM     24  S   UNL     1       0.100   3.884   3.014  0.00  0.00    -0.072 S 
ATOM     25  C   UNL     1       0.837   4.768   1.646  0.00  0.00    +0.144 A 
ATOM     26  N   UNL     1       0.881   3.818   0.719  0.00  0.00    -0.240 NA
BRANCH  25  27
ATOM     27  C   UNL     1       1.282   6.168   1.569  0.00  0.00    +0.160 A 
ATOM     28  C   UNL     1       1.203   7.088   2.572  0.00  0.00    +0.052 A 
ATOM     29  C   UNL     1       1.742   8.286   2.065  0.00  0.00    +0.042 A 
ATOM     30  C   UNL     1       2.111   8.046   0.790  0.00  0.00    +0.196 A 
ATOM     31  O   UNL     1       1.832   6.766   0.494  0.00  0.00    -0.461 OA
ENDBRANCH  25  27
ENDBRANCH  21  22
ENDBRANCH  18  21
ENDBRANCH   8  17
TORSDOF 5
