REMARK  Name = ZINC28114320
REMARK  14 active torsions:
REMARK  status: ('A' for Active; 'I' for Inactive)
REMARK    1  A    between atoms: C_1  and  C_2
REMARK    2  A    between atoms: C_2  and  C_3
REMARK    3  A    between atoms: C_2  and  N_4
REMARK    4  A    between atoms: N_4  and  C_5
REMARK    5  A    between atoms: N_4  and  C_28
REMARK    6  A    between atoms: C_5  and  O_6
REMARK    7  A    between atoms: O_6  and  C_7
REMARK    8  A    between atoms: C_10  and  C_13
REMARK    9  A    between atoms: N_14  and  N_15
REMARK   10  A    between atoms: C_19  and  C_24
REMARK   11  A    between atoms: N_22  and  N_23
REMARK   12  A    between atoms: C_24  and  C_25
REMARK   13  A    between atoms: C_24  and  C_26
REMARK   14  A    between atoms: C_24  and  C_27
REMARK                            x       y       z     vdW  Elec       q    Type
REMARK                         _______ _______ _______ _____ _____    ______ ____
ROOT
ATOM      1  C   UNL     1       1.790  -2.210   0.197  0.00  0.00    +0.138 C 
ATOM      2  N   UNL     1       3.073  -1.991   0.303  0.00  0.00    -0.188 NA
ENDROOT
BRANCH   2   3
ATOM      3  N   UNL     1       3.900  -2.980   0.278  0.00  0.00    -0.204 N 
ATOM      4  C   UNL     1       5.194  -2.759   0.385  0.00  0.00    +0.253 A 
ATOM      5  N   UNL     1       6.112  -3.788   0.289  0.00  0.00    -0.136 NA
ATOM      6  N   UNL     1       7.232  -3.745   1.136  0.00  0.00    -0.273 N 
ATOM      7  C   UNL     1       7.628  -2.584   1.588  0.00  0.00    +0.106 A 
ATOM      8  C   UNL     1       6.902  -1.372   1.198  0.00  0.00    +0.292 A 
ATOM      9  O   UNL     1       7.382  -0.274   1.408  0.00  0.00    -0.264 OA
ATOM     10  N   UNL     1       5.693  -1.487   0.603  0.00  0.00    -0.198 N 
ATOM     11  H   UNL     1       3.525  -4.008   0.168  0.00  0.00    +0.177 HD
ATOM     12  H   UNL     1       7.755  -4.675   1.404  0.00  0.00    +0.189 HD
BRANCH   7  13
ATOM     13  C   UNL     1       8.822  -2.493   2.503  0.00  0.00    +0.009 C 
ATOM     14  C   UNL     1       9.386  -3.894   2.746  0.00  0.00    +0.017 C 
ATOM     15  C   UNL     1       9.895  -1.616   1.855  0.00  0.00    +0.017 C 
ATOM     16  C   UNL     1       8.396  -1.876   3.837  0.00  0.00    +0.017 C 
ENDBRANCH   7  13
BRANCH  10  17
ATOM     17  N   UNL     1       4.985  -0.381   0.228  0.00  0.00    -0.293 N 
ATOM     18  H   UNL     1       5.397   0.623   0.410  0.00  0.00    +0.163 HD
ATOM     19  H   UNL     1       4.003  -0.493  -0.255  0.00  0.00    +0.163 HD
ENDBRANCH  10  17
ENDBRANCH   2   3
BRANCH   1  23
ATOM     20  C   UNL     1      -0.932   1.044   0.278  0.00  0.00    +0.123 A 
ATOM     21  C   UNL     1       0.432   1.280   0.391  0.00  0.00    +0.046 A 
ATOM     22  C   UNL     1       1.320   0.227   0.366  0.00  0.00    +0.013 A 
ATOM     23  C   UNL     1       0.846  -1.082   0.226  0.00  0.00    -0.005 A 
ATOM     24  C   UNL     1      -0.529  -1.314   0.113  0.00  0.00    +0.013 A 
ATOM     25  C   UNL     1      -1.408  -0.254   0.140  0.00  0.00    +0.046 A 
BRANCH  20  26
ATOM     26  O   UNL     1      -1.804   2.086   0.298  0.00  0.00    -0.473 OA
BRANCH  26  27
ATOM     27  C   UNL     1      -1.243   3.400   0.329  0.00  0.00    +0.339 C 
BRANCH  27  28
ATOM     28  N   UNL     1      -0.924   3.827  -1.035  0.00  0.00    -0.295 N 
BRANCH  28  29
ATOM     29  C   UNL     1      -1.818   4.636  -1.741  0.00  0.00    +0.032 A 
ATOM     30  C   UNL     1      -1.492   5.958  -2.017  0.00  0.00    +0.023 A 
ATOM     31  C   UNL     1      -2.376   6.753  -2.719  0.00  0.00    +0.002 A 
ATOM     32  C   UNL     1      -3.589   6.239  -3.137  0.00  0.00    +0.000 A 
ATOM     33  C   UNL     1      -3.919   4.925  -2.860  0.00  0.00    +0.002 A 
ATOM     34  C   UNL     1      -3.037   4.122  -2.163  0.00  0.00    +0.023 A 
ENDBRANCH  28  29
BRANCH  28  36
ATOM     35  C   UNL     1       0.350   3.854  -3.123  0.00  0.00    +0.028 C 
ATOM     36  C   UNL     1       0.333   3.406  -1.660  0.00  0.00    +0.070 C 
ATOM     37  C   UNL     1       1.510   4.042  -0.918  0.00  0.00    +0.028 C 
ENDBRANCH  28  36
ENDBRANCH  27  28
ENDBRANCH  26  27
ENDBRANCH  20  26
ENDBRANCH   1  23
TORSDOF 9
