REMARK  Name = ZINC67203624
REMARK  5 active torsions:
REMARK  status: ('A' for Active; 'I' for Inactive)
REMARK    1  A    between atoms: C_1  and  C_2
REMARK    2  A    between atoms: C_2  and  C_4
REMARK    3  A    between atoms: C_2  and  S_21
REMARK    4  A    between atoms: S_21  and  C_22
REMARK    5  A    between atoms: N_26  and  C_27
REMARK                            x       y       z     vdW  Elec       q    Type
REMARK                         _______ _______ _______ _____ _____    ______ ____
ROOT
ATOM      1  C   UNL     1       0.731  -0.503   1.223  0.00  0.00    +0.232 C 
ATOM      2  O   UNL     1       1.911  -0.775   1.156  0.00  0.00    -0.274 OA
ATOM      3  N   UNL     1       0.071  -0.647   2.389  0.00  0.00    -0.264 N 
ATOM      4  C   UNL     1       0.742  -1.107   3.512  0.00  0.00    +0.165 A 
ATOM      5  N   UNL     1       2.004  -1.443   3.637  0.00  0.00    -0.224 NA
ATOM      6  C   UNL     1       2.528  -1.879   4.805  0.00  0.00    +0.084 A 
ATOM      7  C   UNL     1       3.861  -2.269   5.069  0.00  0.00    +0.078 A 
ATOM      8  C   UNL     1       4.240  -2.693   6.322  0.00  0.00    +0.175 A 
ATOM      9  C   UNL     1       3.316  -2.749   7.369  0.00  0.00    +0.174 A 
ATOM     10  C   UNL     1       2.004  -2.373   7.141  0.00  0.00    +0.067 A 
ATOM     11  C   UNL     1       1.627  -1.950   5.890  0.00  0.00    +0.044 A 
ATOM     12  S   UNL     1       0.109  -1.383   5.161  0.00  0.00    -0.052 S 
ATOM     13  O   UNL     1       3.949  -3.201   8.490  0.00  0.00    -0.395 OA
ATOM     14  C   UNL     1       5.168  -3.809   8.023  0.00  0.00    +0.589 C 
ATOM     15  O   UNL     1       5.453  -3.111   6.798  0.00  0.00    -0.395 OA
ATOM     16  F   UNL     1       6.199  -3.618   8.949  0.00  0.00    -0.125 F 
ATOM     17  F   UNL     1       4.973  -5.173   7.778  0.00  0.00    -0.125 F 
ATOM     18  H   UNL     1      -0.872  -0.430   2.443  0.00  0.00    +0.157 HD
ENDROOT
BRANCH   1  20
ATOM     19  C   UNL     1      -0.019   1.526   0.010  0.00  0.00    +0.029 C 
ATOM     20  C   UNL     1       0.002  -0.004   0.002  0.00  0.00    +0.137 C 
BRANCH  20  21
ATOM     21  S   UNL     1       0.851  -0.589  -1.490  0.00  0.00    -0.074 S 
BRANCH  21  22
ATOM     22  C   UNL     1      -0.189  -0.057  -2.809  0.00  0.00    +0.192 A 
ATOM     23  N   UNL     1      -1.312   0.614  -2.696  0.00  0.00    -0.123 NA
ATOM     24  N   UNL     1      -1.808   0.835  -3.860  0.00  0.00    -0.137 NA
ATOM     25  C   UNL     1      -1.040   0.322  -4.779  0.00  0.00    +0.225 A 
ATOM     26  N   UNL     1       0.022  -0.259  -4.143  0.00  0.00    -0.312 N 
ATOM     27  C   UNL     1       1.151  -0.957  -4.763  0.00  0.00    +0.152 C 
ENDBRANCH  21  22
ENDBRANCH  20  21
ENDBRANCH   1  20
TORSDOF 3
