REMARK  Name = ZINC00660710
REMARK  6 active torsions:
REMARK  status: ('A' for Active; 'I' for Inactive)
REMARK    1  A    between atoms: C_1  and  O_2
REMARK    2  A    between atoms: O_2  and  C_3
REMARK    3  A    between atoms: C_7  and  C_10
REMARK    4  A    between atoms: C_8  and  O_9
REMARK    5  A    between atoms: N_14  and  C_18
REMARK    6  A    between atoms: C_18  and  C_19
REMARK                            x       y       z     vdW  Elec       q    Type
REMARK                         _______ _______ _______ _____ _____    ______ ____
ROOT
ATOM      1  C   UNL     1      -2.571  -4.140   0.016  0.00  0.00    +0.040 C 
ATOM      2  C   UNL     1      -3.772  -4.761   0.127  0.00  0.00    +0.098 C 
ATOM      3  C   UNL     1      -5.103  -4.135   0.148  0.00  0.00    +0.269 C 
ATOM      4  O   UNL     1      -5.353  -2.947   0.070  0.00  0.00    -0.268 OA
ATOM      5  N   UNL     1      -5.990  -5.144   0.272  0.00  0.00    -0.216 N 
ATOM      6  C   UNL     1      -5.341  -6.317   0.328  0.00  0.00    +0.313 C 
ATOM      7  O   UNL     1      -5.884  -7.399   0.440  0.00  0.00    -0.252 OA
ATOM      8  N   UNL     1      -4.011  -6.138   0.239  0.00  0.00    -0.265 N 
ATOM      9  H   UNL     1      -3.338  -6.836   0.252  0.00  0.00    +0.157 HD
ENDROOT
BRANCH   1  14
ATOM     10  C   UNL     1      -1.581  -0.590  -0.733  0.00  0.00    +0.162 A 
ATOM     11  C   UNL     1      -2.353   0.097   0.190  0.00  0.00    +0.049 A 
ATOM     12  C   UNL     1      -3.192  -0.591   1.052  0.00  0.00    +0.004 A 
ATOM     13  C   UNL     1      -3.268  -1.965   1.001  0.00  0.00    +0.012 A 
ATOM     14  C   UNL     1      -2.494  -2.675   0.074  0.00  0.00    +0.022 A 
ATOM     15  C   UNL     1      -1.649  -1.977  -0.802  0.00  0.00    +0.166 A 
BRANCH  10  17
ATOM     16  C   UNL     1      -0.740   1.516  -1.449  0.00  0.00    +0.277 C 
ATOM     17  O   UNL     1      -0.760   0.093  -1.575  0.00  0.00    -0.491 OA
ENDBRANCH  10  17
BRANCH  15  18
ATOM     18  O   UNL     1      -0.897  -2.653  -1.709  0.00  0.00    -0.503 OA
ATOM     19  H   UNL     1      -0.024  -2.910  -1.382  0.00  0.00    +0.292 HD
ENDBRANCH  15  18
ENDBRANCH   1  14
BRANCH   5  20
ATOM     20  C   UNL     1      -7.444  -4.982   0.336  0.00  0.00    +0.153 C 
BRANCH  20  21
ATOM     21  C   UNL     1      -8.017  -5.035  -1.057  0.00  0.00    -0.029 A 
ATOM     22  C   UNL     1      -8.147  -3.874  -1.795  0.00  0.00    +0.006 A 
ATOM     23  C   UNL     1      -8.673  -3.922  -3.073  0.00  0.00    +0.020 A 
ATOM     24  C   UNL     1      -9.069  -5.133  -3.612  0.00  0.00    +0.041 A 
ATOM     25  C   UNL     1      -8.938  -6.295  -2.873  0.00  0.00    +0.020 A 
ATOM     26  C   UNL     1      -8.408  -6.246  -1.598  0.00  0.00    +0.006 A 
ATOM     27 CL   UNL     1      -9.729  -5.194  -5.217  0.00  0.00    -0.084 Cl
ENDBRANCH  20  21
ENDBRANCH   5  20
TORSDOF 5
