REMARK  Name = ZINC09611415
REMARK  8 active torsions:
REMARK  status: ('A' for Active; 'I' for Inactive)
REMARK    1  A    between atoms: C_1  and  C_2
REMARK    2  A    between atoms: C_5  and  N_8
REMARK    3  A    between atoms: C_9  and  C_11
REMARK    4  A    between atoms: C_11  and  C_13
REMARK    5  A    between atoms: C_11  and  N_20
REMARK    6  A    between atoms: C_13  and  C_14
REMARK    7  A    between atoms: N_20  and  S_21
REMARK    8  A    between atoms: S_21  and  C_24
REMARK                            x       y       z     vdW  Elec       q    Type
REMARK                         _______ _______ _______ _____ _____    ______ ____
ROOT
ATOM      1  C   UNL     1      -4.219   0.432  -2.368  0.00  0.00    +0.166 C 
ENDROOT
BRANCH   1   3
ATOM      2  N   UNL     1      -2.127   1.086  -1.221  0.00  0.00    -0.311 N 
ATOM      3  C   UNL     1      -2.806   0.954  -2.378  0.00  0.00    +0.232 C 
ATOM      4  O   UNL     1      -2.278   1.255  -3.428  0.00  0.00    -0.274 OA
ATOM      5  H   UNL     1      -2.605   0.812  -0.269  0.00  0.00    +0.149 HD
BRANCH   2  10
ATOM      6  C   UNL     1      -1.466   3.603   2.534  0.00  0.00    +0.007 C 
ATOM      7  C   UNL     1      -0.750   3.109   1.275  0.00  0.00    -0.014 C 
ATOM      8  C   UNL     1      -0.729   1.579   1.267  0.00  0.00    +0.005 C 
ATOM      9  C   UNL     1      -0.013   1.086   0.008  0.00  0.00    +0.022 C 
ATOM     10  C   UNL     1      -0.753   1.593  -1.232  0.00  0.00    +0.073 C 
ATOM     11  C   UNL     1      -0.773   3.123  -1.223  0.00  0.00    +0.022 C 
ATOM     12  C   UNL     1      -1.490   3.616   0.036  0.00  0.00    +0.005 C 
ENDBRANCH   2  10
ENDBRANCH   1   3
BRANCH   1  13
ATOM     13  N   UNL     1      -4.732   0.384  -3.739  0.00  0.00    -0.178 NA
ATOM     14  H   UNL     1      -4.034   0.296  -4.585  0.00  0.00    +0.149 HD
BRANCH  13  15
ATOM     15  S   UNL     1      -6.329   0.707  -4.038  0.00  0.00    +0.059 S 
ATOM     16  O   UNL     1      -6.507   0.607  -5.444  0.00  0.00    -0.153 OA
ATOM     17  O   UNL     1      -7.080  -0.072  -3.117  0.00  0.00    -0.153 OA
BRANCH  15  18
ATOM     18  C   UNL     1      -6.607   2.395  -3.614  0.00  0.00    +0.106 A 
ATOM     19  C   UNL     1      -6.997   2.728  -2.330  0.00  0.00    +0.030 A 
ATOM     20  C   UNL     1      -7.212   4.050  -1.993  0.00  0.00    +0.025 A 
ATOM     21  C   UNL     1      -7.045   5.044  -2.948  0.00  0.00    +0.037 A 
ATOM     22  C   UNL     1      -6.657   4.705  -4.238  0.00  0.00    -0.024 A 
ATOM     23  C   UNL     1      -6.440   3.382  -4.568  0.00  0.00    +0.034 A 
ATOM     24  C   UNL     1      -6.475   5.784  -5.274  0.00  0.00    +0.046 C 
ATOM     25  C   UNL     1      -7.487   6.903  -5.029  0.00  0.00    +0.101 C 
ATOM     26  C   UNL     1      -7.471   7.301  -3.578  0.00  0.00    +0.218 C 
ATOM     27  O   UNL     1      -7.646   8.462  -3.272  0.00  0.00    -0.275 OA
ATOM     28  N   UNL     1      -7.265   6.384  -2.615  0.00  0.00    -0.285 N 
ATOM     29  H   UNL     1      -7.272   6.694  -1.560  0.00  0.00    +0.155 HD
ENDBRANCH  15  18
ENDBRANCH  13  15
ENDBRANCH   1  13
BRANCH   1  30
ATOM     30  C   UNL     1      -4.240  -0.974  -1.765  0.00  0.00    +0.065 C 
BRANCH  30  31
ATOM     31  C   UNL     1      -5.665  -1.447  -1.641  0.00  0.00    -0.045 A 
ATOM     32  C   UNL     1      -6.378  -1.197  -0.483  0.00  0.00    +0.004 A 
ATOM     33  C   UNL     1      -7.687  -1.627  -0.371  0.00  0.00    +0.000 A 
ATOM     34  C   UNL     1      -8.280  -2.315  -1.413  0.00  0.00    +0.000 A 
ATOM     35  C   UNL     1      -7.566  -2.569  -2.569  0.00  0.00    +0.000 A 
ATOM     36  C   UNL     1      -6.258  -2.135  -2.683  0.00  0.00    +0.004 A 
ENDBRANCH  30  31
ENDBRANCH   1  30
TORSDOF 7
