REMARK  Name = ZINC59449657
REMARK  7 active torsions:
REMARK  status: ('A' for Active; 'I' for Inactive)
REMARK    1  A    between atoms: C_1  and  C_2
REMARK    2  A    between atoms: C_2  and  C_3
REMARK    3  A    between atoms: C_3  and  C_4
REMARK    4  A    between atoms: C_10  and  N_11
REMARK    5  A    between atoms: N_11  and  C_12
REMARK    6  A    between atoms: C_12  and  C_13
REMARK    7  A    between atoms: C_13  and  N_14
REMARK                            x       y       z     vdW  Elec       q    Type
REMARK                         _______ _______ _______ _____ _____    ______ ____
ROOT
ATOM      1  C   UNL     1       0.739  -2.004  -1.265  0.00  0.00    +0.073 C 
ATOM      2  N   UNL     1       0.230  -2.783  -0.361  0.00  0.00    -0.174 NA
ATOM      3  N   UNL     1       0.425  -4.126  -0.679  0.00  0.00    -0.132 N 
ATOM      4  C   UNL     1       1.093  -4.234  -1.846  0.00  0.00    +0.275 C 
ATOM      5  O   UNL     1       1.425  -5.263  -2.409  0.00  0.00    -0.268 OA
ATOM      6  C   UNL     1       1.334  -2.860  -2.303  0.00  0.00    +0.075 C 
ATOM      7  C   UNL     1       1.982  -2.457  -3.458  0.00  0.00    +0.082 C 
ATOM      8  C   UNL     1      -0.004  -5.195   0.091  0.00  0.00    +0.180 C 
ATOM      9  N   UNL     1       0.160  -6.465  -0.160  0.00  0.00    -0.257 NA
ATOM     10  C   UNL     1      -0.372  -7.467   0.741  0.00  0.00    +0.121 C 
ATOM     11  C   UNL     1       0.436  -8.738   0.761  0.00  0.00    +0.028 C 
ATOM     12  C   UNL     1       1.624  -8.654   1.713  0.00  0.00    +0.002 C 
ATOM     13  C   UNL     1       1.109  -8.327   3.117  0.00  0.00    +0.001 C 
ATOM     14  C   UNL     1       0.453  -6.953   3.097  0.00  0.00    +0.017 C 
ATOM     15  C   UNL     1      -0.682  -6.894   2.127  0.00  0.00    +0.079 C 
ATOM     16  S   UNL     1      -0.890  -5.125   1.640  0.00  0.00    -0.083 S 
ENDROOT
BRANCH   7  17
ATOM     17  N   UNL     1       2.474  -3.378  -4.312  0.00  0.00    -0.348 N 
ATOM     18  H   UNL     1       2.373  -4.323  -4.116  0.00  0.00    +0.146 HD
BRANCH  17  19
ATOM     19  C   UNL     1       3.160  -2.952  -5.534  0.00  0.00    +0.116 C 
BRANCH  19  20
ATOM     20  C   UNL     1       3.616  -4.184  -6.319  0.00  0.00    +0.103 C 
BRANCH  20  21
ATOM     21  N   UNL     1       4.303  -3.756  -7.544  0.00  0.00    -0.304 NA
ATOM     22  C   UNL     1       5.561  -3.064  -7.229  0.00  0.00    +0.065 C 
ATOM     23  C   UNL     1       6.215  -2.584  -8.526  0.00  0.00    -0.067 C 
ATOM     24  N   UNL     1       6.476  -3.736  -9.399  0.00  0.00    +0.381 N 
ATOM     25  C   UNL     1       5.209  -4.403  -9.725  0.00  0.00    -0.067 C 
ATOM     26  C   UNL     1       4.546  -4.898  -8.438  0.00  0.00    +0.065 C 
ATOM     27  H   UNL     1       6.919  -3.421 -10.249  0.00  0.00    -0.086 HD
ATOM     28  H   UNL     1       7.085  -4.386  -8.924  0.00  0.00    -0.086 HD
ENDBRANCH  20  21
ENDBRANCH  19  20
ENDBRANCH  17  19
ENDBRANCH   7  17
BRANCH   1  29
ATOM     29  C   UNL     1       0.718  -0.497  -1.257  0.00  0.00    +0.057 C 
BRANCH  29  31
ATOM     30  C   UNL     1      -0.019   1.526   0.010  0.00  0.00    +0.004 C 
ATOM     31  C   UNL     1       0.002  -0.004   0.002  0.00  0.00    +0.003 C 
ENDBRANCH  29  31
ENDBRANCH   1  29
TORSDOF 6
