REMARK  Name = ZINC13730947
REMARK  9 active torsions:
REMARK  status: ('A' for Active; 'I' for Inactive)
REMARK    1  A    between atoms: C_1  and  C_2
REMARK    2  A    between atoms: C_2  and  C_3
REMARK    3  A    between atoms: C_2  and  C_4
REMARK    4  A    between atoms: C_4  and  C_6
REMARK    5  A    between atoms: C_4  and  N_8
REMARK    6  A    between atoms: C_12  and  C_13
REMARK    7  A    between atoms: C_22  and  C_23
REMARK    8  A    between atoms: C_23  and  O_25
REMARK    9  A    between atoms: O_25  and  C_26
REMARK                            x       y       z     vdW  Elec       q    Type
REMARK                         _______ _______ _______ _____ _____    ______ ____
ROOT
ATOM      1  N   UNL     1       1.025   2.559   0.006  0.00  0.00    -0.241 N 
ATOM      2  C   UNL     1       0.849   3.870   0.014  0.00  0.00    +0.259 C 
ATOM      3  O   UNL     1       1.790   4.641   0.010  0.00  0.00    -0.269 OA
ATOM      4  C   UNL     1      -0.550   4.349   0.030  0.00  0.00    +0.077 C 
ATOM      5  C   UNL     1      -1.030   5.622   0.040  0.00  0.00    +0.031 C 
ATOM      6  S   UNL     1      -1.436   2.797   0.023  0.00  0.00    -0.061 S 
ATOM      7  C   UNL     1      -0.021   1.708   0.011  0.00  0.00    +0.121 C 
ATOM      8  S   UNL     1       0.002  -0.004   0.002  0.00  0.00    -0.027 S 
ENDROOT
BRANCH   5   9
ATOM      9  C   UNL     1      -0.103   6.754   0.036  0.00  0.00    +0.016 A 
ATOM     10  C   UNL     1      -0.134   7.917  -0.864  0.00  0.00    +0.008 A 
ATOM     11  C   UNL     1      -0.971   8.300  -1.913  0.00  0.00    +0.010 A 
ATOM     12  C   UNL     1      -0.736   9.471  -2.577  0.00  0.00    +0.001 A 
ATOM     13  C   UNL     1       0.330  10.284  -2.214  0.00  0.00    +0.002 A 
ATOM     14  C   UNL     1       1.163   9.930  -1.177  0.00  0.00    +0.026 A 
ATOM     15  C   UNL     1       0.945   8.737  -0.489  0.00  0.00    +0.048 A 
ATOM     16  N   UNL     1       1.603   8.128   0.554  0.00  0.00    -0.349 N 
ATOM     17  H   UNL     1       2.388   8.485   0.998  0.00  0.00    +0.166 HD
ATOM     18  C   UNL     1       0.988   6.942   0.879  0.00  0.00    +0.133 A 
BRANCH  18  19
ATOM     19  C   UNL     1       1.413   6.025   1.941  0.00  0.00    +0.356 C 
ATOM     20  O   UNL     1       0.793   4.998   2.142  0.00  0.00    -0.243 OA
BRANCH  19  21
ATOM     21  O   UNL     1       2.493   6.319   2.695  0.00  0.00    -0.463 OA
ATOM     22  C   UNL     1       2.850   5.381   3.712  0.00  0.00    +0.280 C 
ENDBRANCH  19  21
ENDBRANCH  18  19
ENDBRANCH   5   9
BRANCH   1  23
ATOM     23  C   UNL     1       2.386   2.019  -0.010  0.00  0.00    +0.198 C 
BRANCH  23  25
ATOM     24  C   UNL     1       2.362   2.032  -2.508  0.00  0.00    +0.009 C 
ATOM     25  C   UNL     1       2.583   1.167  -1.265  0.00  0.00    +0.015 C 
ATOM     26  C   UNL     1       4.005   0.604  -1.282  0.00  0.00    +0.009 C 
ENDBRANCH  23  25
BRANCH  23  27
ATOM     27  C   UNL     1       2.604   1.168   1.214  0.00  0.00    +0.377 C 
ATOM     28  O   UNL     1       1.712   1.026   2.018  0.00  0.00    -0.244 OA
ATOM     29  O   UNL     1       3.787   0.567   1.412  0.00  0.00    -0.244 OA
ENDBRANCH  23  27
ENDBRANCH   1  23
TORSDOF 6
