REMARK  Name = ZINC08456176
REMARK  6 active torsions:
REMARK  status: ('A' for Active; 'I' for Inactive)
REMARK    1  A    between atoms: C_4  and  C_7
REMARK    2  A    between atoms: C_12  and  C_29
REMARK    3  A    between atoms: C_14  and  C_27
REMARK    4  A    between atoms: C_15  and  N_26
REMARK    5  A    between atoms: N_16  and  C_17
REMARK    6  A    between atoms: C_20  and  N_23
REMARK                            x       y       z     vdW  Elec       q    Type
REMARK                         _______ _______ _______ _____ _____    ______ ____
ROOT
ATOM      1  C   UNL     1      -2.432   5.152  -2.630  0.00  0.00    +0.032 C 
ATOM      2  C   UNL     1      -1.689   4.970  -1.305  0.00  0.00    +0.060 C 
ATOM      3  C   UNL     1      -2.131   3.684  -0.649  0.00  0.00    +0.025 C 
ATOM      4  C   UNL     1      -3.381   3.208  -0.825  0.00  0.00    +0.025 C 
ATOM      5  C   UNL     1      -3.825   1.930  -0.159  0.00  0.00    +0.099 C 
ATOM      6  C   UNL     1      -2.647   1.115   0.289  0.00  0.00    +0.077 C 
ATOM      7  C   UNL     1      -1.416   1.674   0.418  0.00  0.00    +0.107 C 
ATOM      8  N   UNL     1      -1.230   3.008   0.134  0.00  0.00    -0.260 N 
ATOM      9  C   UNL     1      -4.308   3.887  -1.636  0.00  0.00    +0.162 C 
ATOM     10  O   UNL     1      -5.430   3.437  -1.764  0.00  0.00    -0.292 OA
ATOM     11  C   UNL     1      -3.938   5.160  -2.346  0.00  0.00    +0.088 C 
ENDROOT
BRANCH   1  15
ATOM     12  C   UNL     1      -1.290   8.859  -4.419  0.00  0.00    +0.000 A 
ATOM     13  C   UNL     1      -1.086   7.672  -5.098  0.00  0.00    +0.000 A 
ATOM     14  C   UNL     1      -1.456   6.473  -4.519  0.00  0.00    +0.004 A 
ATOM     15  C   UNL     1      -2.029   6.460  -3.261  0.00  0.00    -0.044 A 
ATOM     16  C   UNL     1      -2.237   7.647  -2.584  0.00  0.00    +0.004 A 
ATOM     17  C   UNL     1      -1.863   8.846  -3.161  0.00  0.00    +0.000 A 
ENDBRANCH   1  15
BRANCH   8  18
ATOM     18  C   UNL     1      -0.111   3.677   0.644  0.00  0.00    +0.040 A 
ATOM     19  C   UNL     1      -0.201   4.367   1.846  0.00  0.00    +0.026 A 
ATOM     20  C   UNL     1       0.906   5.021   2.350  0.00  0.00    +0.034 A 
ATOM     21  C   UNL     1       2.100   5.000   1.653  0.00  0.00    +0.126 A 
ATOM     22  C   UNL     1       2.191   4.319   0.453  0.00  0.00    +0.034 A 
ATOM     23  C   UNL     1       1.090   3.657  -0.053  0.00  0.00    +0.026 A 
BRANCH  21  24
ATOM     24  N   UNL     1       3.283   5.708   2.192  0.00  0.00    +0.056 N 
ATOM     25  O   UNL     1       4.335   5.690   1.579  0.00  0.00    -0.126 OA
ATOM     26  O   UNL     1       3.204   6.308   3.249  0.00  0.00    -0.126 OA
ENDBRANCH  21  24
ENDBRANCH   8  18
BRANCH   5  27
ATOM     27  C   UNL     1      -4.676   2.267   1.038  0.00  0.00    -0.017 A 
ATOM     28  C   UNL     1      -6.000   1.857   1.096  0.00  0.00    +0.007 A 
ATOM     29  C   UNL     1      -6.744   2.186   2.218  0.00  0.00    +0.020 A 
ATOM     30  C   UNL     1      -6.149   2.914   3.232  0.00  0.00    +0.111 A 
ATOM     31  N   UNL     1      -4.888   3.290   3.141  0.00  0.00    -0.263 NA
ATOM     32  C   UNL     1      -4.149   2.992   2.090  0.00  0.00    +0.115 A 
ENDBRANCH   5  27
BRANCH   7  33
ATOM     33  N   UNL     1      -0.355   0.908   0.838  0.00  0.00    -0.345 N 
ATOM     34  H   UNL     1      -0.502  -0.007   1.126  0.00  0.00    +0.144 HD
ATOM     35  H   UNL     1       0.541   1.280   0.842  0.00  0.00    +0.144 HD
ENDBRANCH   7  33
BRANCH   6  36
ATOM     36  C   UNL     1      -2.824  -0.275   0.585  0.00  0.00    +0.099 C 
ATOM     37  N   UNL     1      -2.964  -1.377   0.820  0.00  0.00    -0.191 NA
ENDBRANCH   6  36
TORSDOF 6
