REMARK  Name = ZINC36704406
REMARK  12 active torsions:
REMARK  status: ('A' for Active; 'I' for Inactive)
REMARK    1  A    between atoms: C_1  and  C_2
REMARK    2  A    between atoms: C_5  and  O_34
REMARK    3  A    between atoms: N_11  and  C_12
REMARK    4  A    between atoms: C_12  and  C_13
REMARK    5  A    between atoms: C_13  and  C_14
REMARK    6  A    between atoms: C_14  and  N_15
REMARK    7  A    between atoms: N_15  and  C_16
REMARK    8  A    between atoms: N_15  and  C_17
REMARK    9  A    between atoms: C_18  and  C_20
REMARK   10  A    between atoms: N_25  and  S_26
REMARK   11  A    between atoms: S_26  and  C_29
REMARK   12  A    between atoms: O_34  and  C_35
REMARK                            x       y       z     vdW  Elec       q    Type
REMARK                         _______ _______ _______ _____ _____    ______ ____
ROOT
ATOM      1  C   UNL     1       1.061   1.396  -0.027  0.00  0.00    +0.045 C 
ATOM      2  C   UNL     1       1.224  -0.101   0.031  0.00  0.00    -0.034 A 
ATOM      3  C   UNL     1       1.597  -0.803  -1.100  0.00  0.00    +0.008 A 
ATOM      4  C   UNL     1       1.742  -2.181  -1.028  0.00  0.00    +0.048 A 
ATOM      5  C   UNL     1       1.523  -2.865   0.145  0.00  0.00    +0.147 A 
ATOM      6  C   UNL     1       1.139  -2.175   1.323  0.00  0.00    +0.122 A 
ATOM      7  C   UNL     1       1.008  -0.774   1.209  0.00  0.00    +0.047 A 
ATOM      8  S   UNL     1       0.537  -0.303   2.857  0.00  0.00    -0.051 S 
ATOM      9  C   UNL     1       0.552  -1.941   3.571  0.00  0.00    +0.168 A 
ATOM     10  N   UNL     1       0.885  -2.690   2.546  0.00  0.00    -0.221 NA
ATOM     11  N   UNL     1       0.270  -2.325   4.873  0.00  0.00    -0.249 N 
ATOM     12  C   UNL     1       0.069  -1.390   5.822  0.00  0.00    +0.240 C 
ATOM     13  O   UNL     1      -0.096  -1.723   6.976  0.00  0.00    -0.273 OA
ENDROOT
BRANCH  12  14
ATOM     14  C   UNL     1       0.050   0.070   5.450  0.00  0.00    +0.166 C 
ATOM     15  C   UNL     1      -1.288   0.419   4.764  0.00  0.00    +0.031 C 
ATOM     16  C   UNL     1      -2.130   1.011   5.926  0.00  0.00    +0.019 C 
ATOM     17  C   UNL     1      -1.047   1.756   6.746  0.00  0.00    +0.110 C 
ATOM     18  N   UNL     1       0.152   0.897   6.661  0.00  0.00    -0.164 NA
BRANCH  18  19
ATOM     19  S   UNL     1       1.401   0.867   7.748  0.00  0.00    +0.068 S 
ATOM     20  O   UNL     1       0.880   1.347   8.979  0.00  0.00    -0.152 OA
ATOM     21  O   UNL     1       2.014  -0.409   7.626  0.00  0.00    -0.152 OA
BRANCH  19  22
ATOM     22  C   UNL     1       2.590   2.050   7.208  0.00  0.00    +0.143 A 
ATOM     23  C   UNL     1       2.689   3.365   7.524  0.00  0.00    +0.036 A 
ATOM     24  C   UNL     1       3.716   4.110   6.976  0.00  0.00    +0.010 A 
ATOM     25  C   UNL     1       4.594   3.504   6.140  0.00  0.00    +0.047 A 
ATOM     26  S   UNL     1       3.980   1.828   6.111  0.00  0.00    -0.077 S 
ENDBRANCH  19  22
ENDBRANCH  18  19
ENDBRANCH  12  14
BRANCH   5  27
ATOM     27  O   UNL     1       1.675  -4.215   0.175  0.00  0.00    -0.493 OA
ATOM     28  C   UNL     1       2.062  -4.852  -1.044  0.00  0.00    +0.277 C 
ENDBRANCH   5  27
BRANCH  11  29
ATOM     29  C   UNL     1       0.191  -3.747   5.217  0.00  0.00    +0.114 C 
BRANCH  29  30
ATOM     30  C   UNL     1       1.578  -4.253   5.615  0.00  0.00    +0.001 C 
BRANCH  30  31
ATOM     31  C   UNL     1       1.479  -5.714   6.061  0.00  0.00    -0.078 C 
BRANCH  31  32
ATOM     32  N   UNL     1       2.811  -6.200   6.444  0.00  0.00    +0.376 N 
ATOM     33  C   UNL     1       2.699  -7.561   6.985  0.00  0.00    -0.097 C 
ATOM     34  C   UNL     1       3.686  -6.213   5.264  0.00  0.00    -0.097 C 
ATOM     35  H   UNL     1       3.203  -5.590   7.146  0.00  0.00    -0.083 HD
ENDBRANCH  31  32
ENDBRANCH  30  31
ENDBRANCH  29  30
ENDBRANCH  11  29
TORSDOF 8
