REMARK  Name = ZINC18182009
REMARK  6 active torsions:
REMARK  status: ('A' for Active; 'I' for Inactive)
REMARK    1  A    between atoms: C_1  and  N_2
REMARK    2  A    between atoms: C_5  and  C_23
REMARK    3  A    between atoms: N_19  and  C_22
REMARK    4  A    between atoms: C_26  and  C_29
REMARK    5  A    between atoms: C_29  and  O_31
REMARK    6  A    between atoms: O_31  and  C_32
REMARK                            x       y       z     vdW  Elec       q    Type
REMARK                         _______ _______ _______ _____ _____    ______ ____
ROOT
ATOM      1  C   UNL     1      -0.018   1.461   0.010  0.00  0.00    +0.143 C 
ATOM      2  N   UNL     1       0.002  -0.004   0.002  0.00  0.00    -0.225 N 
ATOM      3  C   UNL     1      -1.180  -0.701   0.004  0.00  0.00    +0.254 C 
ATOM      4  C   UNL     1      -1.147  -2.072  -0.004  0.00  0.00    +0.067 C 
ATOM      5  C   UNL     1      -2.414  -2.897  -0.002  0.00  0.00    +0.093 C 
ATOM      6  C   UNL     1      -2.215  -4.401  -0.011  0.00  0.00    +0.038 C 
ATOM      7  C   UNL     1      -0.909  -4.889  -0.021  0.00  0.00    +0.082 C 
ATOM      8  C   UNL     1      -0.982  -6.379  -0.028  0.00  0.00    +0.012 A 
ATOM      9  C   UNL     1      -0.014  -7.367  -0.038  0.00  0.00    +0.011 A 
ATOM     10  C   UNL     1      -0.392  -8.704  -0.043  0.00  0.00    +0.001 A 
ATOM     11  C   UNL     1      -1.727  -9.050  -0.038  0.00  0.00    +0.001 A 
ATOM     12  C   UNL     1      -2.707  -8.065  -0.028  0.00  0.00    +0.012 A 
ATOM     13  C   UNL     1      -2.341  -6.731  -0.023  0.00  0.00    +0.031 A 
ATOM     14  C   UNL     1      -3.118  -5.463  -0.013  0.00  0.00    +0.193 C 
ATOM     15  O   UNL     1      -4.333  -5.369  -0.005  0.00  0.00    -0.287 OA
ATOM     16  N   UNL     1       0.137  -4.072  -0.022  0.00  0.00    -0.231 NA
ATOM     17  C   UNL     1       0.081  -2.748  -0.014  0.00  0.00    +0.138 C 
ATOM     18  N   UNL     1       1.241  -1.999  -0.016  0.00  0.00    -0.242 N 
ATOM     19  C   UNL     1       1.179  -0.655  -0.013  0.00  0.00    +0.316 C 
ATOM     20  O   UNL     1       2.212  -0.014  -0.019  0.00  0.00    -0.252 OA
ATOM     21  C   UNL     1       2.543  -2.670  -0.026  0.00  0.00    +0.141 C 
ATOM     22  O   UNL     1      -2.359  -0.046   0.014  0.00  0.00    -0.270 OA
ENDROOT
BRANCH   5  23
ATOM     23  C   UNL     1      -3.210  -2.537   1.226  0.00  0.00    -0.035 A 
ATOM     24  C   UNL     1      -2.660  -2.721   2.482  0.00  0.00    +0.005 A 
ATOM     25  C   UNL     1      -3.383  -2.394   3.610  0.00  0.00    +0.015 A 
ATOM     26  C   UNL     1      -4.673  -1.875   3.482  0.00  0.00    +0.059 A 
ATOM     27  C   UNL     1      -5.223  -1.692   2.211  0.00  0.00    +0.015 A 
ATOM     28  C   UNL     1      -4.486  -2.018   1.091  0.00  0.00    +0.005 A 
BRANCH  26  29
ATOM     29  C   UNL     1      -5.454  -1.523   4.685  0.00  0.00    +0.339 C 
ATOM     30  O   UNL     1      -4.974  -1.684   5.790  0.00  0.00    -0.245 OA
BRANCH  29  31
ATOM     31  O   UNL     1      -6.699  -1.022   4.558  0.00  0.00    -0.464 OA
ATOM     32  C   UNL     1      -7.396  -0.704   5.764  0.00  0.00    +0.280 C 
ENDBRANCH  29  31
ENDBRANCH  26  29
ENDBRANCH   5  23
TORSDOF 3
