REMARK  Name = ZINC23107126
REMARK  10 active torsions:
REMARK  status: ('A' for Active; 'I' for Inactive)
REMARK    1  A    between atoms: C_1  and  C_2
REMARK    2  A    between atoms: C_2  and  O_3
REMARK    3  A    between atoms: O_3  and  C_4
REMARK    4  A    between atoms: C_4  and  C_6
REMARK    5  A    between atoms: C_7  and  C_14
REMARK    6  A    between atoms: C_8  and  C_12
REMARK    7  A    between atoms: C_9  and  N_11
REMARK    8  A    between atoms: C_14  and  N_15
REMARK    9  A    between atoms: C_23  and  S_24
REMARK   10  A    between atoms: S_24  and  C_27
REMARK                            x       y       z     vdW  Elec       q    Type
REMARK                         _______ _______ _______ _____ _____    ______ ____
ROOT
ATOM      1  C   UNL     1      -2.046   6.292   1.827  0.00  0.00    +0.104 A 
ATOM      2  C   UNL     1      -1.600   5.140   1.210  0.00  0.00    +0.013 A 
ATOM      3  C   UNL     1      -1.397   5.188  -0.159  0.00  0.00    +0.085 A 
ATOM      4  C   UNL     1      -1.667   6.392  -0.818  0.00  0.00    +0.082 A 
ATOM      5  S   UNL     1      -2.184   7.436   0.466  0.00  0.00    -0.066 S 
ENDROOT
BRANCH   4   6
ATOM      6  N   UNL     1      -1.547   6.680  -2.159  0.00  0.00    -0.352 N 
ATOM      7  H   UNL     1      -1.800   7.684  -2.531  0.00  0.00    +0.143 HD
ATOM      8  H   UNL     1      -1.198   5.906  -2.859  0.00  0.00    +0.143 HD
ENDBRANCH   4   6
BRANCH   1   9
ATOM      9  C   UNL     1      -2.325   6.511   3.200  0.00  0.00    +0.346 C 
ATOM     10  O   UNL     1      -1.672   5.938   4.052  0.00  0.00    -0.244 OA
BRANCH   9  11
ATOM     11  O   UNL     1      -3.314   7.355   3.561  0.00  0.00    -0.461 OA
BRANCH  11  13
ATOM     12  C   UNL     1      -4.691   8.513   5.175  0.00  0.00    +0.048 C 
ATOM     13  C   UNL     1      -3.540   7.528   4.961  0.00  0.00    +0.229 C 
ENDBRANCH  11  13
ENDBRANCH   9  11
ENDBRANCH   1   9
BRANCH   3  14
ATOM     14  C   UNL     1      -0.929   4.041  -0.877  0.00  0.00    +0.102 C 
ATOM     15  N   UNL     1      -0.558   3.131  -1.447  0.00  0.00    -0.191 NA
ENDBRANCH   3  14
BRANCH   2  16
ATOM     16  C   UNL     1      -1.339   3.882   1.997  0.00  0.00    +0.163 C 
BRANCH  16  17
ATOM     17  N   UNL     1      -2.614   3.238   2.326  0.00  0.00    -0.305 N 
ATOM     18  C   UNL     1      -3.319   3.375   3.505  0.00  0.00    +0.070 A 
ATOM     19  C   UNL     1      -3.111   4.086   4.679  0.00  0.00    +0.028 A 
ATOM     20  C   UNL     1      -4.033   4.002   5.700  0.00  0.00    +0.002 A 
ATOM     21  C   UNL     1      -5.164   3.210   5.563  0.00  0.00    +0.002 A 
ATOM     22  C   UNL     1      -5.385   2.503   4.415  0.00  0.00    +0.030 A 
ATOM     23  C   UNL     1      -4.465   2.574   3.366  0.00  0.00    +0.091 A 
ATOM     24  N   UNL     1      -4.404   2.006   2.134  0.00  0.00    -0.212 NA
ATOM     25  C   UNL     1      -3.322   2.397   1.525  0.00  0.00    +0.252 A 
BRANCH  25  26
ATOM     26  S   UNL     1      -2.842   1.903  -0.097  0.00  0.00    +0.027 S 
ATOM     27  O   UNL     1      -3.628   0.752  -0.373  0.00  0.00    -0.167 OA
ATOM     28  O   UNL     1      -1.425   1.818  -0.045  0.00  0.00    -0.167 OA
ATOM     29  C   UNL     1      -3.346   3.276  -1.170  0.00  0.00    +0.204 C 
ENDBRANCH  25  26
ENDBRANCH  16  17
ENDBRANCH   2  16
TORSDOF 8
