REMARK  Name = ZINC54095701
REMARK  6 active torsions:
REMARK  status: ('A' for Active; 'I' for Inactive)
REMARK    1  A    between atoms: C_1  and  C_2
REMARK    2  A    between atoms: C_7  and  C_8
REMARK    3  A    between atoms: C_8  and  C_9
REMARK    4  A    between atoms: C_9  and  N_10
REMARK    5  A    between atoms: N_16  and  C_19
REMARK    6  A    between atoms: C_19  and  C_20
REMARK                            x       y       z     vdW  Elec       q    Type
REMARK                         _______ _______ _______ _____ _____    ______ ____
ROOT
ATOM      1  N   UNL     1      -1.411   1.113   4.171  0.00  0.00    -0.299 N 
ATOM      2  C   UNL     1      -2.574   1.519   4.718  0.00  0.00    +0.302 C 
ATOM      3  O   UNL     1      -3.617   1.365   4.112  0.00  0.00    -0.253 OA
ATOM      4  N   UNL     1      -2.581   2.097   5.935  0.00  0.00    -0.283 N 
ATOM      5  C   UNL     1      -1.323   2.398   6.635  0.00  0.00    +0.124 C 
ATOM      6  C   UNL     1      -1.404   1.818   8.052  0.00  0.00    +0.104 C 
ATOM      7  N   UNL     1      -2.617   2.316   8.713  0.00  0.00    -0.294 NA
ATOM      8  C   UNL     1      -3.828   1.861   8.017  0.00  0.00    +0.104 C 
ATOM      9  C   UNL     1      -3.847   2.448   6.596  0.00  0.00    +0.124 C 
ATOM     10  H   UNL     1      -0.572   1.302   4.621  0.00  0.00    +0.150 HD
ENDROOT
BRANCH   1  11
ATOM     11  C   UNL     1      -1.413   0.386   2.900  0.00  0.00    +0.110 C 
BRANCH  11  12
ATOM     12  C   UNL     1       0.025   0.043   2.505  0.00  0.00    +0.054 C 
BRANCH  12  19
ATOM     13  C   UNL     1      -0.020   1.498   0.009  0.00  0.00    +0.044 C 
ATOM     14  C   UNL     1       0.001  -0.008   0.003  0.00  0.00    -0.047 A 
ATOM     15  C   UNL     1       0.005  -0.695  -1.197  0.00  0.00    +0.003 A 
ATOM     16  C   UNL     1       0.024  -2.076  -1.203  0.00  0.00    +0.000 A 
ATOM     17  C   UNL     1       0.040  -2.773  -0.009  0.00  0.00    +0.000 A 
ATOM     18  C   UNL     1       0.038  -2.087   1.191  0.00  0.00    +0.004 A 
ATOM     19  C   UNL     1       0.023  -0.704   1.197  0.00  0.00    -0.043 A 
ENDBRANCH  12  19
ENDBRANCH  11  12
ENDBRANCH   1  11
BRANCH   7  20
ATOM     20  C   UNL     1      -2.645   1.923  10.128  0.00  0.00    +0.139 C 
BRANCH  20  21
ATOM     21  C   UNL     1      -3.764   2.648  10.829  0.00  0.00    +0.048 A 
ATOM     22  C   UNL     1      -3.646   3.807  11.514  0.00  0.00    +0.115 A 
ATOM     23  N   UNL     1      -4.888   4.123  11.991  0.00  0.00    -0.308 N 
ATOM     24  C   UNL     1      -5.352   5.167  12.738  0.00  0.00    +0.092 A 
ATOM     25  C   UNL     1      -6.656   5.242  13.080  0.00  0.00    +0.018 A 
ATOM     26  C   UNL     1      -7.554   4.242  12.671  0.00  0.00    +0.005 A 
ATOM     27  C   UNL     1      -7.105   3.196  11.927  0.00  0.00    +0.045 A 
ATOM     28  C   UNL     1      -5.741   3.133  11.577  0.00  0.00    +0.115 A 
ATOM     29  N   UNL     1      -5.040   2.256  10.873  0.00  0.00    -0.342 N 
ATOM     30  H   UNL     1      -5.396   1.455  10.457  0.00  0.00    +0.167 HD
ENDBRANCH  20  21
ENDBRANCH   7  20
TORSDOF 5
