REMARK  Name = ZINC01119833
REMARK  5 active torsions:
REMARK  status: ('A' for Active; 'I' for Inactive)
REMARK    1  A    between atoms: C_3  and  C_6
REMARK    2  A    between atoms: C_6  and  O_8
REMARK    3  A    between atoms: O_8  and  C_9
REMARK    4  A    between atoms: C_12  and  C_15
REMARK    5  A    between atoms: N_22  and  C_25
REMARK                            x       y       z     vdW  Elec       q    Type
REMARK                         _______ _______ _______ _____ _____    ______ ____
ROOT
ATOM      1  C   UNL     1       0.061   0.033   0.040  0.00  0.00    +0.026 C 
ATOM      2  C   UNL     1      -1.083  -0.737   0.120  0.00  0.00    +0.100 C 
ATOM      3  C   UNL     1      -1.017  -2.210   0.207  0.00  0.00    +0.257 C 
ATOM      4  O   UNL     1       0.053  -2.788   0.210  0.00  0.00    -0.270 OA
ATOM      5  N   UNL     1      -2.176  -2.896   0.283  0.00  0.00    -0.235 N 
ATOM      6  C   UNL     1      -3.362  -2.271   0.280  0.00  0.00    +0.320 C 
ATOM      7  O   UNL     1      -4.369  -2.949   0.350  0.00  0.00    -0.251 OA
ATOM      8  N   UNL     1      -3.498  -0.940   0.203  0.00  0.00    -0.190 N 
ATOM      9  C   UNL     1      -2.426  -0.124   0.128  0.00  0.00    +0.263 C 
ATOM     10  O   UNL     1      -2.563   1.083   0.064  0.00  0.00    -0.269 OA
ATOM     11  H   UNL     1      -2.151  -3.864   0.341  0.00  0.00    +0.159 HD
ENDROOT
BRANCH   8  12
ATOM     12  C   UNL     1      -4.784  -0.382   0.208  0.00  0.00    +0.046 A 
ATOM     13  C   UNL     1      -5.257   0.285  -0.914  0.00  0.00    +0.027 A 
ATOM     14  C   UNL     1      -6.526   0.830  -0.909  0.00  0.00    +0.040 A 
ATOM     15  C   UNL     1      -7.323   0.720   0.218  0.00  0.00    +0.124 A 
ATOM     16  C   UNL     1      -6.851   0.060   1.341  0.00  0.00    +0.040 A 
ATOM     17  C   UNL     1      -5.585  -0.490   1.337  0.00  0.00    +0.027 A 
ATOM     18  F   UNL     1      -8.562   1.258   0.223  0.00  0.00    -0.205 F 
ENDBRANCH   8  12
BRANCH   1  22
ATOM     19  C   UNL     1      -0.221   4.148  -0.880  0.00  0.00    +0.132 A 
ATOM     20  C   UNL     1       0.574   3.728   0.181  0.00  0.00    +0.047 A 
ATOM     21  C   UNL     1       0.670   2.400   0.484  0.00  0.00    +0.011 A 
ATOM     22  C   UNL     1      -0.037   1.458  -0.279  0.00  0.00    -0.024 A 
ATOM     23  C   UNL     1      -0.833   1.887  -1.351  0.00  0.00    +0.011 A 
ATOM     24  C   UNL     1      -0.924   3.218  -1.640  0.00  0.00    +0.047 A 
BRANCH  19  25
ATOM     25  O   UNL     1      -0.311   5.469  -1.176  0.00  0.00    -0.420 OA
BRANCH  25  26
ATOM     26  C   UNL     1       0.797   6.095  -1.625  0.00  0.00    +0.380 C 
ATOM     27  O   UNL     1       1.810   5.457  -1.843  0.00  0.00    -0.241 OA
BRANCH  26  30
ATOM     28  C   UNL     1       1.371   9.622  -2.363  0.00  0.00    +0.042 A 
ATOM     29  C   UNL     1       1.829   8.298  -2.293  0.00  0.00    +0.056 A 
ATOM     30  C   UNL     1       0.781   7.542  -1.848  0.00  0.00    +0.212 A 
ATOM     31  O   UNL     1      -0.270   8.364  -1.647  0.00  0.00    -0.456 OA
ATOM     32  C   UNL     1       0.082   9.619  -1.956  0.00  0.00    +0.196 A 
ENDBRANCH  26  30
ENDBRANCH  25  26
ENDBRANCH  19  25
ENDBRANCH   1  22
TORSDOF 5
