REMARK  Name = ZINC40309081
REMARK  3 active torsions:
REMARK  status: ('A' for Active; 'I' for Inactive)
REMARK    1  A    between atoms: C_6  and  C_7
REMARK    2  A    between atoms: N_20  and  C_21
REMARK    3  A    between atoms: C_24  and  C_27
REMARK                            x       y       z     vdW  Elec       q    Type
REMARK                         _______ _______ _______ _____ _____    ______ ____
ROOT
ATOM      1  C   UNL     1      -1.545  -0.887  -0.101  0.00  0.00    +0.156 C 
ATOM      2  C   UNL     1      -1.739  -1.675  -1.372  0.00  0.00    +0.064 A 
ATOM      3  C   UNL     1      -1.171  -2.875  -1.615  0.00  0.00    +0.066 A 
ATOM      4  N   UNL     1      -1.556  -3.272  -2.832  0.00  0.00    -0.240 NA
ATOM      5  C   UNL     1      -2.342  -2.365  -3.351  0.00  0.00    +0.197 A 
ATOM      6  N   UNL     1      -2.481  -1.351  -2.465  0.00  0.00    -0.346 N 
ATOM      7  H   UNL     1      -3.009  -0.546  -2.587  0.00  0.00    +0.167 HD
ATOM      8  C   UNL     1      -0.272  -3.603  -0.647  0.00  0.00    +0.076 C 
ATOM      9  C   UNL     1       0.240  -2.606   0.399  0.00  0.00    +0.116 C 
ATOM     10  N   UNL     1      -0.882  -1.778   0.870  0.00  0.00    -0.272 N 
ATOM     11  C   UNL     1      -1.294  -1.833   2.152  0.00  0.00    +0.307 C 
ATOM     12  O   UNL     1      -0.670  -2.489   2.963  0.00  0.00    -0.252 OA
ATOM     13  N   UNL     1      -2.397  -1.159   2.534  0.00  0.00    -0.269 N 
ATOM     14  H   UNL     1      -2.883  -0.620   1.891  0.00  0.00    +0.156 HD
ENDROOT
BRANCH   1  20
ATOM     15  C   UNL     1       0.467   0.185  -1.133  0.00  0.00    +0.007 A 
ATOM     16  C   UNL     1       1.263   1.288  -1.379  0.00  0.00    +0.015 A 
ATOM     17  C   UNL     1       0.913   2.522  -0.862  0.00  0.00    +0.018 A 
ATOM     18  C   UNL     1      -0.232   2.652  -0.098  0.00  0.00    +0.015 A 
ATOM     19  C   UNL     1      -1.028   1.549   0.148  0.00  0.00    +0.007 A 
ATOM     20  C   UNL     1      -0.678   0.316  -0.369  0.00  0.00    -0.021 A 
ATOM     21 BR   UNL     1       2.002   4.032  -1.198  0.00  0.00    -0.050 Br
ENDBRANCH   1  20
BRANCH  13  22
ATOM     22  C   UNL     1      -2.839  -1.239   3.853  0.00  0.00    +0.035 A 
ATOM     23  C   UNL     1      -2.581  -2.382   4.604  0.00  0.00    +0.024 A 
ATOM     24  C   UNL     1      -3.015  -2.464   5.902  0.00  0.00    +0.017 A 
ATOM     25  C   UNL     1      -3.716  -1.396   6.472  0.00  0.00    +0.063 A 
ATOM     26  C   UNL     1      -3.973  -0.248   5.714  0.00  0.00    +0.017 A 
ATOM     27  C   UNL     1      -3.532  -0.172   4.418  0.00  0.00    +0.024 A 
BRANCH  25  28
ATOM     28  C   UNL     1      -4.184  -1.480   7.866  0.00  0.00    +0.387 C 
ATOM     29  O   UNL     1      -3.959  -2.484   8.527  0.00  0.00    -0.241 OA
ATOM     30  O   UNL     1      -4.797  -0.545   8.363  0.00  0.00    -0.241 OA
ENDBRANCH  25  28
ENDBRANCH  13  22
TORSDOF 3
