REMARK  Name = ZINC63162962
REMARK  6 active torsions:
REMARK  status: ('A' for Active; 'I' for Inactive)
REMARK    1  A    between atoms: C_6  and  C_10
REMARK    2  A    between atoms: C_10  and  S_11
REMARK    3  A    between atoms: S_11  and  C_12
REMARK    4  A    between atoms: C_16  and  C_25
REMARK    5  A    between atoms: N_18  and  C_19
REMARK    6  A    between atoms: C_19  and  C_20
REMARK                            x       y       z     vdW  Elec       q    Type
REMARK                         _______ _______ _______ _____ _____    ______ ____
ROOT
ATOM      1  C   UNL     1       4.161  -2.865  -4.517  0.00  0.00    +0.200 C 
ATOM      2  N   UNL     1       5.497  -3.428  -4.189  0.00  0.00    -0.229 NA
ATOM      3  N   UNL     1       5.402  -4.813  -4.675  0.00  0.00    -0.233 NA
ATOM      4  C   UNL     1       4.015  -5.223  -4.355  0.00  0.00    +0.172 C 
ATOM      5  N   UNL     1       3.220  -3.979  -4.258  0.00  0.00    -0.250 NA
ATOM      6  H   UNL     1       6.229  -2.926  -4.670  0.00  0.00    +0.143 HD
ATOM      7  H   UNL     1       5.573  -4.861  -5.668  0.00  0.00    +0.143 HD
ENDROOT
BRANCH   4   8
ATOM      8  C   UNL     1       3.469  -6.098  -5.454  0.00  0.00    -0.015 A 
ATOM      9  C   UNL     1       3.563  -5.693  -6.772  0.00  0.00    +0.008 A 
ATOM     10  C   UNL     1       3.062  -6.496  -7.779  0.00  0.00    +0.020 A 
ATOM     11  C   UNL     1       2.467  -7.705  -7.468  0.00  0.00    +0.041 A 
ATOM     12  C   UNL     1       2.373  -8.111  -6.149  0.00  0.00    +0.020 A 
ATOM     13  C   UNL     1       2.880  -7.310  -5.143  0.00  0.00    +0.008 A 
ATOM     14 CL   UNL     1       1.838  -8.714  -8.733  0.00  0.00    -0.084 Cl
ENDBRANCH   4   8
BRANCH   1  15
ATOM     15  S   UNL     1       3.785  -1.453  -3.441  0.00  0.00    -0.121 S 
BRANCH  15  16
ATOM     16  C   UNL     1       3.923  -2.131  -1.764  0.00  0.00    +0.118 C 
BRANCH  16  22
ATOM     17  C   UNL     1       1.980   3.128  -1.804  0.00  0.00    +0.002 A 
ATOM     18  C   UNL     1       3.349   3.446  -1.749  0.00  0.00    +0.002 A 
ATOM     19  C   UNL     1       4.297   2.531  -1.463  0.00  0.00    +0.027 A 
ATOM     20  C   UNL     1       3.905   1.141  -1.194  0.00  0.00    +0.060 A 
ATOM     21  N   UNL     1       4.585   0.071  -0.898  0.00  0.00    -0.363 N 
ATOM     22  C   UNL     1       3.627  -1.031  -0.743  0.00  0.00    +0.184 C 
ATOM     23  N   UNL     1       2.296  -0.460  -0.989  0.00  0.00    -0.363 N 
ATOM     24  C   UNL     1       2.456   0.804  -1.252  0.00  0.00    +0.060 A 
ATOM     25  C   UNL     1       1.513   1.885  -1.574  0.00  0.00    +0.027 A 
ATOM     26  H   UNL     1       5.548   0.013  -0.798  0.00  0.00    +0.162 HD
ATOM     27  H   UNL     1       1.452  -0.939  -0.961  0.00  0.00    +0.162 HD
ENDBRANCH  16  22
ENDBRANCH  15  16
ENDBRANCH   1  15
BRANCH   5  28
ATOM     28  C   UNL     1       2.120  -3.976  -5.232  0.00  0.00    +0.163 C 
BRANCH  28  29
ATOM     29  C   UNL     1       1.145  -2.880  -4.885  0.00  0.00    +0.119 A 
ATOM     30  C   UNL     1       1.192  -1.614  -5.338  0.00  0.00    +0.046 A 
ATOM     31  C   UNL     1       0.093  -0.933  -4.764  0.00  0.00    +0.041 A 
ATOM     32  C   UNL     1      -0.559  -1.824  -3.995  0.00  0.00    +0.195 A 
ATOM     33  O   UNL     1       0.079  -3.003  -4.077  0.00  0.00    -0.467 OA
ENDBRANCH  28  29
ENDBRANCH   5  28
TORSDOF 6
