REMARK  Name = ZINC09429912
REMARK  6 active torsions:
REMARK  status: ('A' for Active; 'I' for Inactive)
REMARK    1  A    between atoms: C_1  and  N_2
REMARK    2  A    between atoms: C_5  and  C_21
REMARK    3  A    between atoms: C_8  and  C_13
REMARK    4  A    between atoms: C_16  and  O_20
REMARK    5  A    between atoms: C_17  and  O_19
REMARK    6  A    between atoms: N_30  and  C_33
REMARK                            x       y       z     vdW  Elec       q    Type
REMARK                         _______ _______ _______ _____ _____    ______ ____
ROOT
ATOM      1  C   UNL     1       7.344   6.186  -0.189  0.00  0.00    +0.154 C 
ATOM      2  N   UNL     1       6.760   4.854  -0.011  0.00  0.00    -0.294 N 
ATOM      3  C   UNL     1       5.434   4.617  -0.390  0.00  0.00    +0.083 A 
ATOM      4  C   UNL     1       4.896   3.261  -0.189  0.00  0.00    +0.089 A 
ATOM      5  C   UNL     1       3.586   3.290  -0.637  0.00  0.00    +0.064 A 
ATOM      6  N   UNL     1       3.329   4.547  -1.082  0.00  0.00    -0.337 N 
ATOM      7  C   UNL     1       4.444   5.343  -0.925  0.00  0.00    +0.077 A 
ATOM      8  C   UNL     1       4.473   6.802  -1.322  0.00  0.00    +0.197 C 
ATOM      9  O   UNL     1       3.119   7.229  -1.522  0.00  0.00    -0.364 OA
ATOM     10  C   UNL     1       2.357   6.367  -2.371  0.00  0.00    +0.182 C 
ATOM     11  C   UNL     1       2.066   5.048  -1.644  0.00  0.00    +0.150 C 
ATOM     12  C   UNL     1       5.786   2.254   0.393  0.00  0.00    +0.266 A 
ATOM     13  O   UNL     1       5.400   1.116   0.583  0.00  0.00    -0.267 OA
ATOM     14  N   UNL     1       7.046   2.619   0.713  0.00  0.00    -0.263 N 
ATOM     15  C   UNL     1       7.501   3.864   0.516  0.00  0.00    +0.332 A 
ATOM     16  O   UNL     1       8.649   4.111   0.833  0.00  0.00    -0.246 OA
ATOM     17  C   UNL     1       7.945   1.621   1.296  0.00  0.00    +0.157 C 
ENDROOT
BRANCH   5  18
ATOM     18  C   UNL     1       2.640   2.157  -0.635  0.00  0.00    -0.001 A 
ATOM     19  C   UNL     1       3.054   0.897  -1.075  0.00  0.00    +0.011 A 
ATOM     20  C   UNL     1       2.166  -0.157  -1.072  0.00  0.00    +0.020 A 
ATOM     21  C   UNL     1       0.863   0.032  -0.639  0.00  0.00    +0.041 A 
ATOM     22  C   UNL     1       0.448   1.277  -0.197  0.00  0.00    +0.020 A 
ATOM     23  C   UNL     1       1.327   2.340  -0.196  0.00  0.00    +0.011 A 
ATOM     24 CL   UNL     1      -0.251  -1.299  -0.645  0.00  0.00    -0.084 Cl
ENDBRANCH   5  18
BRANCH   8  25
ATOM     25  C   UNL     1       5.108   7.617  -0.225  0.00  0.00    -0.009 A 
ATOM     26  C   UNL     1       4.653   7.498   1.075  0.00  0.00    +0.010 A 
ATOM     27  C   UNL     1       5.236   8.240   2.085  0.00  0.00    +0.049 A 
ATOM     28  C   UNL     1       6.272   9.113   1.795  0.00  0.00    +0.158 A 
ATOM     29  C   UNL     1       6.727   9.236   0.485  0.00  0.00    +0.159 A 
ATOM     30  C   UNL     1       6.142   8.486  -0.522  0.00  0.00    +0.055 A 
BRANCH  29  31
ATOM     31  O   UNL     1       7.744  10.091   0.195  0.00  0.00    -0.503 OA
ATOM     32  H   UNL     1       7.454  10.986  -0.031  0.00  0.00    +0.292 HD
ENDBRANCH  29  31
BRANCH  28  33
ATOM     33  O   UNL     1       6.843   9.847   2.787  0.00  0.00    -0.503 OA
ATOM     34  H   UNL     1       6.423  10.706   2.932  0.00  0.00    +0.292 HD
ENDBRANCH  28  33
ENDBRANCH   8  25
TORSDOF 4
