REMARK  Name = ZINC40847384
REMARK  8 active torsions:
REMARK  status: ('A' for Active; 'I' for Inactive)
REMARK    1  A    between atoms: C_1  and  C_2
REMARK    2  A    between atoms: C_4  and  O_10
REMARK    3  A    between atoms: C_6  and  C_9
REMARK    4  A    between atoms: O_10  and  C_11
REMARK    5  A    between atoms: C_11  and  C_13
REMARK    6  A    between atoms: C_11  and  C_14
REMARK    7  A    between atoms: N_16  and  N_17
REMARK    8  A    between atoms: C_18  and  C_19
REMARK                            x       y       z     vdW  Elec       q    Type
REMARK                         _______ _______ _______ _____ _____    ______ ____
ROOT
ATOM      1  C   UNL     1       0.773  -5.046  -4.059  0.00  0.00    +0.273 C 
ATOM      2  O   UNL     1       0.255  -4.236  -4.799  0.00  0.00    -0.270 OA
ATOM      3  N   UNL     1       0.386  -6.337  -4.095  0.00  0.00    -0.204 N 
ATOM      4  H   UNL     1       0.748  -6.970  -3.456  0.00  0.00    +0.177 HD
ENDROOT
BRANCH   1   5
ATOM      5  C   UNL     1       1.849  -4.609  -3.098  0.00  0.00    +0.257 C 
ATOM      6  C   UNL     1       3.179  -5.254  -3.494  0.00  0.00    +0.062 C 
BRANCH   5   7
ATOM      7  O   UNL     1       1.978  -3.187  -3.143  0.00  0.00    -0.480 OA
BRANCH   7  11
ATOM      8  C   UNL     1       3.770  -3.535   1.384  0.00  0.00    +0.045 C 
ATOM      9  C   UNL     1       3.399  -2.717   0.174  0.00  0.00    -0.028 A 
ATOM     10  C   UNL     1       2.855  -3.334  -0.936  0.00  0.00    +0.050 A 
ATOM     11  C   UNL     1       2.513  -2.581  -2.050  0.00  0.00    +0.122 A 
ATOM     12  C   UNL     1       2.717  -1.209  -2.046  0.00  0.00    +0.050 A 
ATOM     13  C   UNL     1       3.261  -0.596  -0.934  0.00  0.00    -0.028 A 
ATOM     14  C   UNL     1       3.597  -1.348   0.177  0.00  0.00    +0.047 A 
ATOM     15 CL   UNL     1       4.274  -0.574   1.576  0.00  0.00    -0.083 Cl
ATOM     16  C   UNL     1       3.484   0.895  -0.930  0.00  0.00    +0.045 C 
ENDBRANCH   7  11
ENDBRANCH   5   7
ENDBRANCH   1   5
BRANCH   3  17
ATOM     17  N   UNL     1      -0.540  -6.763  -5.056  0.00  0.00    -0.188 NA
ATOM     18  C   UNL     1      -0.998  -7.977  -5.022  0.00  0.00    +0.139 C 
BRANCH  18  19
ATOM     19  C   UNL     1      -0.705  -8.843  -3.865  0.00  0.00    +0.013 A 
ATOM     20  C   UNL     1      -0.437  -8.279  -2.616  0.00  0.00    +0.011 A 
ATOM     21  C   UNL     1      -0.164  -9.096  -1.538  0.00  0.00    +0.001 A 
ATOM     22  C   UNL     1      -0.154 -10.471  -1.692  0.00  0.00    +0.001 A 
ATOM     23  C   UNL     1      -0.417 -11.038  -2.926  0.00  0.00    +0.020 A 
ATOM     24  C   UNL     1      -0.699 -10.233  -4.013  0.00  0.00    +0.050 A 
ATOM     25 CL   UNL     1      -1.037 -10.946  -5.559  0.00  0.00    -0.083 Cl
ENDBRANCH  18  19
ENDBRANCH   3  17
TORSDOF 5
