REMARK  Name = ZINC44483955
REMARK  6 active torsions:
REMARK  status: ('A' for Active; 'I' for Inactive)
REMARK    1  A    between atoms: C_3  and  C_9
REMARK    2  A    between atoms: C_4  and  O_8
REMARK    3  A    between atoms: N_11  and  C_12
REMARK    4  A    between atoms: C_12  and  C_14
REMARK    5  A    between atoms: C_12  and  C_20
REMARK    6  A    between atoms: C_20  and  N_22
REMARK                            x       y       z     vdW  Elec       q    Type
REMARK                         _______ _______ _______ _____ _____    ______ ____
ROOT
ATOM      1  C   UNL     1       4.141   1.966  -0.176  0.00  0.00    +0.248 C 
ATOM      2  O   UNL     1       5.304   1.614  -0.177  0.00  0.00    -0.270 OA
ATOM      3  N   UNL     1       3.834   3.276  -0.098  0.00  0.00    -0.302 N 
ATOM      4  H   UNL     1       2.905   3.558  -0.097  0.00  0.00    +0.150 HD
ENDROOT
BRANCH   1   7
ATOM      5  C   UNL     1       0.727   0.417  -0.336  0.00  0.00    +0.016 A 
ATOM      6  C   UNL     1       1.727   1.361  -0.258  0.00  0.00    +0.018 A 
ATOM      7  C   UNL     1       3.065   0.961  -0.259  0.00  0.00    +0.078 A 
ATOM      8  C   UNL     1       3.380  -0.403  -0.341  0.00  0.00    +0.130 A 
ATOM      9  C   UNL     1       2.362  -1.340  -0.419  0.00  0.00    +0.061 A 
ATOM     10  C   UNL     1       1.042  -0.930  -0.417  0.00  0.00    +0.021 A 
ATOM     11 BR   UNL     1      -0.342  -2.215  -0.524  0.00  0.00    -0.050 Br
BRANCH   8  12
ATOM     12  O   UNL     1       4.676  -0.804  -0.344  0.00  0.00    -0.506 OA
ATOM     13  H   UNL     1       5.037  -0.977   0.537  0.00  0.00    +0.292 HD
ENDBRANCH   8  12
ENDBRANCH   1   7
BRANCH   3  14
ATOM     14  C   UNL     1       4.902   4.275  -0.015  0.00  0.00    +0.128 C 
BRANCH  14  15
ATOM     15  C   UNL     1       4.390   5.614  -0.550  0.00  0.00    +0.016 C 
ATOM     16  C   UNL     1       3.162   6.048   0.252  0.00  0.00    +0.006 C 
ATOM     17  C   UNL     1       2.650   7.387  -0.283  0.00  0.00    +0.000 C 
ATOM     18  C   UNL     1       2.270   7.236  -1.757  0.00  0.00    +0.000 C 
ATOM     19  C   UNL     1       3.498   6.802  -2.559  0.00  0.00    +0.000 C 
ATOM     20  C   UNL     1       4.010   5.463  -2.024  0.00  0.00    +0.006 C 
ENDBRANCH  14  15
BRANCH  14  21
ATOM     21  C   UNL     1       5.328   4.438   1.421  0.00  0.00    +0.067 C 
ATOM     22  S   UNL     1       4.504   3.715   2.586  0.00  0.00    -0.039 S 
BRANCH  21  23
ATOM     23  N   UNL     1       6.402   5.192   1.724  0.00  0.00    -0.354 N 
ATOM     24  H   UNL     1       6.858   5.689   1.027  0.00  0.00    +0.143 HD
ATOM     25  H   UNL     1       6.720   5.239   2.640  0.00  0.00    +0.143 HD
ENDBRANCH  21  23
ENDBRANCH  14  21
ENDBRANCH   3  14
TORSDOF 6
