REMARK  Name = ZINC29811191
REMARK  8 active torsions:
REMARK  status: ('A' for Active; 'I' for Inactive)
REMARK    1  A    between atoms: C_1  and  C_2
REMARK    2  A    between atoms: C_2  and  C_4
REMARK    3  A    between atoms: C_2  and  N_16
REMARK    4  A    between atoms: N_6  and  C_7
REMARK    5  A    between atoms: N_16  and  C_17
REMARK    6  A    between atoms: C_20  and  N_23
REMARK    7  A    between atoms: N_26  and  C_27
REMARK    8  A    between atoms: C_27  and  C_28
REMARK                            x       y       z     vdW  Elec       q    Type
REMARK                         _______ _______ _______ _____ _____    ______ ____
ROOT
ATOM      1  N   UNL     1      -0.370   3.720  -0.597  0.00  0.00    -0.333 N 
ATOM      2  H   UNL     1       0.569   4.139  -0.986  0.00  0.00    +0.147 HD
ENDROOT
BRANCH   1   3
ATOM      3  C   UNL     1      -1.317   4.560   0.000  0.00  0.00    +0.028 A 
ATOM      4  C   UNL     1      -2.506   4.032   0.486  0.00  0.00    +0.025 A 
ATOM      5  C   UNL     1      -3.437   4.860   1.081  0.00  0.00    +0.025 A 
ATOM      6  C   UNL     1      -3.190   6.222   1.183  0.00  0.00    +0.035 A 
ATOM      7  C   UNL     1      -2.004   6.752   0.691  0.00  0.00    +0.025 A 
ATOM      8  C   UNL     1      -1.070   5.923   0.102  0.00  0.00    +0.025 A 
BRANCH   6   9
ATOM      9  N   UNL     1      -4.137   7.064   1.782  0.00  0.00    -0.269 N 
ATOM     10  C   UNL     1      -4.315   8.317   1.318  0.00  0.00    +0.304 C 
ATOM     11  O   UNL     1      -3.596   8.746   0.436  0.00  0.00    -0.253 OA
ATOM     12  N   UNL     1      -5.289   9.094   1.832  0.00  0.00    -0.296 N 
ATOM     13  H   UNL     1      -4.736   6.701   2.630  0.00  0.00    +0.156 HD
ATOM     14  H   UNL     1      -5.939   8.705   2.630  0.00  0.00    +0.151 HD
BRANCH  12  15
ATOM     15  C   UNL     1      -5.482  10.456   1.328  0.00  0.00    +0.132 C 
BRANCH  15  16
ATOM     16  C   UNL     1      -6.625  11.106   2.063  0.00  0.00    -0.016 C 
ATOM     17  C   UNL     1      -6.446  12.252   2.672  0.00  0.00    +0.005 C 
ENDBRANCH  15  16
ENDBRANCH  12  15
ENDBRANCH   6   9
ENDBRANCH   1   3
BRANCH   1  19
ATOM     18  C   UNL     1      -1.455   2.006  -1.963  0.00  0.00    +0.038 C 
ATOM     19  C   UNL     1      -0.631   2.282  -0.704  0.00  0.00    +0.154 C 
BRANCH  19  20
ATOM     20  C   UNL     1       0.677   1.539  -0.787  0.00  0.00    +0.237 C 
ATOM     21  O   UNL     1       1.725   2.151  -0.764  0.00  0.00    -0.273 OA
ATOM     22  N   UNL     1       0.684   0.196  -0.892  0.00  0.00    -0.284 N 
ATOM     23  H   UNL     1      -0.261  -0.365  -0.836  0.00  0.00    +0.155 HD
BRANCH  22  24
ATOM     24  C   UNL     1       1.894  -0.487  -1.072  0.00  0.00    +0.037 A 
ATOM     25  C   UNL     1       1.935  -1.631  -1.857  0.00  0.00    +0.027 A 
ATOM     26  C   UNL     1       3.129  -2.303  -2.040  0.00  0.00    +0.051 A 
ATOM     27  C   UNL     1       4.286  -1.843  -1.432  0.00  0.00    +0.166 A 
ATOM     28  C   UNL     1       4.247  -0.698  -0.639  0.00  0.00    +0.168 A 
ATOM     29  C   UNL     1       3.051  -0.023  -0.461  0.00  0.00    +0.072 A 
ATOM     30  O   UNL     1       5.502  -0.456  -0.160  0.00  0.00    -0.453 OA
ATOM     31  C   UNL     1       6.224  -1.689  -0.333  0.00  0.00    +0.466 C 
ATOM     32  O   UNL     1       5.567  -2.317  -1.449  0.00  0.00    -0.453 OA
ENDBRANCH  22  24
ENDBRANCH  19  20
ENDBRANCH   1  19
TORSDOF 7
