REMARK  Name = ZINC67500559
REMARK  11 active torsions:
REMARK  status: ('A' for Active; 'I' for Inactive)
REMARK    1  A    between atoms: C_1  and  C_2
REMARK    2  A    between atoms: C_2  and  C_4
REMARK    3  A    between atoms: C_2  and  C_18
REMARK    4  A    between atoms: C_4  and  N_5
REMARK    5  A    between atoms: N_5  and  C_6
REMARK    6  A    between atoms: C_6  and  C_7
REMARK    7  A    between atoms: C_10  and  O_14
REMARK    8  A    between atoms: O_14  and  C_15
REMARK    9  A    between atoms: C_15  and  C_16
REMARK   10  A    between atoms: C_16  and  O_17
REMARK   11  A    between atoms: C_18  and  N_19
REMARK                            x       y       z     vdW  Elec       q    Type
REMARK                         _______ _______ _______ _____ _____    ______ ____
ROOT
ATOM      1  N   UNL     1      -0.010  -0.139   2.447  0.00  0.00    +0.382 N 
ATOM      2  H   UNL     1      -0.096   0.865   2.494  0.00  0.00    -0.085 HD
ATOM      3  H   UNL     1      -0.929  -0.554   2.411  0.00  0.00    -0.085 HD
ENDROOT
BRANCH   1   4
ATOM      4  C   UNL     1       0.742  -0.511   1.242  0.00  0.00    -0.077 C 
BRANCH   4   6
ATOM      5  C   UNL     1      -0.019   1.526   0.010  0.00  0.00    +0.007 C 
ATOM      6  C   UNL     1       0.002  -0.004   0.002  0.00  0.00    -0.011 C 
BRANCH   6   7
ATOM      7  C   UNL     1       0.718  -0.497  -1.257  0.00  0.00    +0.124 C 
BRANCH   7   8
ATOM      8  N   UNL     1      -0.055  -0.114  -2.441  0.00  0.00    -0.338 N 
ATOM      9  C   UNL     1      -1.044  -0.848  -3.038  0.00  0.00    +0.104 A 
ATOM     10  C   UNL     1      -1.485  -0.128  -4.087  0.00  0.00    +0.101 A 
ATOM     11  N   UNL     1      -0.784   1.015  -4.129  0.00  0.00    -0.352 N 
ATOM     12  C   UNL     1       0.071   1.033  -3.143  0.00  0.00    +0.173 A 
ATOM     13  H   UNL     1      -0.897   1.719  -4.786  0.00  0.00    +0.166 HD
ENDBRANCH   7   8
ENDBRANCH   6   7
ENDBRANCH   4   6
ENDBRANCH   1   4
BRANCH   1  14
ATOM     14  C   UNL     1       0.700  -0.626   3.637  0.00  0.00    -0.046 C 
BRANCH  14  15
ATOM     15  C   UNL     1      -0.072  -0.244   4.874  0.00  0.00    -0.050 A 
ATOM     16  C   UNL     1       0.312   0.858   5.615  0.00  0.00    +0.006 A 
ATOM     17  C   UNL     1      -0.393   1.210   6.749  0.00  0.00    +0.046 A 
ATOM     18  C   UNL     1      -1.489   0.457   7.145  0.00  0.00    +0.122 A 
ATOM     19  C   UNL     1      -1.874  -0.649   6.400  0.00  0.00    +0.061 A 
ATOM     20  C   UNL     1      -1.167  -0.994   5.263  0.00  0.00    +0.023 A 
ATOM     21 BR   UNL     1      -1.694  -2.497   4.243  0.00  0.00    -0.050 Br
BRANCH  18  22
ATOM     22  O   UNL     1      -2.185   0.801   8.261  0.00  0.00    -0.490 OA
BRANCH  22  23
ATOM     23  C   UNL     1      -3.301  -0.020   8.608  0.00  0.00    +0.256 C 
BRANCH  23  24
ATOM     24  C   UNL     1      -3.954   0.519   9.883  0.00  0.00    +0.196 C 
BRANCH  24  25
ATOM     25  O   UNL     1      -4.502   1.814   9.626  0.00  0.00    -0.392 OA
ATOM     26  H   UNL     1      -4.932   2.218  10.392  0.00  0.00    +0.210 HD
ENDBRANCH  24  25
ENDBRANCH  23  24
ENDBRANCH  22  23
ENDBRANCH  18  22
ENDBRANCH  14  15
ENDBRANCH   1  14
TORSDOF 10
