REMARK  Name = ZINC32475423
REMARK  7 active torsions:
REMARK  status: ('A' for Active; 'I' for Inactive)
REMARK    1  A    between atoms: C_1  and  C_2
REMARK    2  A    between atoms: C_2  and  C_4
REMARK    3  A    between atoms: C_2  and  O_21
REMARK    4  A    between atoms: N_6  and  N_7
REMARK    5  A    between atoms: C_8  and  C_10
REMARK    6  A    between atoms: C_10  and  C_11
REMARK    7  A    between atoms: O_21  and  C_22
REMARK                            x       y       z     vdW  Elec       q    Type
REMARK                         _______ _______ _______ _____ _____    ______ ____
ROOT
ATOM      1  C   UNL     1      -1.210   1.631   0.261  0.00  0.00    +0.270 C 
ATOM      2  O   UNL     1      -1.257   2.830   0.435  0.00  0.00    -0.270 OA
ATOM      3  N   UNL     1      -0.024   0.992   0.290  0.00  0.00    -0.231 N 
ATOM      4  H   UNL     1       0.018  -0.097   0.136  0.00  0.00    +0.173 HD
ENDROOT
BRANCH   3   5
ATOM      5  N   UNL     1       1.155   1.713   0.516  0.00  0.00    -0.234 N 
ATOM      6  C   UNL     1       2.342   1.074   0.540  0.00  0.00    +0.230 C 
ATOM      7  O   UNL     1       2.388  -0.125   0.365  0.00  0.00    -0.274 OA
ATOM      8  H   UNL     1       1.113   2.800   0.674  0.00  0.00    +0.173 HD
BRANCH   6   9
ATOM      9  C   UNL     1       3.611   1.850   0.783  0.00  0.00    +0.104 C 
BRANCH   9  10
ATOM     10  C   UNL     1       4.805   0.894   0.760  0.00  0.00    -0.020 C 
ATOM     11  C   UNL     1       4.635  -0.162   1.855  0.00  0.00    +0.011 C 
ATOM     12  C   UNL     1       5.829  -1.117   1.831  0.00  0.00    -0.010 C 
ATOM     13  C   UNL     1       7.117  -0.330   2.079  0.00  0.00    +0.007 C 
ATOM     14  C   UNL     1       7.288   0.726   0.985  0.00  0.00    -0.010 C 
ATOM     15  C   UNL     1       6.093   1.682   1.008  0.00  0.00    +0.011 C 
ATOM     16  C   UNL     1       7.365   0.038  -0.380  0.00  0.00    +0.007 C 
ATOM     17  C   UNL     1       6.076  -0.749  -0.627  0.00  0.00    -0.010 C 
ATOM     18  C   UNL     1       5.906  -1.805   0.467  0.00  0.00    +0.007 C 
ATOM     19  C   UNL     1       4.882   0.206  -0.604  0.00  0.00    +0.011 C 
ENDBRANCH   9  10
ENDBRANCH   6   9
ENDBRANCH   3   5
BRANCH   1  21
ATOM     20  C   UNL     1      -2.720  -0.114   1.169  0.00  0.00    +0.062 C 
ATOM     21  C   UNL     1      -2.478   0.856   0.011  0.00  0.00    +0.257 C 
BRANCH  21  22
ATOM     22  O   UNL     1      -3.579   1.763  -0.089  0.00  0.00    -0.479 OA
BRANCH  22  23
ATOM     23  C   UNL     1      -4.660   1.345  -0.800  0.00  0.00    +0.136 A 
ATOM     24  C   UNL     1      -4.708   0.050  -1.294  0.00  0.00    +0.049 A 
ATOM     25  C   UNL     1      -5.809  -0.374  -2.012  0.00  0.00    +0.042 A 
ATOM     26  C   UNL     1      -6.860   0.496  -2.248  0.00  0.00    +0.125 A 
ATOM     27  C   UNL     1      -6.812   1.791  -1.761  0.00  0.00    +0.057 A 
ATOM     28  C   UNL     1      -5.713   2.217  -1.037  0.00  0.00    +0.062 A 
ATOM     29 BR   UNL     1      -5.647   3.985  -0.371  0.00  0.00    -0.046 Br
ATOM     30  F   UNL     1      -7.934   0.081  -2.955  0.00  0.00    -0.205 F 
ENDBRANCH  22  23
ENDBRANCH  21  22
ENDBRANCH   1  21
TORSDOF 6
