REMARK  Name = ZINC41895589
REMARK  6 active torsions:
REMARK  status: ('A' for Active; 'I' for Inactive)
REMARK    1  A    between atoms: C_1  and  C_2
REMARK    2  A    between atoms: C_2  and  C_21
REMARK    3  A    between atoms: N_5  and  C_9
REMARK    4  A    between atoms: C_9  and  C_10
REMARK    5  A    between atoms: C_9  and  C_11
REMARK    6  A    between atoms: C_9  and  C_18
REMARK                            x       y       z     vdW  Elec       q    Type
REMARK                         _______ _______ _______ _____ _____    ______ ____
ROOT
ATOM      1  C   UNL     1      -2.593  -1.987   1.771  0.00  0.00    +0.169 C 
ATOM      2  C   UNL     1      -2.718  -2.936   0.578  0.00  0.00    +0.050 C 
ENDROOT
BRANCH   1   7
ATOM      3  C   UNL     1      -0.154   1.254  -0.598  0.00  0.00    +0.041 C 
ATOM      4  C   UNL     1       0.103   0.238   0.516  0.00  0.00    +0.107 C 
ATOM      5  C   UNL     1      -0.815  -0.959   0.370  0.00  0.00    +0.247 C 
ATOM      6  O   UNL     1      -0.867  -1.732  -0.562  0.00  0.00    -0.273 OA
ATOM      7  N   UNL     1      -1.562  -0.984   1.491  0.00  0.00    -0.203 N 
ATOM      8  C   UNL     1      -1.246   0.020   2.317  0.00  0.00    +0.311 C 
ATOM      9  O   UNL     1      -1.783   0.205   3.392  0.00  0.00    -0.252 OA
ATOM     10  N   UNL     1      -0.267   0.801   1.826  0.00  0.00    -0.285 N 
ATOM     11  C   UNL     1       1.569  -0.201   0.514  0.00  0.00    +0.041 C 
ATOM     12  H   UNL     1       0.119   1.582   2.252  0.00  0.00    +0.151 HD
ENDBRANCH   1   7
BRANCH   1  13
ATOM     13  C   UNL     1      -2.211  -2.771   3.000  0.00  0.00    -0.012 A 
ATOM     14  C   UNL     1      -0.940  -2.647   3.531  0.00  0.00    +0.006 A 
ATOM     15  C   UNL     1      -0.589  -3.367   4.658  0.00  0.00    +0.001 A 
ATOM     16  C   UNL     1      -1.507  -4.211   5.254  0.00  0.00    +0.015 A 
ATOM     17  C   UNL     1      -2.778  -4.335   4.723  0.00  0.00    +0.018 A 
ATOM     18  C   UNL     1      -3.131  -3.611   3.598  0.00  0.00    +0.021 A 
ATOM     19 BR   UNL     1      -4.035  -5.490   5.537  0.00  0.00    -0.050 Br
ENDBRANCH   1  13
BRANCH   1  20
ATOM     20  C   UNL     1      -3.913  -1.298   2.006  0.00  0.00    +0.384 C 
ATOM     21  O   UNL     1      -3.986  -0.083   1.945  0.00  0.00    -0.244 OA
ATOM     22  O   UNL     1      -4.908  -1.956   2.256  0.00  0.00    -0.244 OA
ENDBRANCH   1  20
TORSDOF 3
