REMARK  Name = ZINC08817381
REMARK  8 active torsions:
REMARK  status: ('A' for Active; 'I' for Inactive)
REMARK    1  A    between atoms: C_1  and  N_2
REMARK    2  A    between atoms: N_2  and  C_3
REMARK    3  A    between atoms: N_2  and  C_4
REMARK    4  A    between atoms: C_7  and  C_10
REMARK    5  A    between atoms: N_11  and  N_12
REMARK    6  A    between atoms: C_13  and  C_15
REMARK    7  A    between atoms: C_15  and  N_76
REMARK    8  A    between atoms: C_22  and  C_32
REMARK                            x       y       z     vdW  Elec       q    Type
REMARK                         _______ _______ _______ _____ _____    ______ ____
ROOT
ATOM      1  C   UNL     1      -4.003   3.864   7.007  0.00  0.00    -0.055 C 
ATOM      2  C   UNL     1      -2.589   3.376   6.671  0.00  0.00    +0.103 C 
ATOM      3  N   UNL     1      -2.501   3.199   5.213  0.00  0.00    -0.347 N 
ATOM      4  C   UNL     1      -1.578   2.533   4.463  0.00  0.00    +0.049 A 
ATOM      5  C   UNL     1      -0.454   1.790   4.815  0.00  0.00    +0.027 A 
ATOM      6  C   UNL     1       0.283   1.232   3.786  0.00  0.00    +0.006 A 
ATOM      7  C   UNL     1      -0.061   1.403   2.455  0.00  0.00    -0.044 A 
ATOM      8  C   UNL     1      -1.161   2.129   2.075  0.00  0.00    +0.014 A 
ATOM      9  C   UNL     1      -1.933   2.701   3.091  0.00  0.00    +0.003 A 
ATOM     10  C   UNL     1      -3.124   3.506   3.085  0.00  0.00    -0.020 A 
ATOM     11  C   UNL     1      -3.431   3.747   4.375  0.00  0.00    +0.009 A 
ATOM     12  C   UNL     1      -4.642   4.560   4.772  0.00  0.00    -0.020 C 
ATOM     13  C   UNL     1      -4.737   5.756   3.839  0.00  0.00    -0.009 C 
ATOM     14  C   UNL     1      -4.395   5.504   2.391  0.00  0.00    +0.003 C 
ATOM     15  C   UNL     1      -4.002   4.084   2.009  0.00  0.00    +0.037 C 
ATOM     16  N   UNL     1      -4.369   5.019   6.159  0.00  0.00    +0.392 N 
ATOM     17  H   UNL     1      -3.586   5.683   6.143  0.00  0.00    -0.080 HD
ENDROOT
BRANCH   7  18
ATOM     18  C   UNL     1       0.797   0.768   1.391  0.00  0.00    +0.019 C 
ATOM     19  C   UNL     1       2.221   1.320   1.489  0.00  0.00    +0.008 C 
ATOM     20  C   UNL     1       3.093   0.675   0.409  0.00  0.00    +0.001 C 
ATOM     21  C   UNL     1       3.118  -0.841   0.612  0.00  0.00    +0.000 C 
ATOM     22  C   UNL     1       1.694  -1.393   0.515  0.00  0.00    +0.001 C 
ATOM     23  C   UNL     1       0.823  -0.748   1.594  0.00  0.00    +0.008 C 
ENDBRANCH   7  18
BRANCH  16  24
ATOM     24  C   UNL     1      -5.561   5.695   6.712  0.00  0.00    +0.021 C 
BRANCH  24  26
ATOM     25  N   UNL     1      -7.854   5.109   7.433  0.00  0.00    -0.209 N 
ATOM     26  C   UNL     1      -6.707   4.725   6.837  0.00  0.00    +0.216 C 
ATOM     27  O   UNL     1      -6.598   3.598   6.401  0.00  0.00    -0.276 OA
ATOM     28  H   UNL     1      -7.941   6.010   7.781  0.00  0.00    +0.177 HD
BRANCH  25  30
ATOM     29  C   UNL     1     -10.023   4.577   8.123  0.00  0.00    +0.138 C 
ATOM     30  N   UNL     1      -8.919   4.207   7.549  0.00  0.00    -0.188 NA
BRANCH  29  34
ATOM     31  C   UNL     1     -13.252   1.843   8.475  0.00  0.00    +0.029 A 
ATOM     32  C   UNL     1     -13.379   3.134   8.976  0.00  0.00    +0.024 A 
ATOM     33  C   UNL     1     -12.334   4.024   8.863  0.00  0.00    +0.011 A 
ATOM     34  C   UNL     1     -11.144   3.627   8.245  0.00  0.00    -0.005 A 
ATOM     35  C   UNL     1     -11.022   2.330   7.739  0.00  0.00    +0.011 A 
ATOM     36  C   UNL     1     -12.070   1.445   7.859  0.00  0.00    +0.024 A 
BRANCH  31  38
ATOM     37  C   UNL     1     -15.559   1.362   9.238  0.00  0.00    +0.129 C 
ATOM     38  N   UNL     1     -14.313   0.945   8.590  0.00  0.00    -0.336 N 
ATOM     39  C   UNL     1     -14.182  -0.416   8.064  0.00  0.00    +0.129 C 
ENDBRANCH  31  38
ENDBRANCH  29  34
ENDBRANCH  25  30
ENDBRANCH  24  26
ENDBRANCH  16  24
TORSDOF 6
