REMARK  Name = ZINC39670797
REMARK  7 active torsions:
REMARK  status: ('A' for Active; 'I' for Inactive)
REMARK    1  A    between atoms: C_1  and  C_2
REMARK    2  A    between atoms: C_9  and  C_11
REMARK    3  A    between atoms: C_11  and  N_12
REMARK    4  A    between atoms: C_13  and  C_15
REMARK    5  A    between atoms: C_26  and  C_28
REMARK    6  A    between atoms: C_30  and  C_37
REMARK    7  A    between atoms: C_32  and  C_33
REMARK                            x       y       z     vdW  Elec       q    Type
REMARK                         _______ _______ _______ _____ _____    ______ ____
ROOT
ATOM      1  C   UNL     1      -2.876  -1.773   7.072  0.00  0.00    +0.100 C 
ATOM      2  C   UNL     1      -3.569  -3.050   6.546  0.00  0.00    +0.121 C 
ATOM      3  N   UNL     1      -3.320  -4.069   7.593  0.00  0.00    -0.296 N 
ATOM      4  C   UNL     1      -3.463  -3.329   8.869  0.00  0.00    +0.115 C 
ATOM      5  C   UNL     1      -2.811  -1.958   8.597  0.00  0.00    -0.004 C 
ATOM      6  C   UNL     1      -3.595  -0.852   9.298  0.00  0.00    -0.010 C 
ATOM      7  C   UNL     1      -3.467  -1.024  10.814  0.00  0.00    -0.082 C 
ATOM      8  N   UNL     1      -2.052  -0.966  11.198  0.00  0.00    +0.379 N 
ATOM      9  C   UNL     1      -1.323  -2.088  10.594  0.00  0.00    -0.082 C 
ATOM     10  C   UNL     1      -1.360  -1.962   9.068  0.00  0.00    -0.010 C 
ATOM     11  C   UNL     1      -3.030  -5.374   7.423  0.00  0.00    +0.250 C 
ATOM     12  O   UNL     1      -2.834  -5.812   6.305  0.00  0.00    -0.270 OA
ATOM     13  H   UNL     1      -1.653  -0.097  10.877  0.00  0.00    -0.086 HD
ATOM     14  H   UNL     1      -1.974  -1.019  12.202  0.00  0.00    -0.086 HD
ENDROOT
BRANCH  11  15
ATOM     15  C   UNL     1      -2.952  -6.270   8.590  0.00  0.00    +0.087 A 
ATOM     16  C   UNL     1      -3.299  -5.948   9.982  0.00  0.00    +0.058 A 
ATOM     17  C   UNL     1      -3.069  -7.066  10.687  0.00  0.00    +0.103 A 
ATOM     18  O   UNL     1      -2.620  -8.023   9.861  0.00  0.00    -0.455 OA
ATOM     19  C   UNL     1      -2.547  -7.572   8.604  0.00  0.00    +0.220 A 
ATOM     20  C   UNL     1      -3.281  -7.222  12.171  0.00  0.00    +0.086 C 
BRANCH  19  21
ATOM     21  C   UNL     1      -2.091  -8.367   7.408  0.00  0.00    +0.451 C 
ATOM     22  F   UNL     1      -0.709  -8.224   7.252  0.00  0.00    -0.163 F 
ATOM     23  F   UNL     1      -2.402  -9.717   7.599  0.00  0.00    -0.163 F 
ATOM     24  F   UNL     1      -2.741  -7.897   6.261  0.00  0.00    -0.163 F 
ENDBRANCH  19  21
ENDBRANCH  11  15
BRANCH   1  26
ATOM     25  N   UNL     1      -0.943  -0.440   6.292  0.00  0.00    -0.309 N 
ATOM     26  C   UNL     1      -1.487  -1.656   6.498  0.00  0.00    +0.219 C 
ATOM     27  O   UNL     1      -0.859  -2.656   6.222  0.00  0.00    -0.275 OA
ATOM     28  H   UNL     1      -1.446   0.360   6.513  0.00  0.00    +0.149 HD
BRANCH  25  29
ATOM     29  C   UNL     1       0.407  -0.326   5.735  0.00  0.00    +0.159 C 
BRANCH  29  38
ATOM     30  C   UNL     1       2.883   4.212   7.832  0.00  0.00    +0.064 C 
ATOM     31  C   UNL     1       2.186   4.248   6.496  0.00  0.00    +0.022 A 
ATOM     32  C   UNL     1       2.161   5.396   5.786  0.00  0.00    +0.021 A 
ATOM     33  C   UNL     1       1.516   5.444   4.539  0.00  0.00    +0.005 A 
ATOM     34  C   UNL     1       0.914   4.327   4.048  0.00  0.00    +0.045 A 
ATOM     35  C   UNL     1       0.948   3.136   4.802  0.00  0.00    +0.116 A 
ATOM     36  N   UNL     1       1.590   3.119   6.013  0.00  0.00    -0.305 N 
ATOM     37  C   UNL     1       1.472   1.850   6.511  0.00  0.00    +0.115 A 
ATOM     38  C   UNL     1       0.775   1.129   5.605  0.00  0.00    +0.051 A 
ATOM     39  N   UNL     1       0.459   1.925   4.580  0.00  0.00    -0.342 N 
ATOM     40  H   UNL     1      -0.041   1.656   3.793  0.00  0.00    +0.167 HD
ENDBRANCH  29  38
ENDBRANCH  25  29
ENDBRANCH   1  26
TORSDOF 5
