REMARK  Name = ZINC05793952
REMARK  5 active torsions:
REMARK  status: ('A' for Active; 'I' for Inactive)
REMARK    1  A    between atoms: C_1  and  C_2
REMARK    2  A    between atoms: C_5  and  C_8
REMARK    3  A    between atoms: N_9  and  N_10
REMARK    4  A    between atoms: C_11  and  C_13
REMARK    5  A    between atoms: C_14  and  C_18
REMARK                            x       y       z     vdW  Elec       q    Type
REMARK                         _______ _______ _______ _____ _____    ______ ____
ROOT
ATOM      1  N   UNL     1       2.960   3.624  -0.007  0.00  0.00    -0.202 N 
ATOM      2  C   UNL     1       1.653   3.293   0.004  0.00  0.00    +0.273 C 
ATOM      3  O   UNL     1       0.805   4.165   0.016  0.00  0.00    -0.268 OA
ATOM      4  H   UNL     1       3.636   2.928  -0.017  0.00  0.00    +0.178 HD
ENDROOT
BRANCH   2   5
ATOM      5  C   UNL     1       1.253   1.877   0.000  0.00  0.00    +0.118 A 
ATOM      6  C   UNL     1      -0.016   1.307   0.009  0.00  0.00    +0.081 A 
ATOM      7  N   UNL     1       0.002  -0.004   0.002  0.00  0.00    -0.146 NA
ATOM      8  N   UNL     1       1.097  -0.672  -0.012  0.00  0.00    -0.110 NA
ATOM      9  S   UNL     1       2.256   0.402  -0.017  0.00  0.00    +0.042 S 
ATOM     10  C   UNL     1      -1.286   2.118   0.020  0.00  0.00    +0.069 C 
ENDBRANCH   2   5
BRANCH   1  12
ATOM     11  C   UNL     1       4.599   5.290  -0.014  0.00  0.00    +0.138 C 
ATOM     12  N   UNL     1       3.341   4.972  -0.004  0.00  0.00    -0.187 NA
BRANCH  11  17
ATOM     13  C   UNL     1       6.165  10.824  -0.003  0.00  0.00    +0.044 C 
ATOM     14  C   UNL     1       5.755   9.374  -0.006  0.00  0.00    -0.050 A 
ATOM     15  C   UNL     1       6.722   8.385  -0.019  0.00  0.00    +0.004 A 
ATOM     16  C   UNL     1       6.354   7.056  -0.022  0.00  0.00    +0.010 A 
ATOM     17  C   UNL     1       5.001   6.709  -0.011  0.00  0.00    -0.005 A 
ATOM     18  C   UNL     1       4.029   7.713  -0.002  0.00  0.00    +0.010 A 
ATOM     19  C   UNL     1       4.412   9.038   0.005  0.00  0.00    +0.004 A 
ENDBRANCH  11  17
ENDBRANCH   1  12
TORSDOF 3
