REMARK  Name = ZINC66594856
REMARK  9 active torsions:
REMARK  status: ('A' for Active; 'I' for Inactive)
REMARK    1  A    between atoms: C_1  and  C_2
REMARK    2  A    between atoms: C_2  and  N_19
REMARK    3  A    between atoms: C_14  and  C_16
REMARK    4  A    between atoms: N_19  and  C_20
REMARK    5  A    between atoms: C_21  and  O_23
REMARK    6  A    between atoms: O_23  and  C_24
REMARK    7  A    between atoms: C_24  and  C_25
REMARK    8  A    between atoms: C_24  and  C_26
REMARK    9  A    between atoms: C_24  and  C_27
REMARK                            x       y       z     vdW  Elec       q    Type
REMARK                         _______ _______ _______ _____ _____    ______ ____
ROOT
ATOM      1  C   UNL     1       0.249   1.737  -0.261  0.00  0.00    +0.032 C 
ATOM      2  C   UNL     1       0.152   0.224  -0.049  0.00  0.00    +0.040 C 
ATOM      3  C   UNL     1      -1.316  -0.176   0.109  0.00  0.00    +0.045 C 
ATOM      4  C   UNL     1      -1.412  -1.694   0.287  0.00  0.00    +0.111 C 
ATOM      5  N   UNL     1      -0.553  -2.094   1.411  0.00  0.00    -0.285 N 
ATOM      6  C   UNL     1       0.857  -1.682   1.403  0.00  0.00    +0.111 C 
ATOM      7  C   UNL     1       0.927  -0.164   1.213  0.00  0.00    +0.045 C 
ATOM      8  C   UNL     1      -1.051  -2.823   2.429  0.00  0.00    +0.308 C 
ATOM      9  O   UNL     1      -2.193  -3.236   2.380  0.00  0.00    -0.252 OA
ATOM     10  N   UNL     1      -0.281  -3.095   3.502  0.00  0.00    -0.247 N 
ATOM     11  C   UNL     1      -0.757  -3.934   4.503  0.00  0.00    +0.189 A 
ATOM     12  N   UNL     1      -1.915  -4.559   4.585  0.00  0.00    -0.126 NA
ATOM     13  N   UNL     1      -2.208  -5.297   5.568  0.00  0.00    -0.144 NA
ATOM     14  C   UNL     1      -1.332  -5.448   6.540  0.00  0.00    +0.107 A 
ATOM     15  S   UNL     1       0.000  -4.425   5.928  0.00  0.00    -0.035 S 
ATOM     16  H   UNL     1       0.604  -2.706   3.575  0.00  0.00    +0.158 HD
ENDROOT
BRANCH   2  17
ATOM     17  N   UNL     1       0.725  -0.468  -1.205  0.00  0.00    -0.265 N 
ATOM     18  C   UNL     1       1.986  -1.201  -1.070  0.00  0.00    +0.136 C 
ATOM     19  C   UNL     1       0.092  -0.431  -2.394  0.00  0.00    +0.404 C 
ATOM     20  O   UNL     1      -0.954   0.176  -2.507  0.00  0.00    -0.226 OA
BRANCH  19  21
ATOM     21  O   UNL     1       0.618  -1.068  -3.458  0.00  0.00    -0.445 OA
BRANCH  21  22
ATOM     22  C   UNL     1      -0.106  -0.987  -4.686  0.00  0.00    +0.107 C 
ATOM     23  C   UNL     1      -0.235   0.478  -5.107  0.00  0.00    +0.055 C 
ATOM     24  C   UNL     1       0.641  -1.765  -5.771  0.00  0.00    +0.055 C 
ATOM     25  C   UNL     1      -1.501  -1.587  -4.497  0.00  0.00    +0.055 C 
ENDBRANCH  21  22
ENDBRANCH  19  21
ENDBRANCH   2  17
BRANCH  14  26
ATOM     26  C   UNL     1      -1.424  -6.257   7.808  0.00  0.00    +0.047 C 
ATOM     27  C   UNL     1      -2.620  -7.200   7.959  0.00  0.00    +0.011 C 
ATOM     28  C   UNL     1      -2.550  -5.914   8.785  0.00  0.00    +0.011 C 
ENDBRANCH  14  26
TORSDOF 4
