REMARK  Name = ZINC49181553
REMARK  14 active torsions:
REMARK  status: ('A' for Active; 'I' for Inactive)
REMARK    1  A    between atoms: C_1  and  C_2
REMARK    2  A    between atoms: C_2  and  C_32
REMARK    3  A    between atoms: C_3  and  C_4
REMARK    4  A    between atoms: C_4  and  C_5
REMARK    5  A    between atoms: C_6  and  O_31
REMARK    6  A    between atoms: C_10  and  C_23
REMARK    7  A    between atoms: C_14  and  C_18
REMARK    8  A    between atoms: C_15  and  O_16
REMARK    9  A    between atoms: O_16  and  C_17
REMARK   10  A    between atoms: C_18  and  C_19
REMARK   11  A    between atoms: C_20  and  C_21
REMARK   12  A    between atoms: C_20  and  C_22
REMARK   13  A    between atoms: C_26  and  O_30
REMARK   14  A    between atoms: C_28  and  O_29
REMARK                            x       y       z     vdW  Elec       q    Type
REMARK                         _______ _______ _______ _____ _____    ______ ____
ROOT
ATOM      1  C   UNL     1      -0.403  -0.685   3.003  0.00  0.00    +0.041 A 
ATOM      2  C   UNL     1      -1.716  -0.411   3.341  0.00  0.00    +0.138 A 
ATOM      3  C   UNL     1      -2.238  -0.916   4.538  0.00  0.00    +0.107 A 
ATOM      4  C   UNL     1      -3.623  -0.635   4.951  0.00  0.00    +0.204 A 
ATOM      5  O   UNL     1      -4.440  -0.152   4.185  0.00  0.00    -0.286 OA
ATOM      6  C   UNL     1      -3.963  -0.974   6.346  0.00  0.00    +0.068 A 
ATOM      7  C   UNL     1      -3.091  -1.740   7.051  0.00  0.00    +0.208 A 
ATOM      8  O   UNL     1      -1.954  -2.207   6.528  0.00  0.00    -0.462 OA
ATOM      9  C   UNL     1      -1.442  -1.707   5.386  0.00  0.00    +0.149 A 
ATOM     10  C   UNL     1      -0.127  -1.968   5.029  0.00  0.00    +0.041 A 
ATOM     11  C   UNL     1       0.385  -1.463   3.844  0.00  0.00    +0.134 A 
ENDROOT
BRANCH   6  12
ATOM     12  C   UNL     1      -5.222  -0.490   6.963  0.00  0.00    +0.030 A 
ATOM     13  C   UNL     1      -5.344   0.844   7.348  0.00  0.00    +0.016 A 
ATOM     14  C   UNL     1      -6.516   1.291   7.921  0.00  0.00    +0.046 A 
ATOM     15  C   UNL     1      -7.577   0.416   8.116  0.00  0.00    +0.120 A 
ATOM     16  C   UNL     1      -7.463  -0.913   7.735  0.00  0.00    +0.091 A 
ATOM     17  C   UNL     1      -6.293  -1.369   7.154  0.00  0.00    +0.128 A 
BRANCH  17  18
ATOM     18  O   UNL     1      -6.182  -2.669   6.775  0.00  0.00    -0.506 OA
ATOM     19  H   UNL     1      -5.837  -3.252   7.466  0.00  0.00    +0.292 HD
ENDBRANCH  17  18
BRANCH  15  20
ATOM     20  O   UNL     1      -8.729   0.863   8.681  0.00  0.00    -0.507 OA
ATOM     21  H   UNL     1      -9.377   1.195   8.044  0.00  0.00    +0.292 HD
ENDBRANCH  15  20
ENDBRANCH   6  12
BRANCH  11  22
ATOM     22  O   UNL     1       1.672  -1.728   3.503  0.00  0.00    -0.494 OA
ATOM     23  C   UNL     1       2.666  -0.806   3.956  0.00  0.00    +0.277 C 
ENDBRANCH  11  22
BRANCH   2  24
ATOM     24  O   UNL     1      -2.490   0.342   2.520  0.00  0.00    -0.506 OA
ATOM     25  H   UNL     1      -2.976  -0.171   1.859  0.00  0.00    +0.292 HD
ENDBRANCH   2  24
BRANCH   1  26
ATOM     26  C   UNL     1       0.173  -0.144   1.720  0.00  0.00    +0.069 C 
BRANCH  26  29
ATOM     27  C   UNL     1      -1.149   0.667  -0.632  0.00  0.00    +0.038 C 
ATOM     28  C   UNL     1      -0.676  -0.756  -0.486  0.00  0.00    -0.079 C 
ATOM     29  C   UNL     1      -0.061  -1.133   0.608  0.00  0.00    -0.023 C 
ATOM     30  C   UNL     1      -0.911  -1.746  -1.598  0.00  0.00    +0.038 C 
ENDBRANCH  26  29
ENDBRANCH   1  26
BRANCH  10  31
ATOM     31  C   UNL     1       0.745  -2.806   5.929  0.00  0.00    +0.069 C 
BRANCH  31  32
ATOM     32  C   UNL     1       0.617  -4.257   5.542  0.00  0.00    -0.023 C 
ATOM     33  C   UNL     1       0.308  -5.151   6.448  0.00  0.00    -0.079 C 
ATOM     34  C   UNL     1       0.245  -4.760   7.902  0.00  0.00    +0.038 C 
ATOM     35  C   UNL     1       0.017  -6.571   6.037  0.00  0.00    +0.038 C 
ENDBRANCH  31  32
ENDBRANCH  10  31
TORSDOF 9
