REMARK  Name = ZINC60015730
REMARK  15 active torsions:
REMARK  status: ('A' for Active; 'I' for Inactive)
REMARK    1  A    between atoms: C_1  and  C_2
REMARK    2  A    between atoms: C_5  and  S_8
REMARK    3  A    between atoms: S_8  and  N_11
REMARK    4  A    between atoms: N_11  and  C_12
REMARK    5  A    between atoms: C_12  and  C_14
REMARK    6  A    between atoms: C_12  and  C_18
REMARK    7  A    between atoms: C_14  and  C_15
REMARK    8  A    between atoms: C_15  and  S_16
REMARK    9  A    between atoms: S_16  and  C_17
REMARK   10  A    between atoms: N_20  and  C_21
REMARK   11  A    between atoms: C_21  and  C_23
REMARK   12  A    between atoms: C_21  and  C_24
REMARK   13  A    between atoms: C_24  and  N_25
REMARK   14  A    between atoms: C_27  and  C_34
REMARK   15  A    between atoms: C_30  and  C_33
REMARK                            x       y       z     vdW  Elec       q    Type
REMARK                         _______ _______ _______ _____ _____    ______ ____
ROOT
ATOM      1  C   UNL     1       2.630  -5.452   1.037  0.00  0.00    +0.163 C 
ENDROOT
BRANCH   1   2
ATOM      2  C   UNL     1       3.832  -6.361   1.047  0.00  0.00    +0.232 C 
ATOM      3  O   UNL     1       3.876  -7.316   0.300  0.00  0.00    -0.274 OA
ATOM      4  N   UNL     1       4.857  -6.114   1.886  0.00  0.00    -0.313 N 
ATOM      5  H   UNL     1       4.821  -5.351   2.483  0.00  0.00    +0.149 HD
BRANCH   4   6
ATOM      6  C   UNL     1       6.025  -6.998   1.896  0.00  0.00    +0.053 C 
ATOM      7  C   UNL     1       7.038  -6.516   0.855  0.00  0.00    +0.026 C 
BRANCH   6   8
ATOM      8  C   UNL     1       6.670  -6.975   3.283  0.00  0.00    -0.057 C 
BRANCH   8   9
ATOM      9  N   UNL     1       5.668  -7.333   4.295  0.00  0.00    +0.381 N 
ATOM     10  C   UNL     1       6.248  -7.174   5.634  0.00  0.00    -0.076 C 
ATOM     11  C   UNL     1       5.184  -7.467   6.694  0.00  0.00    -0.031 C 
ATOM     12  C   UNL     1       4.682  -8.904   6.521  0.00  0.00    +0.003 C 
ATOM     13  C   UNL     1       4.147  -9.079   5.096  0.00  0.00    -0.031 C 
ATOM     14  C   UNL     1       5.250  -8.726   4.096  0.00  0.00    -0.076 C 
ATOM     15  C   UNL     1       3.714 -10.532   4.889  0.00  0.00    +0.005 C 
ATOM     16  C   UNL     1       5.791  -7.302   8.088  0.00  0.00    +0.005 C 
ATOM     17  H   UNL     1       4.867  -6.726   4.204  0.00  0.00    -0.082 HD
ENDBRANCH   8   9
ENDBRANCH   6   8
ENDBRANCH   4   6
ENDBRANCH   1   2
BRANCH   1  18
ATOM     18  N   UNL     1       1.663  -5.931   0.046  0.00  0.00    -0.178 NA
ATOM     19  H   UNL     1       1.762  -5.685  -0.887  0.00  0.00    +0.149 HD
BRANCH  18  20
ATOM     20  S   UNL     1       0.402  -6.895   0.518  0.00  0.00    +0.059 S 
ATOM     21  O   UNL     1       0.958  -7.930   1.316  0.00  0.00    -0.153 OA
ATOM     22  O   UNL     1      -0.365  -7.160  -0.648  0.00  0.00    -0.153 OA
BRANCH  20  27
ATOM     23  C   UNL     1      -3.095  -3.597   4.165  0.00  0.00    +0.044 C 
ATOM     24  C   UNL     1      -2.222  -4.421   3.254  0.00  0.00    -0.050 A 
ATOM     25  C   UNL     1      -2.511  -4.500   1.905  0.00  0.00    +0.005 A 
ATOM     26  C   UNL     1      -1.710  -5.255   1.069  0.00  0.00    +0.029 A 
ATOM     27  C   UNL     1      -0.619  -5.931   1.583  0.00  0.00    +0.105 A 
ATOM     28  C   UNL     1      -0.329  -5.851   2.932  0.00  0.00    +0.029 A 
ATOM     29  C   UNL     1      -1.128  -5.093   3.767  0.00  0.00    +0.005 A 
ENDBRANCH  20  27
ENDBRANCH  18  20
ENDBRANCH   1  18
BRANCH   1  30
ATOM     30  C   UNL     1       3.068  -4.031   0.676  0.00  0.00    +0.040 C 
BRANCH  30  31
ATOM     31  C   UNL     1       1.866  -3.089   0.763  0.00  0.00    +0.071 C 
BRANCH  31  32
ATOM     32  S   UNL     1       2.353  -1.435   0.200  0.00  0.00    -0.164 S 
ATOM     33  C   UNL     1       0.882  -0.417   0.505  0.00  0.00    +0.084 C 
ENDBRANCH  31  32
ENDBRANCH  30  31
ENDBRANCH   1  30
TORSDOF 10
