REMARK  Name = ZINC36621340
REMARK  10 active torsions:
REMARK  status: ('A' for Active; 'I' for Inactive)
REMARK    1  A    between atoms: C_1  and  C_2
REMARK    2  A    between atoms: C_2  and  S_3
REMARK    3  A    between atoms: S_3  and  C_4
REMARK    4  A    between atoms: C_9  and  C_27
REMARK    5  A    between atoms: C_11  and  C_17
REMARK    6  A    between atoms: C_13  and  C_16
REMARK    7  A    between atoms: N_19  and  C_20
REMARK    8  A    between atoms: C_25  and  C_26
REMARK    9  A    between atoms: N_29  and  C_33
REMARK   10  A    between atoms: C_31  and  C_32
REMARK                            x       y       z     vdW  Elec       q    Type
REMARK                         _______ _______ _______ _____ _____    ______ ____
ROOT
ATOM      1  C   UNL     1      -1.490  -2.387   0.044  0.00  0.00    +0.210 A 
ATOM      2  N   UNL     1      -0.322  -3.046   0.036  0.00  0.00    -0.188 NA
ATOM      3  C   UNL     1      -0.547  -4.332   0.023  0.00  0.00    +0.215 A 
ATOM      4  N   UNL     1      -1.888  -4.526   0.018  0.00  0.00    -0.224 N 
ATOM      5  N   UNL     1      -2.474  -3.259   0.038  0.00  0.00    -0.141 NA
ATOM      6  C   UNL     1      -2.531  -5.840  -0.000  0.00  0.00    +0.157 C 
ATOM      7  C   UNL     1      -1.514  -6.881  -0.484  0.00  0.00    +0.124 C 
ATOM      8  C   UNL     1      -0.203  -6.725   0.294  0.00  0.00    +0.084 C 
ATOM      9  N   UNL     1       0.355  -5.388   0.014  0.00  0.00    -0.310 N 
ATOM     10  C   UNL     1      -0.476  -6.868   1.793  0.00  0.00    +0.028 C 
ATOM     11  H   UNL     1       1.298  -5.254  -0.166  0.00  0.00    +0.149 HD
ENDROOT
BRANCH   6  12
ATOM     12  C   UNL     1      -3.712  -5.810  -0.936  0.00  0.00    +0.018 A 
ATOM     13  C   UNL     1      -3.672  -5.539  -2.261  0.00  0.00    +0.114 A 
ATOM     14  N   UNL     1      -4.934  -5.614  -2.734  0.00  0.00    -0.274 N 
ATOM     15  N   UNL     1      -5.777  -5.941  -1.665  0.00  0.00    -0.176 NA
ATOM     16  C   UNL     1      -5.043  -6.064  -0.588  0.00  0.00    +0.065 A 
ATOM     17  C   UNL     1      -5.546  -6.415   0.788  0.00  0.00    +0.068 C 
ATOM     18  C   UNL     1      -5.348  -5.391  -4.122  0.00  0.00    +0.172 C 
ENDBRANCH   6  12
BRANCH   7  19
ATOM     19  C   UNL     1      -2.068  -8.264  -0.259  0.00  0.00    +0.224 C 
ATOM     20  O   UNL     1      -3.165  -8.405   0.238  0.00  0.00    -0.275 OA
ATOM     21  N   UNL     1      -1.344  -9.345  -0.611  0.00  0.00    -0.285 N 
ATOM     22  H   UNL     1      -0.503  -9.234  -1.081  0.00  0.00    +0.155 HD
BRANCH  21  23
ATOM     23  C   UNL     1      -1.806 -10.629  -0.298  0.00  0.00    +0.036 A 
ATOM     24  C   UNL     1      -2.676 -10.814   0.769  0.00  0.00    +0.023 A 
ATOM     25  C   UNL     1      -3.130 -12.082   1.075  0.00  0.00    +0.002 A 
ATOM     26  C   UNL     1      -2.718 -13.166   0.322  0.00  0.00    +0.000 A 
ATOM     27  C   UNL     1      -1.852 -12.985  -0.740  0.00  0.00    +0.005 A 
ATOM     28  C   UNL     1      -1.400 -11.718  -1.056  0.00  0.00    -0.029 A 
ATOM     29  C   UNL     1      -0.461 -11.521  -2.219  0.00  0.00    +0.045 C 
ENDBRANCH  21  23
ENDBRANCH   7  19
BRANCH   1  30
ATOM     30  S   UNL     1      -1.677  -0.635   0.064  0.00  0.00    -0.085 S 
BRANCH  30  32
ATOM     31  C   UNL     1       0.011   1.518   0.080  0.00  0.00    +0.016 C 
ATOM     32  C   UNL     1       0.027  -0.012   0.063  0.00  0.00    +0.074 C 
ENDBRANCH  30  32
ENDBRANCH   1  30
TORSDOF 5
