REMARK  Name = ZINC17164290
REMARK  13 active torsions:
REMARK  status: ('A' for Active; 'I' for Inactive)
REMARK    1  A    between atoms: C_3  and  C_8
REMARK    2  A    between atoms: C_4  and  O_7
REMARK    3  A    between atoms: N_9  and  C_10
REMARK    4  A    between atoms: C_10  and  C_11
REMARK    5  A    between atoms: C_11  and  S_12
REMARK    6  A    between atoms: S_12  and  C_13
REMARK    7  A    between atoms: C_13  and  C_14
REMARK    8  A    between atoms: C_14  and  S_15
REMARK    9  A    between atoms: S_15  and  C_16
REMARK   10  A    between atoms: C_16  and  C_17
REMARK   11  A    between atoms: C_17  and  N_18
REMARK   12  A    between atoms: C_19  and  C_20
REMARK   13  A    between atoms: C_21  and  O_26
REMARK                            x       y       z     vdW  Elec       q    Type
REMARK                         _______ _______ _______ _____ _____    ______ ____
ROOT
ATOM      1  C   UNL     1       9.212   1.830   3.358  0.00  0.00    +0.080 C 
ENDROOT
BRANCH   1   2
ATOM      2  S   UNL     1       8.685   2.008   1.631  0.00  0.00    -0.158 S 
BRANCH   2   3
ATOM      3  C   UNL     1       7.161   1.029   1.535  0.00  0.00    +0.090 C 
BRANCH   3   4
ATOM      4  C   UNL     1       6.602   1.094   0.112  0.00  0.00    +0.123 C 
BRANCH   4   6
ATOM      5  C   UNL     1       4.242   0.886  -0.208  0.00  0.00    +0.089 C 
ATOM      6  N   UNL     1       5.372   0.303   0.034  0.00  0.00    -0.389 N 
ATOM      7  H   UNL     1       5.403  -0.658   0.164  0.00  0.00    +0.159 HD
BRANCH   5  10
ATOM      8  C   UNL     1       0.626  -0.039  -0.595  0.00  0.00    +0.001 A 
ATOM      9  C   UNL     1       1.790   0.700  -0.592  0.00  0.00    +0.013 A 
ATOM     10  C   UNL     1       2.994   0.102  -0.213  0.00  0.00    +0.032 A 
ATOM     11  C   UNL     1       3.009  -1.249   0.161  0.00  0.00    +0.125 A 
ATOM     12  C   UNL     1       1.829  -1.977   0.152  0.00  0.00    +0.046 A 
ATOM     13  C   UNL     1       0.645  -1.373  -0.224  0.00  0.00    +0.004 A 
BRANCH  11  14
ATOM     14  O   UNL     1       4.172  -1.841   0.531  0.00  0.00    -0.506 OA
ATOM     15  H   UNL     1       4.361  -1.782   1.477  0.00  0.00    +0.292 HD
ENDBRANCH  11  14
ENDBRANCH   5  10
ENDBRANCH   4   6
ENDBRANCH   3   4
ENDBRANCH   2   3
ENDBRANCH   1   2
BRANCH   1  16
ATOM     16  C   UNL     1      10.505   2.618   3.580  0.00  0.00    +0.080 C 
BRANCH  16  17
ATOM     17  S   UNL     1      11.032   2.440   5.306  0.00  0.00    -0.158 S 
BRANCH  17  18
ATOM     18  C   UNL     1      12.556   3.420   5.403  0.00  0.00    +0.090 C 
BRANCH  18  19
ATOM     19  C   UNL     1      13.115   3.355   6.826  0.00  0.00    +0.123 C 
BRANCH  19  20
ATOM     20  N   UNL     1      14.345   4.146   6.904  0.00  0.00    -0.389 N 
ATOM     21  C   UNL     1      14.388   5.204   7.647  0.00  0.00    +0.089 C 
ATOM     22  H   UNL     1      15.128   3.876   6.398  0.00  0.00    +0.159 HD
BRANCH  21  23
ATOM     23  C   UNL     1      15.605   6.035   7.677  0.00  0.00    +0.032 A 
ATOM     24  C   UNL     1      16.680   5.742   6.825  0.00  0.00    +0.125 A 
ATOM     25  C   UNL     1      17.820   6.530   6.862  0.00  0.00    +0.046 A 
ATOM     26  C   UNL     1      17.896   7.598   7.735  0.00  0.00    +0.004 A 
ATOM     27  C   UNL     1      16.837   7.890   8.578  0.00  0.00    +0.001 A 
ATOM     28  C   UNL     1      15.693   7.121   8.551  0.00  0.00    +0.013 A 
BRANCH  24  29
ATOM     29  O   UNL     1      16.604   4.692   5.968  0.00  0.00    -0.506 OA
ATOM     30  H   UNL     1      16.236   4.917   5.103  0.00  0.00    +0.292 HD
ENDBRANCH  24  29
ENDBRANCH  21  23
ENDBRANCH  19  20
ENDBRANCH  18  19
ENDBRANCH  17  18
ENDBRANCH  16  17
ENDBRANCH   1  16
TORSDOF 13
