REMARK  Name = ZINC38847436
REMARK  10 active torsions:
REMARK  status: ('A' for Active; 'I' for Inactive)
REMARK    1  A    between atoms: C_1  and  N_2
REMARK    2  A    between atoms: N_2  and  C_3
REMARK    3  A    between atoms: N_2  and  C_4
REMARK    4  A    between atoms: C_4  and  C_5
REMARK    5  A    between atoms: C_5  and  N_6
REMARK    6  A    between atoms: C_17  and  C_19
REMARK    7  A    between atoms: N_22  and  S_25
REMARK    8  A    between atoms: S_25  and  C_28
REMARK    9  A    between atoms: C_31  and  O_34
REMARK   10  A    between atoms: O_34  and  C_35
REMARK                            x       y       z     vdW  Elec       q    Type
REMARK                         _______ _______ _______ _____ _____    ______ ____
ROOT
ATOM      1  N   UNL     1      -2.898  -2.237  -0.023  0.00  0.00    -0.252 N 
ATOM      2  C   UNL     1      -1.708  -1.529   0.036  0.00  0.00    +0.168 A 
ATOM      3  N   UNL     1      -1.135  -0.803  -0.895  0.00  0.00    -0.221 NA
ATOM      4  C   UNL     1       0.037  -0.161  -0.697  0.00  0.00    +0.115 A 
ATOM      5  C   UNL     1       0.756   0.647  -1.610  0.00  0.00    +0.150 A 
ATOM      6  C   UNL     1       1.943   1.231  -1.245  0.00  0.00    +0.040 A 
ATOM      7  C   UNL     1       2.478   1.052   0.023  0.00  0.00    +0.004 A 
ATOM      8  C   UNL     1       1.801   0.269   0.940  0.00  0.00    +0.017 A 
ATOM      9  C   UNL     1       0.612  -0.319   0.584  0.00  0.00    +0.044 A 
ATOM     10  S   UNL     1      -0.568  -1.365   1.403  0.00  0.00    -0.052 S 
ATOM     11  F   UNL     1       0.269   0.845  -2.855  0.00  0.00    -0.203 F 
ATOM     12  C   UNL     1      -3.389  -2.824   1.087  0.00  0.00    +0.224 C 
ATOM     13  O   UNL     1      -4.373  -3.529   1.016  0.00  0.00    -0.275 OA
ENDROOT
BRANCH  12  14
ATOM     14  C   UNL     1      -2.714  -2.603   2.417  0.00  0.00    +0.078 C 
ATOM     15  C   UNL     1      -1.542  -3.577   2.562  0.00  0.00    +0.030 C 
ATOM     16  C   UNL     1      -0.838  -3.327   3.899  0.00  0.00    +0.110 C 
ATOM     17  N   UNL     1      -1.831  -3.412   4.979  0.00  0.00    -0.177 NA
ATOM     18  C   UNL     1      -3.042  -2.584   4.893  0.00  0.00    +0.110 C 
ATOM     19  C   UNL     1      -3.721  -2.843   3.545  0.00  0.00    +0.030 C 
BRANCH  17  20
ATOM     20  S   UNL     1      -1.590  -4.423   6.269  0.00  0.00    +0.061 S 
ATOM     21  O   UNL     1      -2.874  -4.710   6.805  0.00  0.00    -0.153 OA
ATOM     22  O   UNL     1      -0.704  -5.441   5.826  0.00  0.00    -0.153 OA
BRANCH  20  23
ATOM     23  C   UNL     1      -0.725  -3.502   7.497  0.00  0.00    +0.106 A 
ATOM     24  C   UNL     1       0.658  -3.489   7.504  0.00  0.00    +0.032 A 
ATOM     25  C   UNL     1       1.338  -2.768   8.466  0.00  0.00    +0.047 A 
ATOM     26  C   UNL     1       0.633  -2.057   9.426  0.00  0.00    +0.120 A 
ATOM     27  C   UNL     1      -0.754  -2.071   9.417  0.00  0.00    +0.047 A 
ATOM     28  C   UNL     1      -1.430  -2.789   8.450  0.00  0.00    +0.032 A 
BRANCH  26  29
ATOM     29  O   UNL     1       1.300  -1.348  10.374  0.00  0.00    -0.495 OA
ATOM     30  C   UNL     1       0.510  -0.640  11.331  0.00  0.00    +0.277 C 
ENDBRANCH  26  29
ENDBRANCH  20  23
ENDBRANCH  17  20
ENDBRANCH  12  14
BRANCH   1  31
ATOM     31  C   UNL     1      -3.622  -2.349  -1.291  0.00  0.00    +0.097 C 
BRANCH  31  32
ATOM     32  C   UNL     1      -3.217  -3.644  -1.998  0.00  0.00    -0.060 C 
BRANCH  32  34
ATOM     33  C   UNL     1      -3.468  -4.937  -4.003  0.00  0.00    -0.097 C 
ATOM     34  N   UNL     1      -3.943  -3.756  -3.270  0.00  0.00    +0.377 N 
ATOM     35  C   UNL     1      -5.381  -3.892  -3.002  0.00  0.00    -0.097 C 
ATOM     36  H   UNL     1      -3.781  -2.928  -3.823  0.00  0.00    -0.083 HD
ENDBRANCH  32  34
ENDBRANCH  31  32
ENDBRANCH   1  31
TORSDOF 7
