REMARK  Name = ZINC02530057
REMARK  7 active torsions:
REMARK  status: ('A' for Active; 'I' for Inactive)
REMARK    1  A    between atoms: C_13  and  C_14
REMARK    2  A    between atoms: C_14  and  O_15
REMARK    3  A    between atoms: O_15  and  C_16
REMARK    4  A    between atoms: N_18  and  C_19
REMARK    5  A    between atoms: C_19  and  C_21
REMARK    6  A    between atoms: C_19  and  C_25
REMARK    7  A    between atoms: C_21  and  C_22
REMARK                            x       y       z     vdW  Elec       q    Type
REMARK                         _______ _______ _______ _____ _____    ______ ____
ROOT
ATOM      1  C   UNL     1       6.348  -1.566  -2.336  0.00  0.00    +0.401 C 
ATOM      2  O   UNL     1       6.229  -0.735  -3.215  0.00  0.00    -0.226 OA
ATOM      3  N   UNL     1       7.398  -2.410  -2.344  0.00  0.00    -0.274 N 
ATOM      4  H   UNL     1       7.533  -3.023  -1.605  0.00  0.00    +0.153 HD
ENDROOT
BRANCH   1   5
ATOM      5  O   UNL     1       5.429  -1.643  -1.354  0.00  0.00    -0.449 OA
BRANCH   5   6
ATOM      6  C   UNL     1       4.342  -0.717  -1.408  0.00  0.00    +0.246 C 
BRANCH   6  19
ATOM      7  C   UNL     1      -0.029   1.550  -0.204  0.00  0.00    +0.001 A 
ATOM      8  C   UNL     1       1.189   2.195  -0.082  0.00  0.00    +0.000 A 
ATOM      9  C   UNL     1       2.364   1.465  -0.077  0.00  0.00    +0.005 A 
ATOM     10  C   UNL     1       2.323   0.091  -0.193  0.00  0.00    -0.029 A 
ATOM     11  C   UNL     1       1.103  -0.567  -0.315  0.00  0.00    -0.014 A 
ATOM     12  C   UNL     1      -0.079   0.177  -0.320  0.00  0.00    +0.009 A 
ATOM     13  C   UNL     1       1.338  -2.028  -0.424  0.00  0.00    -0.014 A 
ATOM     14  C   UNL     1       0.449  -3.095  -0.562  0.00  0.00    +0.009 A 
ATOM     15  C   UNL     1       0.929  -4.386  -0.642  0.00  0.00    +0.001 A 
ATOM     16  C   UNL     1       2.289  -4.629  -0.587  0.00  0.00    +0.000 A 
ATOM     17  C   UNL     1       3.177  -3.576  -0.450  0.00  0.00    +0.005 A 
ATOM     18  C   UNL     1       2.706  -2.283  -0.369  0.00  0.00    -0.029 A 
ATOM     19  C   UNL     1       3.409  -0.956  -0.219  0.00  0.00    +0.088 C 
ENDBRANCH   6  19
ENDBRANCH   5   6
ENDBRANCH   1   5
BRANCH   3  20
ATOM     20  C   UNL     1       8.337  -2.401  -3.469  0.00  0.00    +0.118 C 
BRANCH  20  21
ATOM     21  C   UNL     1       9.399  -1.359  -3.228  0.00  0.00    -0.009 A 
ATOM     22  C   UNL     1       9.708  -0.975  -1.936  0.00  0.00    +0.056 A 
ATOM     23  C   UNL     1      10.684  -0.017  -1.712  0.00  0.00    +0.167 A 
ATOM     24  C   UNL     1      11.353   0.556  -2.791  0.00  0.00    +0.167 A 
ATOM     25  C   UNL     1      11.039   0.166  -4.083  0.00  0.00    +0.065 A 
ATOM     26  C   UNL     1      10.067  -0.795  -4.299  0.00  0.00    +0.027 A 
ATOM     27 BR   UNL     1       9.646  -1.331  -6.063  0.00  0.00    -0.050 Br
ATOM     28  O   UNL     1      12.257   1.460  -2.313  0.00  0.00    -0.453 OA
ATOM     29  C   UNL     1      11.849   1.732  -0.960  0.00  0.00    +0.466 C 
ATOM     30  O   UNL     1      11.168   0.529  -0.559  0.00  0.00    -0.453 OA
ENDBRANCH  20  21
BRANCH  20  31
ATOM     31  C   UNL     1       8.992  -3.777  -3.598  0.00  0.00    +0.152 C 
BRANCH  31  32
ATOM     32  C   UNL     1       7.948  -4.797  -3.974  0.00  0.00    +0.358 C 
ATOM     33  O   UNL     1       6.775  -4.471  -4.047  0.00  0.00    -0.246 OA
ATOM     34  O   UNL     1       8.276  -5.948  -4.207  0.00  0.00    -0.246 OA
ENDBRANCH  31  32
ENDBRANCH  20  31
ENDBRANCH   3  20
TORSDOF 7
