REMARK  Name = ZINC53411207
REMARK  6 active torsions:
REMARK  status: ('A' for Active; 'I' for Inactive)
REMARK    1  A    between atoms: C_10  and  C_11
REMARK    2  A    between atoms: C_11  and  S_12
REMARK    3  A    between atoms: S_12  and  C_13
REMARK    4  A    between atoms: C_13  and  C_14
REMARK    5  A    between atoms: C_14  and  N_15
REMARK    6  A    between atoms: C_16  and  C_18
REMARK                            x       y       z     vdW  Elec       q    Type
REMARK                         _______ _______ _______ _____ _____    ______ ____
ROOT
ATOM      1  N   UNL     1       8.859   2.470   2.711  0.00  0.00    -0.311 N 
ATOM      2  C   UNL     1       9.540   2.867   3.804  0.00  0.00    +0.244 C 
ATOM      3  O   UNL     1       9.118   2.602   4.913  0.00  0.00    -0.270 OA
ATOM      4  H   UNL     1       9.195   2.681   1.827  0.00  0.00    +0.149 HD
ENDROOT
BRANCH   2   5
ATOM      5  C   UNL     1      10.799   3.623   3.655  0.00  0.00    +0.040 A 
ATOM      6  C   UNL     1      11.281   3.933   2.380  0.00  0.00    +0.015 A 
ATOM      7  C   UNL     1      12.456   4.639   2.240  0.00  0.00    +0.028 A 
ATOM      8  C   UNL     1      13.162   5.044   3.365  0.00  0.00    +0.076 A 
ATOM      9  C   UNL     1      12.685   4.737   4.641  0.00  0.00    +0.143 A 
ATOM     10  C   UNL     1      11.506   4.036   4.787  0.00  0.00    +0.060 A 
ATOM     11  O   UNL     1      13.391   5.138   5.733  0.00  0.00    -0.481 OA
ATOM     12  C   UNL     1      14.814   5.183   5.596  0.00  0.00    +0.325 C 
ATOM     13  C   UNL     1      15.176   5.866   4.302  0.00  0.00    +0.255 C 
ATOM     14  O   UNL     1      16.201   6.509   4.220  0.00  0.00    -0.272 OA
ATOM     15  N   UNL     1      14.355   5.761   3.235  0.00  0.00    -0.280 N 
ATOM     16  H   UNL     1      14.589   6.177   2.391  0.00  0.00    +0.155 HD
ENDBRANCH   2   5
BRANCH   1  17
ATOM     17  C   UNL     1       7.610   1.719   2.860  0.00  0.00    +0.115 C 
BRANCH  17  18
ATOM     18  C   UNL     1       7.043   1.393   1.477  0.00  0.00    +0.088 C 
BRANCH  18  19
ATOM     19  S   UNL     1       5.496   0.464   1.661  0.00  0.00    -0.155 S 
BRANCH  19  20
ATOM     20  C   UNL     1       4.960   0.161  -0.046  0.00  0.00    +0.104 C 
BRANCH  20  30
ATOM     21  C   UNL     1      -0.016   1.357   0.009  0.00  0.00    +0.001 A 
ATOM     22  C   UNL     1       1.169   2.091   0.002  0.00  0.00    +0.001 A 
ATOM     23  C   UNL     1       2.378   1.468  -0.013  0.00  0.00    +0.009 A 
ATOM     24  C   UNL     1       2.438   0.064  -0.021  0.00  0.00    -0.014 A 
ATOM     25  C   UNL     1       1.233  -0.683  -0.013  0.00  0.00    -0.018 A 
ATOM     26  C   UNL     1       0.002  -0.004   0.002  0.00  0.00    +0.008 A 
ATOM     27  C   UNL     1       1.292  -2.087  -0.021  0.00  0.00    +0.008 A 
ATOM     28  C   UNL     1       2.502  -2.709  -0.036  0.00  0.00    +0.001 A 
ATOM     29  C   UNL     1       3.687  -1.976  -0.043  0.00  0.00    +0.005 A 
ATOM     30  C   UNL     1       3.668  -0.615  -0.037  0.00  0.00    -0.030 A 
ENDBRANCH  20  30
ENDBRANCH  19  20
ENDBRANCH  18  19
ENDBRANCH  17  18
ENDBRANCH   1  17
TORSDOF 6
