REMARK  Name = ZINC19581514
REMARK  8 active torsions:
REMARK  status: ('A' for Active; 'I' for Inactive)
REMARK    1  A    between atoms: C_1  and  N_2
REMARK    2  A    between atoms: N_2  and  C_3
REMARK    3  A    between atoms: N_2  and  C_4
REMARK    4  A    between atoms: C_4  and  C_6
REMARK    5  A    between atoms: C_4  and  C_13
REMARK    6  A    between atoms: C_24  and  C_26
REMARK    7  A    between atoms: C_29  and  O_32
REMARK    8  A    between atoms: O_32  and  C_33
REMARK                            x       y       z     vdW  Elec       q    Type
REMARK                         _______ _______ _______ _____ _____    ______ ____
ROOT
ATOM      1  C   UNL     1      -1.939  -0.133  -1.543  0.00  0.00    +0.238 C 
ATOM      2  O   UNL     1      -1.681   0.715  -2.370  0.00  0.00    -0.273 OA
ATOM      3  N   UNL     1      -2.893  -1.052  -1.795  0.00  0.00    -0.287 N 
ATOM      4  C   UNL     1      -3.298  -2.019  -0.763  0.00  0.00    +0.115 C 
ATOM      5  C   UNL     1      -2.938  -3.434  -1.234  0.00  0.00    +0.074 C 
ATOM      6  C   UNL     1      -3.356  -3.588  -2.673  0.00  0.00    +0.042 A 
ATOM      7  C   UNL     1      -3.627  -2.565  -3.511  0.00  0.00    +0.087 A 
ATOM      8  N   UNL     1      -3.958  -3.078  -4.698  0.00  0.00    -0.238 NA
ATOM      9  C   UNL     1      -3.906  -4.383  -4.630  0.00  0.00    +0.197 A 
ATOM     10  N   UNL     1      -3.535  -4.739  -3.379  0.00  0.00    -0.348 N 
ATOM     11  H   UNL     1      -3.418  -5.643  -3.048  0.00  0.00    +0.166 HD
ATOM     12  C   UNL     1      -3.560  -1.107  -3.108  0.00  0.00    +0.157 C 
ENDROOT
BRANCH  12  13
ATOM     13  C   UNL     1      -4.950  -0.536  -3.002  0.00  0.00    -0.021 A 
ATOM     14  C   UNL     1      -5.893  -1.157  -2.204  0.00  0.00    +0.009 A 
ATOM     15  C   UNL     1      -7.168  -0.635  -2.105  0.00  0.00    +0.046 A 
ATOM     16  C   UNL     1      -7.503   0.514  -2.807  0.00  0.00    +0.120 A 
ATOM     17  C   UNL     1      -6.555   1.135  -3.607  0.00  0.00    +0.046 A 
ATOM     18  C   UNL     1      -5.279   0.613  -3.698  0.00  0.00    +0.009 A 
BRANCH  16  19
ATOM     19  O   UNL     1      -8.757   1.029  -2.712  0.00  0.00    -0.495 OA
ATOM     20  C   UNL     1      -9.030   2.213  -3.462  0.00  0.00    +0.277 C 
ENDBRANCH  16  19
ENDBRANCH  12  13
BRANCH   1  21
ATOM     21  C   UNL     1      -1.194  -0.161  -0.234  0.00  0.00    +0.173 C 
BRANCH  21  22
ATOM     22  C   UNL     1      -1.993   0.569   0.815  0.00  0.00    -0.021 A 
ATOM     23  C   UNL     1      -2.895   1.547   0.440  0.00  0.00    +0.007 A 
ATOM     24  C   UNL     1      -3.628   2.217   1.401  0.00  0.00    +0.020 A 
ATOM     25  C   UNL     1      -3.459   1.908   2.739  0.00  0.00    +0.041 A 
ATOM     26  C   UNL     1      -2.556   0.929   3.114  0.00  0.00    +0.020 A 
ATOM     27  C   UNL     1      -1.828   0.257   2.151  0.00  0.00    +0.007 A 
ATOM     28 CL   UNL     1      -4.379   2.749   3.947  0.00  0.00    -0.084 Cl
ENDBRANCH  21  22
BRANCH  21  30
ATOM     29  C   UNL     1      -0.043   1.951  -0.516  0.00  0.00    +0.105 C 
ATOM     30  N   UNL     1       0.111   0.495  -0.400  0.00  0.00    -0.294 NA
ATOM     31  C   UNL     1       1.018   0.147   0.702  0.00  0.00    +0.105 C 
ENDBRANCH  21  30
ENDBRANCH   1  21
TORSDOF 5
