REMARK  Name = ZINC02128986
REMARK  9 active torsions:
REMARK  status: ('A' for Active; 'I' for Inactive)
REMARK    1  A    between atoms: C_1  and  C_2
REMARK    2  A    between atoms: C_7  and  C_8
REMARK    3  A    between atoms: C_17  and  C_19
REMARK    4  A    between atoms: C_19  and  C_20
REMARK    5  A    between atoms: C_19  and  C_21
REMARK    6  A    between atoms: N_24  and  C_27
REMARK    7  A    between atoms: C_27  and  C_28
REMARK    8  A    between atoms: C_31  and  O_34
REMARK    9  A    between atoms: O_34  and  C_35
REMARK                            x       y       z     vdW  Elec       q    Type
REMARK                         _______ _______ _______ _____ _____    ______ ____
ROOT
ATOM      1  C   UNL     1       2.134   0.844   0.982  0.00  0.00    +0.044 C 
ATOM      2  C   UNL     1       0.917   1.715   0.800  0.00  0.00    -0.046 A 
ATOM      3  C   UNL     1       1.039   3.091   0.874  0.00  0.00    +0.004 A 
ATOM      4  C   UNL     1      -0.077   3.890   0.707  0.00  0.00    +0.005 A 
ATOM      5  C   UNL     1      -1.306   3.317   0.467  0.00  0.00    -0.027 A 
ATOM      6  C   UNL     1      -1.440   1.934   0.388  0.00  0.00    +0.039 A 
ATOM      7  C   UNL     1      -0.312   1.136   0.563  0.00  0.00    -0.026 A 
ATOM      8  C   UNL     1      -0.434  -0.364   0.486  0.00  0.00    +0.046 C 
ATOM      9  N   UNL     1      -2.772   1.591   0.146  0.00  0.00    -0.286 N 
ATOM     10  C   UNL     1      -3.565   2.676   0.044  0.00  0.00    +0.211 C 
ATOM     11  O   UNL     1      -4.760   2.682  -0.167  0.00  0.00    -0.277 OA
ATOM     12  C   UNL     1      -2.682   3.877   0.242  0.00  0.00    +0.050 C 
ATOM     13  C   UNL     1      -2.716   4.806  -0.978  0.00  0.00    +0.088 C 
ATOM     14  C   UNL     1      -3.723   5.924  -0.590  0.00  0.00    +0.073 C 
ATOM     15  C   UNL     1      -4.210   5.546   0.825  0.00  0.00    -0.055 C 
ATOM     16  C   UNL     1      -2.857   7.160  -0.507  0.00  0.00    +0.224 C 
ATOM     17  O   UNL     1      -3.247   8.271  -0.217  0.00  0.00    -0.275 OA
ATOM     18  N   UNL     1      -1.593   6.838  -0.804  0.00  0.00    -0.237 N 
ATOM     19  C   UNL     1      -1.401   5.545  -1.089  0.00  0.00    +0.225 C 
ATOM     20  O   UNL     1      -0.339   5.044  -1.389  0.00  0.00    -0.275 OA
ATOM     21  H   UNL     1      -3.089   0.679   0.058  0.00  0.00    +0.155 HD
ATOM     22  N   UNL     1      -3.141   4.694   1.351  0.00  0.00    +0.394 N 
ATOM     23  H   UNL     1      -2.371   5.271   1.710  0.00  0.00    -0.083 HD
ATOM     24  H   UNL     1      -3.501   4.098   2.106  0.00  0.00    -0.083 HD
ENDROOT
BRANCH  15  25
ATOM     25  C   UNL     1      -4.393   6.802   1.679  0.00  0.00    -0.031 C 
ATOM     26  C   UNL     1      -5.533   7.647   1.105  0.00  0.00    +0.005 C 
ATOM     27  C   UNL     1      -4.730   6.398   3.115  0.00  0.00    +0.005 C 
ENDBRANCH  15  25
BRANCH  18  28
ATOM     28  C   UNL     1      -0.507   7.821  -0.815  0.00  0.00    +0.151 C 
BRANCH  28  29
ATOM     29  C   UNL     1      -0.389   8.423  -2.192  0.00  0.00    -0.029 A 
ATOM     30  C   UNL     1       0.445   7.842  -3.130  0.00  0.00    +0.009 A 
ATOM     31  C   UNL     1       0.551   8.388  -4.394  0.00  0.00    +0.046 A 
ATOM     32  C   UNL     1      -0.172   9.527  -4.719  0.00  0.00    +0.120 A 
ATOM     33  C   UNL     1      -1.003  10.111  -3.774  0.00  0.00    +0.046 A 
ATOM     34  C   UNL     1      -1.109   9.558  -2.513  0.00  0.00    +0.009 A 
BRANCH  32  35
ATOM     35  O   UNL     1      -0.065  10.070  -5.960  0.00  0.00    -0.495 OA
ATOM     36  C   UNL     1       0.809   9.415  -6.882  0.00  0.00    +0.277 C 
ENDBRANCH  32  35
ENDBRANCH  28  29
ENDBRANCH  18  28
TORSDOF 4
