REMARK  Name = ZINC14755236
REMARK  8 active torsions:
REMARK  status: ('A' for Active; 'I' for Inactive)
REMARK    1  A    between atoms: C_3  and  C_7
REMARK    2  A    between atoms: C_7  and  O_8
REMARK    3  A    between atoms: O_8  and  C_9
REMARK    4  A    between atoms: N_15  and  C_17
REMARK    5  A    between atoms: C_17  and  C_18
REMARK    6  A    between atoms: C_24  and  C_25
REMARK    7  A    between atoms: C_24  and  N_68
REMARK    8  A    between atoms: C_30  and  C_31
REMARK                            x       y       z     vdW  Elec       q    Type
REMARK                         _______ _______ _______ _____ _____    ______ ____
ROOT
ATOM      1  C   UNL     1       2.307   1.634  -0.514  0.00  0.00    +0.120 C 
ATOM      2  C   UNL     1       1.951   2.921   0.206  0.00  0.00    -0.044 C 
ATOM      3  C   UNL     1       3.764   4.306  -0.639  0.00  0.00    +0.019 C 
ATOM      4  C   UNL     1       4.756   3.291  -1.166  0.00  0.00    +0.199 C 
ATOM      5  O   UNL     1       5.946   3.490  -1.044  0.00  0.00    -0.278 OA
ATOM      6  N   UNL     1       4.326   2.177  -1.765  0.00  0.00    -0.300 N 
ATOM      7  C   UNL     1       2.880   1.931  -1.903  0.00  0.00    +0.137 C 
ATOM      8  N   UNL     1       3.130   3.731   0.573  0.00  0.00    +0.390 N 
ATOM      9  H   UNL     1       3.812   3.126   1.046  0.00  0.00    -0.081 HD
ENDROOT
BRANCH   1  10
ATOM     10  O   UNL     1       1.132   0.832  -0.652  0.00  0.00    -0.372 OA
BRANCH  10  11
ATOM     11  C   UNL     1       1.383  -0.574  -0.638  0.00  0.00    +0.197 C 
BRANCH  11  14
ATOM     12  C   UNL     1      -1.848  -2.361   0.141  0.00  0.00    +0.020 A 
ATOM     13  C   UNL     1      -0.653  -1.682   0.329  0.00  0.00    +0.009 A 
ATOM     14  C   UNL     1       0.082  -1.319  -0.789  0.00  0.00    -0.004 A 
ATOM     15  C   UNL     1      -0.391  -1.653  -2.044  0.00  0.00    +0.116 A 
ATOM     16  N   UNL     1      -1.529  -2.304  -2.184  0.00  0.00    -0.263 NA
ATOM     17  C   UNL     1      -2.257  -2.661  -1.144  0.00  0.00    +0.111 A 
ENDBRANCH  11  14
ENDBRANCH  10  11
ENDBRANCH   1  10
BRANCH   6  18
ATOM     18  C   UNL     1       5.289   1.203  -2.284  0.00  0.00    +0.111 C 
BRANCH  18  19
ATOM     19  C   UNL     1       5.629   1.546  -3.736  0.00  0.00    +0.011 C 
ATOM     20  C   UNL     1       4.381   1.378  -4.608  0.00  0.00    +0.033 C 
ATOM     21  C   UNL     1       4.750   1.644  -6.070  0.00  0.00    +0.160 C 
ATOM     22  O   UNL     1       5.795   0.754  -6.468  0.00  0.00    -0.380 OA
ATOM     23  C   UNL     1       7.003   0.901  -5.718  0.00  0.00    +0.160 C 
ATOM     24  C   UNL     1       6.725   0.603  -4.242  0.00  0.00    +0.033 C 
ENDBRANCH  18  19
ENDBRANCH   6  18
BRANCH   8  25
ATOM     25  C   UNL     1       2.730   4.807   1.492  0.00  0.00    -0.039 C 
BRANCH  25  26
ATOM     26  C   UNL     1       3.960   5.287   2.220  0.00  0.00    -0.019 A 
ATOM     27  C   UNL     1       4.601   6.457   2.010  0.00  0.00    +0.107 A 
ATOM     28  N   UNL     1       5.649   6.516   2.860  0.00  0.00    -0.284 N 
ATOM     29  H   UNL     1       6.302   7.270   2.936  0.00  0.00    +0.188 HD
ATOM     30  N   UNL     1       5.664   5.337   3.616  0.00  0.00    -0.174 NA
ATOM     31  C   UNL     1       4.648   4.593   3.234  0.00  0.00    +0.094 A 
BRANCH  31  32
ATOM     32  C   UNL     1       4.290   3.259   3.776  0.00  0.00    +0.002 A 
ATOM     33  C   UNL     1       2.958   2.950   4.048  0.00  0.00    +0.013 A 
ATOM     34  C   UNL     1       2.629   1.706   4.547  0.00  0.00    +0.039 A 
ATOM     35  C   UNL     1       3.621   0.769   4.787  0.00  0.00    +0.123 A 
ATOM     36  C   UNL     1       4.947   1.075   4.524  0.00  0.00    +0.039 A 
ATOM     37  C   UNL     1       5.284   2.314   4.020  0.00  0.00    +0.013 A 
ATOM     38  F   UNL     1       3.296  -0.446   5.281  0.00  0.00    -0.205 F 
ENDBRANCH  31  32
ENDBRANCH  25  26
ENDBRANCH   8  25
TORSDOF 8
