REMARK  Name = ZINC09018400
REMARK  9 active torsions:
REMARK  status: ('A' for Active; 'I' for Inactive)
REMARK    1  A    between atoms: C_1  and  C_2
REMARK    2  A    between atoms: C_2  and  C_3
REMARK    3  A    between atoms: C_4  and  C_27
REMARK    4  A    between atoms: C_13  and  S_14
REMARK    5  A    between atoms: S_14  and  C_15
REMARK    6  A    between atoms: C_15  and  C_16
REMARK    7  A    between atoms: N_18  and  C_19
REMARK    8  A    between atoms: C_21  and  C_26
REMARK    9  A    between atoms: C_24  and  C_25
REMARK                            x       y       z     vdW  Elec       q    Type
REMARK                         _______ _______ _______ _____ _____    ______ ____
ROOT
ATOM      1  C   UNL     1      -2.137   1.037   1.244  0.00  0.00    +0.036 A 
ATOM      2  C   UNL     1      -2.432  -0.094   1.910  0.00  0.00    +0.034 A 
ATOM      3  N   UNL     1      -3.722  -0.572   1.923  0.00  0.00    -0.260 N 
ATOM      4  C   UNL     1      -4.712   0.096   1.249  0.00  0.00    +0.237 A 
ATOM      5  N   UNL     1      -4.417   1.258   0.555  0.00  0.00    -0.291 N 
ATOM      6  H   UNL     1      -5.117   1.730   0.078  0.00  0.00    +0.172 HD
ATOM      7  C   UNL     1      -3.155   1.732   0.545  0.00  0.00    +0.256 A 
ATOM      8  O   UNL     1      -2.890   2.753  -0.064  0.00  0.00    -0.267 OA
ATOM      9  N   UNL     1      -5.832  -0.565   1.416  0.00  0.00    -0.109 NA
ATOM     10  N   UNL     1      -5.561  -1.683   2.216  0.00  0.00    -0.120 NA
ATOM     11  C   UNL     1      -4.285  -1.672   2.513  0.00  0.00    +0.198 A 
ATOM     12  C   UNL     1      -1.348  -0.836   2.648  0.00  0.00    +0.064 C 
ENDROOT
BRANCH   1  14
ATOM     13  C   UNL     1      -0.001   1.060  -0.016  0.00  0.00    +0.009 C 
ATOM     14  C   UNL     1      -0.724   1.561   1.237  0.00  0.00    +0.039 C 
ENDBRANCH   1  14
BRANCH  11  15
ATOM     15  S   UNL     1      -3.440  -2.865   3.498  0.00  0.00    -0.076 S 
BRANCH  15  16
ATOM     16  C   UNL     1      -4.736  -4.046   3.963  0.00  0.00    +0.173 C 
BRANCH  16  17
ATOM     17  C   UNL     1      -4.140  -5.134   4.819  0.00  0.00    +0.227 C 
ATOM     18  O   UNL     1      -2.958  -5.114   5.089  0.00  0.00    -0.275 OA
ATOM     19  N   UNL     1      -4.921  -6.128   5.286  0.00  0.00    -0.285 N 
ATOM     20  H   UNL     1      -5.880  -6.102   5.138  0.00  0.00    +0.155 HD
BRANCH  19  21
ATOM     21  C   UNL     1      -4.350  -7.199   5.983  0.00  0.00    +0.037 A 
ATOM     22  C   UNL     1      -3.018  -7.534   5.773  0.00  0.00    +0.027 A 
ATOM     23  C   UNL     1      -2.456  -8.587   6.466  0.00  0.00    -0.049 A 
ATOM     24  C   UNL     1      -3.220  -9.315   7.361  0.00  0.00    +0.004 A 
ATOM     25  C   UNL     1      -4.547  -8.987   7.568  0.00  0.00    +0.005 A 
ATOM     26  C   UNL     1      -5.114  -7.931   6.881  0.00  0.00    -0.029 A 
ATOM     27  C   UNL     1      -6.561  -7.574   7.107  0.00  0.00    +0.045 C 
ATOM     28  C   UNL     1      -1.010  -8.949   6.243  0.00  0.00    +0.044 C 
ENDBRANCH  19  21
ENDBRANCH  16  17
ENDBRANCH  15  16
ENDBRANCH  11  15
TORSDOF 5
