REMARK  Name = ZINC11790871
REMARK  8 active torsions:
REMARK  status: ('A' for Active; 'I' for Inactive)
REMARK    1  A    between atoms: C_1  and  N_2
REMARK    2  A    between atoms: N_2  and  C_3
REMARK    3  A    between atoms: N_2  and  C_9
REMARK    4  A    between atoms: C_12  and  C_15
REMARK    5  A    between atoms: C_15  and  N_63
REMARK    6  A    between atoms: C_22  and  C_26
REMARK    7  A    between atoms: C_26  and  C_28
REMARK    8  A    between atoms: C_26  and  O_34
REMARK                            x       y       z     vdW  Elec       q    Type
REMARK                         _______ _______ _______ _____ _____    ______ ____
ROOT
ATOM      1  C   UNL     1      -0.208   3.416   1.626  0.00  0.00    -0.036 C 
ATOM      2  C   UNL     1      -0.216   1.916   1.827  0.00  0.00    +0.210 C 
ATOM      3  O   UNL     1       0.199   1.240   0.634  0.00  0.00    -0.494 OA
ATOM      4  C   UNL     1       1.544   1.090   0.487  0.00  0.00    +0.122 A 
ATOM      5  C   UNL     1       2.122  -0.167   0.584  0.00  0.00    +0.046 A 
ATOM      6  C   UNL     1       3.494  -0.299   0.475  0.00  0.00    +0.010 A 
ATOM      7  C   UNL     1       4.286   0.816   0.272  0.00  0.00    -0.013 A 
ATOM      8  C   UNL     1       3.708   2.069   0.167  0.00  0.00    +0.012 A 
ATOM      9  C   UNL     1       2.338   2.200   0.266  0.00  0.00    -0.022 A 
ATOM     10  C   UNL     1       1.690   3.561   0.108  0.00  0.00    -0.039 C 
ATOM     11  N   UNL     1       1.151   3.963   1.429  0.00  0.00    +0.387 N 
ATOM     12  H   UNL     1       1.765   3.592   2.163  0.00  0.00    -0.081 HD
ENDROOT
BRANCH  11  13
ATOM     13  C   UNL     1       1.118   5.431   1.533  0.00  0.00    -0.042 C 
BRANCH  13  17
ATOM     14  C   UNL     1       0.118   6.490   5.551  0.00  0.00    +0.034 A 
ATOM     15  C   UNL     1       1.446   6.296   5.192  0.00  0.00    +0.023 A 
ATOM     16  C   UNL     1       1.765   5.954   3.893  0.00  0.00    +0.003 A 
ATOM     17  C   UNL     1       0.765   5.805   2.950  0.00  0.00    -0.064 A 
ATOM     18  C   UNL     1      -0.557   6.003   3.302  0.00  0.00    +0.003 A 
ATOM     19  C   UNL     1      -0.884   6.339   4.601  0.00  0.00    +0.023 A 
BRANCH  14  21
ATOM     20  C   UNL     1      -0.271   8.246   7.257  0.00  0.00    +0.135 C 
ATOM     21  N   UNL     1      -0.209   6.836   6.865  0.00  0.00    -0.303 N 
BRANCH  21  22
ATOM     22  C   UNL     1      -0.477   5.837   7.804  0.00  0.00    +0.034 A 
ATOM     23  C   UNL     1      -0.313   4.500   7.464  0.00  0.00    +0.023 A 
ATOM     24  C   UNL     1      -0.574   3.515   8.396  0.00  0.00    +0.002 A 
ATOM     25  C   UNL     1      -1.008   3.858   9.664  0.00  0.00    +0.000 A 
ATOM     26  C   UNL     1      -1.178   5.188  10.004  0.00  0.00    +0.002 A 
ATOM     27  C   UNL     1      -0.914   6.178   9.078  0.00  0.00    +0.023 A 
ENDBRANCH  21  22
ENDBRANCH  14  21
ENDBRANCH  13  17
ENDBRANCH  11  13
BRANCH   7  28
ATOM     28  C   UNL     1       5.782   0.666   0.163  0.00  0.00    +0.193 C 
BRANCH  28  29
ATOM     29  C   UNL     1       6.150   0.322  -1.257  0.00  0.00    +0.074 A 
ATOM     30  C   UNL     1       7.060   1.110  -1.937  0.00  0.00    +0.026 A 
ATOM     31  C   UNL     1       7.396   0.782  -3.241  0.00  0.00    +0.003 A 
ATOM     32  C   UNL     1       6.795  -0.325  -3.819  0.00  0.00    +0.020 A 
ATOM     33  C   UNL     1       5.890  -1.063  -3.080  0.00  0.00    +0.111 A 
ATOM     34  N   UNL     1       5.597  -0.724  -1.839  0.00  0.00    -0.257 NA
ENDBRANCH  28  29
BRANCH  28  35
ATOM     35  O   UNL     1       6.220  -0.378   1.035  0.00  0.00    -0.381 OA
ATOM     36  H   UNL     1       5.832  -1.242   0.841  0.00  0.00    +0.211 HD
ENDBRANCH  28  35
ENDBRANCH   7  28
TORSDOF 7
