REMARK  Name = ZINC66846866
REMARK  4 active torsions:
REMARK  status: ('A' for Active; 'I' for Inactive)
REMARK    1  A    between atoms: C_1  and  C_2
REMARK    2  A    between atoms: C_15  and  C_17
REMARK    3  A    between atoms: C_17  and  N_18
REMARK    4  A    between atoms: C_22  and  C_25
REMARK                            x       y       z     vdW  Elec       q    Type
REMARK                         _______ _______ _______ _____ _____    ______ ____
ROOT
ATOM      1  C   UNL     1      -0.019   1.526   0.010  0.00  0.00    +0.029 C 
ATOM      2  C   UNL     1       0.002  -0.004   0.002  0.00  0.00    +0.087 C 
ATOM      3  C   UNL     1      -1.433  -0.532   0.009  0.00  0.00    +0.118 C 
ATOM      4  C   UNL     1      -1.448  -1.987   0.396  0.00  0.00    +0.219 C 
ATOM      5  O   UNL     1      -1.623  -2.835  -0.454  0.00  0.00    -0.275 OA
ATOM      6  N   UNL     1      -1.268  -2.354   1.683  0.00  0.00    -0.284 N 
ATOM      7  C   UNL     1      -0.970  -1.397   2.659  0.00  0.00    +0.055 A 
ATOM      8  C   UNL     1      -1.673  -1.354   3.851  0.00  0.00    +0.025 A 
ATOM      9  C   UNL     1      -1.345  -0.414   4.811  0.00  0.00    +0.002 A 
ATOM     10  C   UNL     1      -0.316   0.482   4.584  0.00  0.00    +0.002 A 
ATOM     11  C   UNL     1       0.385   0.452   3.393  0.00  0.00    +0.025 A 
ATOM     12  C   UNL     1       0.054  -0.479   2.422  0.00  0.00    +0.058 A 
ATOM     13  N   UNL     1       0.714  -0.487   1.187  0.00  0.00    -0.265 N 
ATOM     14  C   UNL     1       1.982  -0.932   1.091  0.00  0.00    +0.234 C 
ATOM     15  O   UNL     1       2.545  -0.934   0.017  0.00  0.00    -0.274 OA
ATOM     16  H   UNL     1      -1.347  -3.288   1.933  0.00  0.00    +0.155 HD
ENDROOT
BRANCH  14  17
ATOM     17  C   UNL     1       2.702  -1.427   2.320  0.00  0.00    +0.181 C 
BRANCH  17  18
ATOM     18  N   UNL     1       4.059  -1.853   1.954  0.00  0.00    -0.289 NA
ATOM     19  C   UNL     1       4.023  -3.034   1.079  0.00  0.00    +0.113 C 
ATOM     20  C   UNL     1       5.452  -3.406   0.675  0.00  0.00    +0.176 C 
ATOM     21  O   UNL     1       6.232  -3.629   1.852  0.00  0.00    -0.369 OA
ATOM     22  C   UNL     1       6.290  -2.499   2.727  0.00  0.00    +0.165 C 
ATOM     23  C   UNL     1       4.869  -2.117   3.152  0.00  0.00    +0.121 C 
BRANCH  22  24
ATOM     24  C   UNL     1       7.104  -2.848   3.946  0.00  0.00    +0.018 A 
ATOM     25  C   UNL     1       7.225  -4.166   4.343  0.00  0.00    +0.009 A 
ATOM     26  C   UNL     1       7.972  -4.486   5.461  0.00  0.00    +0.001 A 
ATOM     27  C   UNL     1       8.599  -3.487   6.184  0.00  0.00    +0.003 A 
ATOM     28  C   UNL     1       8.480  -2.169   5.789  0.00  0.00    +0.039 A 
ATOM     29  C   UNL     1       7.736  -1.848   4.665  0.00  0.00    +0.129 A 
ATOM     30  F   UNL     1       7.623  -0.559   4.275  0.00  0.00    -0.205 F 
ENDBRANCH  22  24
ENDBRANCH  17  18
ENDBRANCH  14  17
TORSDOF 3
