REMARK  Name = ZINC59367494
REMARK  9 active torsions:
REMARK  status: ('A' for Active; 'I' for Inactive)
REMARK    1  A    between atoms: C_1  and  C_2
REMARK    2  A    between atoms: C_2  and  C_3
REMARK    3  A    between atoms: C_2  and  C_4
REMARK    4  A    between atoms: C_4  and  C_5
REMARK    5  A    between atoms: C_6  and  C_24
REMARK    6  A    between atoms: C_7  and  N_23
REMARK    7  A    between atoms: C_11  and  N_22
REMARK    8  A    between atoms: C_12  and  C_14
REMARK    9  A    between atoms: C_14  and  C_16
REMARK                            x       y       z     vdW  Elec       q    Type
REMARK                         _______ _______ _______ _____ _____    ______ ____
ROOT
ATOM      1  C   UNL     1       0.463  -1.539   0.793  0.00  0.00    -0.015 A 
ATOM      2  C   UNL     1       1.370  -1.812  -0.221  0.00  0.00    +0.095 A 
ATOM      3  C   UNL     1       1.613  -3.147  -0.607  0.00  0.00    +0.135 A 
ATOM      4  N   UNL     1       0.977  -4.138  -0.003  0.00  0.00    -0.224 NA
ATOM      5  C   UNL     1       0.110  -3.914   0.963  0.00  0.00    +0.113 A 
ATOM      6  C   UNL     1      -0.202  -2.614   1.429  0.00  0.00    +0.034 A 
ATOM      7  C   UNL     1      -1.177  -2.561   2.507  0.00  0.00    +0.052 A 
ATOM      8  C   UNL     1      -1.698  -3.752   2.976  0.00  0.00    +0.083 A 
ATOM      9  S   UNL     1      -0.897  -4.981   1.964  0.00  0.00    -0.063 S 
ENDROOT
BRANCH   7  10
ATOM     10  N   UNL     1      -1.571  -1.350   3.050  0.00  0.00    -0.356 N 
ATOM     11  H   UNL     1      -1.471  -0.533   2.537  0.00  0.00    +0.142 HD
ATOM     12  H   UNL     1      -1.948  -1.319   3.943  0.00  0.00    +0.142 HD
ENDBRANCH   7  10
BRANCH   3  13
ATOM     13  N   UNL     1       2.515  -3.421  -1.617  0.00  0.00    -0.342 N 
ATOM     14  H   UNL     1       2.982  -2.695  -2.061  0.00  0.00    +0.144 HD
ATOM     15  H   UNL     1       2.682  -4.339  -1.883  0.00  0.00    +0.144 HD
ENDBRANCH   3  13
BRANCH   8  16
ATOM     16  C   UNL     1      -2.647  -3.948   4.004  0.00  0.00    +0.202 C 
ATOM     17  O   UNL     1      -3.216  -2.990   4.498  0.00  0.00    -0.286 OA
BRANCH  16  18
ATOM     18  C   UNL     1      -2.949  -5.316   4.481  0.00  0.00    +0.023 A 
ATOM     19  C   UNL     1      -2.064  -6.362   4.216  0.00  0.00    +0.012 A 
ATOM     20  C   UNL     1      -2.352  -7.635   4.664  0.00  0.00    +0.001 A 
ATOM     21  C   UNL     1      -3.515  -7.875   5.375  0.00  0.00    +0.000 A 
ATOM     22  C   UNL     1      -4.396  -6.842   5.640  0.00  0.00    +0.001 A 
ATOM     23  C   UNL     1      -4.117  -5.564   5.204  0.00  0.00    +0.012 A 
ENDBRANCH  16  18
ENDBRANCH   8  16
BRANCH   2  24
ATOM     24  C   UNL     1       2.058  -0.741  -0.876  0.00  0.00    +0.103 C 
ATOM     25  N   UNL     1       2.604   0.110  -1.395  0.00  0.00    -0.191 NA
ENDBRANCH   2  24
BRANCH   1  26
ATOM     26  C   UNL     1       0.194  -0.117   1.215  0.00  0.00    +0.040 C 
BRANCH  26  28
ATOM     27  C   UNL     1      -1.422   1.781   1.046  0.00  0.00    +0.007 C 
ATOM     28  C   UNL     1      -1.055   0.401   0.498  0.00  0.00    -0.013 C 
ATOM     29  C   UNL     1      -0.774   0.505  -1.002  0.00  0.00    +0.007 C 
ENDBRANCH  26  28
ENDBRANCH   1  26
TORSDOF 7
