REMARK  Name = ZINC14954966
REMARK  14 active torsions:
REMARK  status: ('A' for Active; 'I' for Inactive)
REMARK    1  A    between atoms: C_1  and  C_2
REMARK    2  A    between atoms: C_7  and  C_8
REMARK    3  A    between atoms: C_8  and  N_60
REMARK    4  A    between atoms: C_9  and  C_10
REMARK    5  A    between atoms: C_9  and  N_60
REMARK    6  A    between atoms: C_13  and  O_16
REMARK    7  A    between atoms: O_16  and  C_17
REMARK    8  A    between atoms: C_17  and  C_18
REMARK    9  A    between atoms: C_18  and  C_20
REMARK   10  A    between atoms: C_18  and  O_29
REMARK   11  A    between atoms: C_20  and  N_63
REMARK   12  A    between atoms: C_21  and  N_63
REMARK   13  A    between atoms: C_22  and  C_23
REMARK   14  A    between atoms: C_22  and  N_63
REMARK                            x       y       z     vdW  Elec       q    Type
REMARK                         _______ _______ _______ _____ _____    ______ ____
ROOT
ATOM      1  C   UNL     1       4.002   4.753  -3.306  0.00  0.00    -0.064 A 
ATOM      2  C   UNL     1       4.843   3.725  -3.689  0.00  0.00    +0.005 A 
ATOM      3  C   UNL     1       5.440   3.748  -4.935  0.00  0.00    +0.046 A 
ATOM      4  C   UNL     1       5.204   4.809  -5.797  0.00  0.00    +0.121 A 
ATOM      5  C   UNL     1       4.364   5.842  -5.407  0.00  0.00    +0.046 A 
ATOM      6  C   UNL     1       3.765   5.812  -4.163  0.00  0.00    +0.005 A 
ENDROOT
BRANCH   1   7
ATOM      7  C   UNL     1       3.347   4.723  -1.949  0.00  0.00    -0.046 C 
BRANCH   7   8
ATOM      8  N   UNL     1       2.048   4.032  -2.054  0.00  0.00    +0.384 N 
ATOM      9  H   UNL     1       1.449   4.535  -2.719  0.00  0.00    -0.085 HD
ATOM     10  H   UNL     1       2.201   3.073  -2.389  0.00  0.00    -0.085 HD
BRANCH   8  11
ATOM     11  C   UNL     1       1.383   3.987  -0.738  0.00  0.00    -0.046 C 
BRANCH  11  18
ATOM     12  C   UNL     1       1.296   1.101  -0.810  0.00  0.00    +0.044 C 
ATOM     13  C   UNL     1       0.020   1.895  -0.911  0.00  0.00    -0.049 A 
ATOM     14  C   UNL     1      -1.192   1.242  -1.038  0.00  0.00    +0.006 A 
ATOM     15  C   UNL     1      -2.363   1.970  -1.137  0.00  0.00    +0.038 A 
ATOM     16  C   UNL     1      -2.323   3.353  -1.097  0.00  0.00    +0.124 A 
ATOM     17  C   UNL     1      -1.109   4.006  -0.969  0.00  0.00    +0.040 A 
ATOM     18  C   UNL     1       0.061   3.276  -0.876  0.00  0.00    -0.059 A 
ATOM     19  F   UNL     1      -3.467   4.066  -1.188  0.00  0.00    -0.205 F 
ENDBRANCH  11  18
ENDBRANCH   8  11
ENDBRANCH   7   8
ENDBRANCH   1   7
BRANCH   4  20
ATOM     20  O   UNL     1       5.794   4.836  -7.020  0.00  0.00    -0.489 OA
BRANCH  20  21
ATOM     21  C   UNL     1       6.646   3.739  -7.354  0.00  0.00    +0.258 C 
BRANCH  21  22
ATOM     22  C   UNL     1       7.215   3.944  -8.760  0.00  0.00    +0.135 C 
BRANCH  22  23
ATOM     23  O   UNL     1       6.153   3.902  -9.714  0.00  0.00    -0.390 OA
ATOM     24  H   UNL     1       5.665   3.067  -9.723  0.00  0.00    +0.210 HD
ENDBRANCH  22  23
BRANCH  22  25
ATOM     25  C   UNL     1       8.223   2.836  -9.069  0.00  0.00    -0.044 C 
BRANCH  25  27
ATOM     26  C   UNL     1       9.464   1.878 -10.914  0.00  0.00    -0.096 C 
ATOM     27  N   UNL     1       8.839   3.108 -10.384  0.00  0.00    +0.382 N 
ATOM     28  H   UNL     1       8.108   3.419 -11.036  0.00  0.00    -0.082 HD
BRANCH  27  29
ATOM     29  C   UNL     1       9.853   4.176 -10.257  0.00  0.00    -0.043 C 
BRANCH  29  30
ATOM     30  C   UNL     1      10.303   4.586 -11.635  0.00  0.00    -0.064 A 
ATOM     31  C   UNL     1      11.390   3.965 -12.220  0.00  0.00    +0.002 A 
ATOM     32  C   UNL     1      11.800   4.337 -13.487  0.00  0.00    +0.000 A 
ATOM     33  C   UNL     1      11.130   5.340 -14.163  0.00  0.00    +0.000 A 
ATOM     34  C   UNL     1      10.047   5.965 -13.575  0.00  0.00    +0.000 A 
ATOM     35  C   UNL     1       9.633   5.589 -12.311  0.00  0.00    +0.002 A 
ENDBRANCH  29  30
ENDBRANCH  27  29
ENDBRANCH  25  27
ENDBRANCH  22  25
ENDBRANCH  21  22
ENDBRANCH  20  21
ENDBRANCH   4  20
TORSDOF 12
