REMARK  Name = ZINC10001337
REMARK  8 active torsions:
REMARK  status: ('A' for Active; 'I' for Inactive)
REMARK    1  A    between atoms: C_1  and  C_2
REMARK    2  A    between atoms: C_2  and  C_3
REMARK    3  A    between atoms: C_2  and  C_4
REMARK    4  A    between atoms: C_4  and  C_6
REMARK    5  A    between atoms: C_4  and  N_21
REMARK    6  A    between atoms: N_8  and  N_9
REMARK    7  A    between atoms: C_10  and  C_11
REMARK    8  A    between atoms: C_22  and  C_24
REMARK                            x       y       z     vdW  Elec       q    Type
REMARK                         _______ _______ _______ _____ _____    ______ ____
ROOT
ATOM      1  C   UNL     1      -0.801  -2.161  -0.066  0.00  0.00    +0.163 C 
ENDROOT
BRANCH   1   2
ATOM      2  C   UNL     1      -0.817  -0.656   0.022  0.00  0.00    +0.253 C 
ATOM      3  O   UNL     1      -1.817  -0.041  -0.286  0.00  0.00    -0.272 OA
ATOM      4  N   UNL     1       0.279   0.006   0.442  0.00  0.00    -0.205 N 
ATOM      5  H   UNL     1       1.051  -0.487   0.759  0.00  0.00    +0.177 HD
BRANCH   4   6
ATOM      6  N   UNL     1       0.302   1.407   0.420  0.00  0.00    -0.188 NA
ATOM      7  C   UNL     1       1.359   2.045   0.825  0.00  0.00    +0.139 C 
BRANCH   7   8
ATOM      8  C   UNL     1       1.383   3.516   0.802  0.00  0.00    +0.002 A 
ATOM      9  C   UNL     1       2.545   4.211   1.119  0.00  0.00    +0.010 A 
ATOM     10  C   UNL     1       2.566   5.598   1.091  0.00  0.00    +0.001 A 
ATOM     11  C   UNL     1       1.463   6.328   0.768  0.00  0.00    +0.008 A 
ATOM     12  C   UNL     1       0.253   5.691   0.443  0.00  0.00    -0.017 A 
ATOM     13  C   UNL     1       0.186   4.277   0.453  0.00  0.00    -0.009 A 
ATOM     14  C   UNL     1      -1.018   3.639   0.129  0.00  0.00    +0.009 A 
ATOM     15  C   UNL     1      -2.112   4.387  -0.191  0.00  0.00    +0.001 A 
ATOM     16  C   UNL     1      -2.049   5.779  -0.202  0.00  0.00    +0.001 A 
ATOM     17  C   UNL     1      -0.895   6.431   0.108  0.00  0.00    +0.008 A 
ENDBRANCH   7   8
ENDBRANCH   4   6
ENDBRANCH   1   2
BRANCH   1  18
ATOM     18  N   UNL     1      -2.176  -2.659  -0.161  0.00  0.00    -0.300 N 
ATOM     19  C   UNL     1      -2.469  -3.910   0.246  0.00  0.00    +0.245 C 
ATOM     20  O   UNL     1      -1.593  -4.625   0.693  0.00  0.00    -0.270 OA
ATOM     21  H   UNL     1      -2.875  -2.088  -0.518  0.00  0.00    +0.150 HD
BRANCH  19  22
ATOM     22  C   UNL     1      -3.854  -4.412   0.150  0.00  0.00    +0.040 A 
ATOM     23  C   UNL     1      -4.863  -3.589  -0.358  0.00  0.00    +0.017 A 
ATOM     24  C   UNL     1      -6.154  -4.061  -0.452  0.00  0.00    +0.050 A 
ATOM     25  C   UNL     1      -6.459  -5.349  -0.033  0.00  0.00    +0.166 A 
ATOM     26  C   UNL     1      -5.457  -6.174   0.480  0.00  0.00    +0.167 A 
ATOM     27  C   UNL     1      -4.160  -5.708   0.571  0.00  0.00    +0.062 A 
ATOM     28  O   UNL     1      -6.011  -7.375   0.816  0.00  0.00    -0.453 OA
ATOM     29  C   UNL     1      -7.430  -7.138   0.886  0.00  0.00    +0.466 C 
ATOM     30  O   UNL     1      -7.637  -6.036  -0.018  0.00  0.00    -0.453 OA
ENDBRANCH  19  22
ENDBRANCH   1  18
BRANCH   1  32
ATOM     31  C   UNL     1       1.448  -2.173  -1.153  0.00  0.00    +0.009 C 
ATOM     32  C   UNL     1      -0.016  -2.591  -1.306  0.00  0.00    +0.012 C 
ATOM     33  C   UNL     1      -0.099  -4.111  -1.460  0.00  0.00    +0.009 C 
ENDBRANCH   1  32
TORSDOF 6
