REMARK  Name = ZINC09520894
REMARK  8 active torsions:
REMARK  status: ('A' for Active; 'I' for Inactive)
REMARK    1  A    between atoms: C_1  and  C_2
REMARK    2  A    between atoms: C_2  and  N_50
REMARK    3  A    between atoms: C_8  and  N_14
REMARK    4  A    between atoms: C_9  and  C_10
REMARK    5  A    between atoms: C_10  and  O_12
REMARK    6  A    between atoms: O_12  and  C_13
REMARK    7  A    between atoms: C_15  and  C_17
REMARK    8  A    between atoms: C_17  and  C_18
REMARK                            x       y       z     vdW  Elec       q    Type
REMARK                         _______ _______ _______ _____ _____    ______ ____
ROOT
ATOM      1  C   UNL     1      12.132  -3.368  -1.897  0.00  0.00    -0.074 C 
ATOM      2  C   UNL     1      11.852  -2.558  -0.628  0.00  0.00    +0.018 C 
ATOM      3  C   UNL     1      10.355  -2.273  -0.568  0.00  0.00    -0.025 A 
ATOM      4  C   UNL     1       9.595  -2.400  -1.679  0.00  0.00    -0.021 A 
ATOM      5  S   UNL     1       7.958  -1.982  -1.156  0.00  0.00    -0.079 S 
ATOM      6  C   UNL     1       8.275  -1.642   0.513  0.00  0.00    +0.086 A 
ATOM      7  C   UNL     1       9.644  -1.855   0.626  0.00  0.00    +0.091 A 
ATOM      8  C   UNL     1      10.070  -2.806  -3.039  0.00  0.00    -0.035 C 
ATOM      9  N   UNL     1      11.547  -2.673  -3.062  0.00  0.00    +0.383 N 
ATOM     10  H   UNL     1      11.794  -1.677  -3.015  0.00  0.00    -0.081 HD
ENDROOT
BRANCH   6  11
ATOM     11  N   UNL     1       7.382  -1.247   1.497  0.00  0.00    -0.279 N 
ATOM     12  C   UNL     1       6.078  -1.085   1.196  0.00  0.00    +0.222 C 
ATOM     13  O   UNL     1       5.687  -1.283   0.066  0.00  0.00    -0.275 OA
ATOM     14  H   UNL     1       7.695  -1.089   2.401  0.00  0.00    +0.155 HD
BRANCH  12  15
ATOM     15  C   UNL     1       5.107  -0.655   2.265  0.00  0.00    +0.131 C 
BRANCH  15  16
ATOM     16  C   UNL     1       3.725  -0.548   1.674  0.00  0.00    -0.035 A 
ATOM     17  C   UNL     1       2.885  -1.646   1.677  0.00  0.00    +0.008 A 
ATOM     18  C   UNL     1       1.617  -1.553   1.135  0.00  0.00    +0.050 A 
ATOM     19  C   UNL     1       1.183  -0.356   0.589  0.00  0.00    +0.166 A 
ATOM     20  C   UNL     1       2.028   0.751   0.586  0.00  0.00    +0.166 A 
ATOM     21  C   UNL     1       3.298   0.650   1.131  0.00  0.00    +0.053 A 
ATOM     22  O   UNL     1       1.376   1.797  -0.001  0.00  0.00    -0.453 OA
ATOM     23  C   UNL     1      -0.018   1.436   0.010  0.00  0.00    +0.466 C 
ATOM     24  O   UNL     1       0.002  -0.004   0.002  0.00  0.00    -0.453 OA
ENDBRANCH  15  16
ENDBRANCH  12  15
ENDBRANCH   6  11
BRANCH   9  26
ATOM     25  C   UNL     1      11.831  -4.750  -4.371  0.00  0.00    -0.017 C 
ATOM     26  C   UNL     1      12.087  -3.243  -4.315  0.00  0.00    -0.082 C 
ENDBRANCH   9  26
BRANCH   7  27
ATOM     27  C   UNL     1      10.341  -1.669   1.900  0.00  0.00    +0.342 C 
ATOM     28  O   UNL     1      10.453  -2.602   2.674  0.00  0.00    -0.245 OA
BRANCH  27  29
ATOM     29  O   UNL     1      10.858  -0.465   2.217  0.00  0.00    -0.464 OA
ATOM     30  C   UNL     1      11.535  -0.353   3.497  0.00  0.00    +0.280 C 
ENDBRANCH  27  29
ENDBRANCH   7  27
TORSDOF 6
