REMARK  Name = ZINC63281753
REMARK  4 active torsions:
REMARK  status: ('A' for Active; 'I' for Inactive)
REMARK    1  A    between atoms: C_6  and  C_11
REMARK    2  A    between atoms: C_18  and  C_20
REMARK    3  A    between atoms: C_20  and  O_21
REMARK    4  A    between atoms: O_21  and  C_22
REMARK                            x       y       z     vdW  Elec       q    Type
REMARK                         _______ _______ _______ _____ _____    ______ ____
ROOT
ATOM      1  C   UNL     1       3.639  -2.760  -1.304  0.00  0.00    +0.226 C 
ATOM      2  N   UNL     1       5.102  -2.903  -1.271  0.00  0.00    -0.242 N 
ATOM      3  N   UNL     1       5.357  -4.279  -1.299  0.00  0.00    -0.161 NA
ATOM      4  C   UNL     1       4.264  -4.954  -1.343  0.00  0.00    +0.201 C 
ATOM      5  N   UNL     1       3.127  -4.153  -1.353  0.00  0.00    -0.175 N 
ATOM      6  N   UNL     1       1.906  -4.817  -1.401  0.00  0.00    -0.170 NA
ATOM      7  C   UNL     1       1.835  -6.108  -1.436  0.00  0.00    +0.137 C 
ATOM      8  S   UNL     1       3.561  -6.590  -1.402  0.00  0.00    -0.031 S 
ATOM      9  H   UNL     1       5.757  -2.189  -1.237  0.00  0.00    +0.170 HD
ENDROOT
BRANCH   1  15
ATOM     10  C   UNL     1      -0.016   1.348   0.009  0.00  0.00    +0.001 A 
ATOM     11  C   UNL     1       1.166   2.101   0.002  0.00  0.00    +0.002 A 
ATOM     12  C   UNL     1       2.391   1.535  -0.013  0.00  0.00    +0.026 A 
ATOM     13  C   UNL     1       2.529   0.120  -0.022  0.00  0.00    +0.043 A 
ATOM     14  N   UNL     1       3.587  -0.654  -0.037  0.00  0.00    -0.374 N 
ATOM     15  C   UNL     1       3.143  -2.053  -0.041  0.00  0.00    +0.145 C 
ATOM     16  C   UNL     1       1.631  -2.008  -0.025  0.00  0.00    +0.011 C 
ATOM     17  C   UNL     1       1.295  -0.698  -0.014  0.00  0.00    -0.004 A 
ATOM     18  C   UNL     1       0.002  -0.004   0.002  0.00  0.00    +0.010 A 
ATOM     19  H   UNL     1       4.509  -0.353  -0.045  0.00  0.00    +0.160 HD
ENDBRANCH   1  15
BRANCH   7  20
ATOM     20  C   UNL     1       0.611  -6.984  -1.489  0.00  0.00    +0.293 C 
BRANCH  20  21
ATOM     21  O   UNL     1      -0.561  -6.166  -1.498  0.00  0.00    -0.484 OA
BRANCH  21  22
ATOM     22  C   UNL     1      -1.760  -6.805  -1.545  0.00  0.00    +0.139 A 
ATOM     23  C   UNL     1      -1.808  -8.191  -1.576  0.00  0.00    +0.047 A 
ATOM     24  C   UNL     1      -3.027  -8.838  -1.623  0.00  0.00    +0.004 A 
ATOM     25  C   UNL     1      -4.200  -8.106  -1.640  0.00  0.00    +0.002 A 
ATOM     26  C   UNL     1      -4.156  -6.725  -1.610  0.00  0.00    +0.023 A 
ATOM     27  C   UNL     1      -2.938  -6.072  -1.557  0.00  0.00    +0.083 A 
ATOM     28 CL   UNL     1      -2.883  -4.337  -1.512  0.00  0.00    -0.080 Cl
ENDBRANCH  21  22
ENDBRANCH  20  21
ENDBRANCH   7  20
TORSDOF 4
