REMARK  Name = ZINC20682465
REMARK  6 active torsions:
REMARK  status: ('A' for Active; 'I' for Inactive)
REMARK    1  A    between atoms: C_1  and  C_2
REMARK    2  A    between atoms: C_2  and  C_3
REMARK    3  A    between atoms: N_5  and  C_6
REMARK    4  A    between atoms: C_19  and  C_22
REMARK    5  A    between atoms: C_25  and  O_29
REMARK    6  A    between atoms: C_27  and  O_28
REMARK                            x       y       z     vdW  Elec       q    Type
REMARK                         _______ _______ _______ _____ _____    ______ ____
ROOT
ATOM      1  C   UNL     1      -4.900   8.366  -0.713  0.00  0.00    +0.034 A 
ATOM      2  C   UNL     1      -3.952   8.585   0.278  0.00  0.00    +0.025 A 
ATOM      3  C   UNL     1      -3.121   7.560   0.678  0.00  0.00    +0.025 A 
ATOM      4  C   UNL     1      -3.225   6.302   0.097  0.00  0.00    +0.031 A 
ATOM      5  C   UNL     1      -4.191   6.081  -0.890  0.00  0.00    -0.018 A 
ATOM      6  C   UNL     1      -5.014   7.110  -1.294  0.00  0.00    +0.029 A 
ATOM      7  C   UNL     1      -4.296   4.716  -1.450  0.00  0.00    +0.049 C 
ATOM      8  C   UNL     1      -4.801   4.469  -2.825  0.00  0.00    -0.023 C 
ATOM      9  C   UNL     1      -4.202   3.388  -3.309  0.00  0.00    -0.030 C 
ATOM     10  C   UNL     1      -3.207   2.839  -2.286  0.00  0.00    +0.033 C 
ATOM     11  C   UNL     1      -2.863   4.107  -1.505  0.00  0.00    +0.029 C 
ATOM     12  C   UNL     1      -2.446   3.920  -0.058  0.00  0.00    +0.108 C 
ATOM     13  N   UNL     1      -2.356   5.282   0.513  0.00  0.00    -0.336 N 
ATOM     14  H   UNL     1      -1.597   5.509   1.276  0.00  0.00    +0.147 HD
ENDROOT
BRANCH  12  15
ATOM     15  C   UNL     1      -1.105   3.236   0.014  0.00  0.00    +0.015 A 
ATOM     16  C   UNL     1       0.043   3.983   0.197  0.00  0.00    +0.012 A 
ATOM     17  C   UNL     1       1.273   3.359   0.263  0.00  0.00    +0.046 A 
ATOM     18  C   UNL     1       1.359   1.978   0.145  0.00  0.00    +0.120 A 
ATOM     19  C   UNL     1       0.209   1.226  -0.039  0.00  0.00    +0.091 A 
ATOM     20  C   UNL     1      -1.024   1.856  -0.110  0.00  0.00    +0.125 A 
BRANCH  20  21
ATOM     21  O   UNL     1      -2.152   1.122  -0.296  0.00  0.00    -0.506 OA
ATOM     22  H   UNL     1      -2.087   0.028  -0.394  0.00  0.00    +0.292 HD
ENDBRANCH  20  21
BRANCH  18  23
ATOM     23  O   UNL     1       2.570   1.365   0.210  0.00  0.00    -0.507 OA
ATOM     24  H   UNL     1       2.638   0.271   0.116  0.00  0.00    +0.292 HD
ENDBRANCH  18  23
ENDBRANCH  12  15
BRANCH   1  27
ATOM     25  C   UNL     1      -5.286  10.678  -1.129  0.00  0.00    +0.217 C 
ATOM     26  O   UNL     1      -4.123  10.907  -0.869  0.00  0.00    -0.275 OA
ATOM     27  N   UNL     1      -5.740   9.409  -1.125  0.00  0.00    -0.285 N 
ATOM     28  H   UNL     1      -6.770   9.192  -1.445  0.00  0.00    +0.155 HD
BRANCH  25  30
ATOM     29  C   UNL     1      -5.460  13.137  -1.393  0.00  0.00    +0.013 C 
ATOM     30  C   UNL     1      -6.222  11.812  -1.458  0.00  0.00    +0.093 C 
ENDBRANCH  25  30
ENDBRANCH   1  27
TORSDOF 5
