REMARK  Name = ZINC13794682
REMARK  7 active torsions:
REMARK  status: ('A' for Active; 'I' for Inactive)
REMARK    1  A    between atoms: C_1  and  C_2
REMARK    2  A    between atoms: C_4  and  O_23
REMARK    3  A    between atoms: C_8  and  C_21
REMARK    4  A    between atoms: N_10  and  C_11
REMARK    5  A    between atoms: C_14  and  C_18
REMARK    6  A    between atoms: C_18  and  C_19
REMARK    7  A    between atoms: C_18  and  C_20
REMARK                            x       y       z     vdW  Elec       q    Type
REMARK                         _______ _______ _______ _____ _____    ______ ____
ROOT
ATOM      1  C   UNL     1       6.558   5.810  -1.149  0.00  0.00    +0.044 C 
ATOM      2  C   UNL     1       5.404   4.916  -1.526  0.00  0.00    -0.034 A 
ATOM      3  C   UNL     1       5.383   4.258  -2.740  0.00  0.00    +0.071 A 
ATOM      4  C   UNL     1       4.300   3.440  -3.053  0.00  0.00    +0.214 A 
ATOM      5  N   UNL     1       3.294   3.280  -2.213  0.00  0.00    -0.195 NA
ATOM      6  C   UNL     1       3.268   3.890  -1.034  0.00  0.00    +0.151 A 
ATOM      7  C   UNL     1       4.329   4.729  -0.657  0.00  0.00    +0.040 A 
ATOM      8  C   UNL     1       3.993   5.239   0.685  0.00  0.00    +0.079 A 
ATOM      9  C   UNL     1       2.787   4.694   1.012  0.00  0.00    +0.112 A 
ATOM     10  N   UNL     1       2.357   3.891   0.001  0.00  0.00    -0.298 N 
ENDROOT
BRANCH  10  11
ATOM     11  C   UNL     1       1.155   3.171   0.008  0.00  0.00    +0.062 A 
ATOM     12  C   UNL     1      -0.059   3.845   0.023  0.00  0.00    +0.027 A 
ATOM     13  C   UNL     1      -1.242   3.133   0.031  0.00  0.00    +0.006 A 
ATOM     14  C   UNL     1      -1.220   1.750   0.017  0.00  0.00    -0.044 A 
ATOM     15  C   UNL     1      -0.013   1.076   0.008  0.00  0.00    +0.021 A 
ATOM     16  C   UNL     1       1.175   1.782   0.000  0.00  0.00    +0.042 A 
ATOM     17 BR   UNL     1       2.826   0.860  -0.020  0.00  0.00    -0.048 Br
BRANCH  14  18
ATOM     18  C   UNL     1      -2.513   0.977   0.019  0.00  0.00    +0.013 C 
ATOM     19  C   UNL     1      -3.315   1.327   1.274  0.00  0.00    +0.012 C 
ATOM     20  C   UNL     1      -3.327   1.341  -1.224  0.00  0.00    +0.012 C 
ENDBRANCH  14  18
ENDBRANCH  10  11
BRANCH   8  21
ATOM     21  C   UNL     1       4.774   6.134   1.483  0.00  0.00    +0.101 C 
ATOM     22  N   UNL     1       5.395   6.844   2.116  0.00  0.00    -0.191 NA
ENDBRANCH   8  21
BRANCH   4  23
ATOM     23  O   UNL     1       4.279   2.794  -4.245  0.00  0.00    -0.492 OA
ATOM     24  H   UNL     1       3.857   3.296  -4.957  0.00  0.00    +0.294 HD
ENDBRANCH   4  23
TORSDOF 4
