REMARK  Name = ZINC09439662
REMARK  10 active torsions:
REMARK  status: ('A' for Active; 'I' for Inactive)
REMARK    1  A    between atoms: C_1  and  N_2
REMARK    2  A    between atoms: C_5  and  C_18
REMARK    3  A    between atoms: C_6  and  N_17
REMARK    4  A    between atoms: N_7  and  C_10
REMARK    5  A    between atoms: C_10  and  C_11
REMARK    6  A    between atoms: C_18  and  C_20
REMARK    7  A    between atoms: C_20  and  S_21
REMARK    8  A    between atoms: S_21  and  C_22
REMARK    9  A    between atoms: C_25  and  C_28
REMARK   10  A    between atoms: N_26  and  C_27
REMARK                            x       y       z     vdW  Elec       q    Type
REMARK                         _______ _______ _______ _____ _____    ______ ____
ROOT
ATOM      1  C   UNL     1       9.104  -1.360   0.288  0.00  0.00    +0.157 C 
ATOM      2  N   UNL     1       8.283  -2.570   0.205  0.00  0.00    -0.263 N 
ATOM      3  C   UNL     1       6.939  -2.461   0.169  0.00  0.00    +0.269 A 
ATOM      4  O   UNL     1       6.403  -1.369   0.205  0.00  0.00    -0.267 OA
ATOM      5  C   UNL     1       6.136  -3.688   0.090  0.00  0.00    +0.120 A 
ATOM      6  C   UNL     1       6.816  -4.917   0.046  0.00  0.00    +0.116 A 
ATOM      7  N   UNL     1       8.181  -4.918   0.082  0.00  0.00    -0.277 N 
ATOM      8  C   UNL     1       8.878  -3.773   0.160  0.00  0.00    +0.333 A 
ATOM      9  O   UNL     1      10.092  -3.827   0.189  0.00  0.00    -0.246 OA
ENDROOT
BRANCH   6  10
ATOM     10  N   UNL     1       6.126  -6.087  -0.032  0.00  0.00    -0.344 N 
ATOM     11  H   UNL     1       5.158  -6.083   0.025  0.00  0.00    +0.144 HD
ATOM     12  H   UNL     1       6.602  -6.924  -0.144  0.00  0.00    +0.144 HD
ENDBRANCH   6  10
BRANCH   5  13
ATOM     13  C   UNL     1       4.726  -3.634   0.055  0.00  0.00    +0.182 C 
ATOM     14  O   UNL     1       4.078  -4.660   0.103  0.00  0.00    -0.291 OA
BRANCH  13  15
ATOM     15  C   UNL     1       4.024  -2.304  -0.043  0.00  0.00    +0.157 C 
BRANCH  15  16
ATOM     16  S   UNL     1       2.234  -2.566  -0.068  0.00  0.00    -0.078 S 
BRANCH  16  17
ATOM     17  C   UNL     1       1.681  -0.897  -0.183  0.00  0.00    +0.192 A 
ATOM     18  N   UNL     1       2.442   0.174  -0.232  0.00  0.00    -0.122 NA
ATOM     19  N   UNL     1       1.713   1.230  -0.313  0.00  0.00    -0.128 NA
ATOM     20  C   UNL     1       0.443   0.897  -0.322  0.00  0.00    +0.165 A 
ATOM     21  N   UNL     1       0.384  -0.475  -0.238  0.00  0.00    -0.305 N 
ATOM     22  C   UNL     1      -0.820  -1.309  -0.214  0.00  0.00    +0.153 C 
BRANCH  20  23
ATOM     23  C   UNL     1      -0.707   1.822  -0.410  0.00  0.00    +0.019 A 
ATOM     24  C   UNL     1      -1.952   1.354  -0.833  0.00  0.00    +0.011 A 
ATOM     25  C   UNL     1      -3.022   2.221  -0.907  0.00  0.00    +0.001 A 
ATOM     26  C   UNL     1      -2.861   3.555  -0.577  0.00  0.00    +0.000 A 
ATOM     27  C   UNL     1      -1.627   4.027  -0.163  0.00  0.00    +0.001 A 
ATOM     28  C   UNL     1      -0.550   3.169  -0.078  0.00  0.00    +0.011 A 
ENDBRANCH  20  23
ENDBRANCH  16  17
ENDBRANCH  15  16
ENDBRANCH  13  15
ENDBRANCH   5  13
BRANCH   7  29
ATOM     29  C   UNL     1       8.900  -6.193   0.037  0.00  0.00    +0.163 C 
BRANCH  29  30
ATOM     30  C   UNL     1       9.184  -6.559  -1.397  0.00  0.00    -0.028 A 
ATOM     31  C   UNL     1       8.275  -7.316  -2.111  0.00  0.00    +0.005 A 
ATOM     32  C   UNL     1       8.533  -7.648  -3.428  0.00  0.00    +0.000 A 
ATOM     33  C   UNL     1       9.706  -7.230  -4.028  0.00  0.00    +0.000 A 
ATOM     34  C   UNL     1      10.618  -6.477  -3.313  0.00  0.00    +0.000 A 
ATOM     35  C   UNL     1      10.357  -6.141  -1.998  0.00  0.00    +0.005 A 
ENDBRANCH  29  30
ENDBRANCH   7  29
TORSDOF 8
