REMARK  Name = ZINC67011753
REMARK  10 active torsions:
REMARK  status: ('A' for Active; 'I' for Inactive)
REMARK    1  A    between atoms: C_1  and  C_2
REMARK    2  A    between atoms: C_3  and  C_13
REMARK    3  A    between atoms: C_5  and  C_7
REMARK    4  A    between atoms: C_13  and  N_14
REMARK    5  A    between atoms: N_14  and  C_15
REMARK    6  A    between atoms: C_15  and  C_16
REMARK    7  A    between atoms: C_19  and  C_21
REMARK    8  A    between atoms: C_21  and  C_22
REMARK    9  A    between atoms: C_21  and  C_23
REMARK   10  A    between atoms: C_21  and  C_24
REMARK                            x       y       z     vdW  Elec       q    Type
REMARK                         _______ _______ _______ _____ _____    ______ ____
ROOT
ATOM      1  C   UNL     1      -0.010  -0.149  -2.589  0.00  0.00    -0.037 C 
ENDROOT
BRANCH   1   4
ATOM      2  C   UNL     1      -0.018   1.503   0.010  0.00  0.00    +0.066 C 
ATOM      3  C   UNL     1       0.002  -0.004   0.002  0.00  0.00    +0.047 A 
ATOM      4  C   UNL     1       0.005  -0.679  -1.179  0.00  0.00    -0.004 A 
ATOM      5  S   UNL     1       0.031  -2.368  -0.593  0.00  0.00    -0.074 S 
ATOM      6  C   UNL     1       0.035  -1.993   1.155  0.00  0.00    +0.109 A 
ATOM      7  N   UNL     1       0.022  -0.667   1.134  0.00  0.00    -0.244 NA
BRANCH   6   8
ATOM      8  C   UNL     1       0.053  -2.913   2.313  0.00  0.00    +0.007 A 
ATOM      9  C   UNL     1       0.076  -4.293   2.110  0.00  0.00    +0.010 A 
ATOM     10  C   UNL     1       0.092  -5.146   3.194  0.00  0.00    +0.001 A 
ATOM     11  C   UNL     1       0.086  -4.636   4.480  0.00  0.00    +0.000 A 
ATOM     12  C   UNL     1       0.063  -3.268   4.688  0.00  0.00    +0.001 A 
ATOM     13  C   UNL     1       0.053  -2.404   3.612  0.00  0.00    +0.010 A 
ENDBRANCH   6   8
ENDBRANCH   1   4
BRANCH   1  14
ATOM     14  N   UNL     1       1.370   0.042  -3.055  0.00  0.00    +0.386 N 
ATOM     15  H   UNL     1       1.840   0.702  -2.453  0.00  0.00    -0.085 HD
ATOM     16  H   UNL     1       1.859  -0.841  -3.032  0.00  0.00    -0.085 HD
BRANCH  14  17
ATOM     17  C   UNL     1       1.356   0.558  -4.430  0.00  0.00    -0.025 C 
BRANCH  17  18
ATOM     18  C   UNL     1       2.772   0.754  -4.908  0.00  0.00    +0.032 A 
ATOM     19  C   UNL     1       3.415  -0.197  -5.632  0.00  0.00    +0.068 A 
ATOM     20  S   UNL     1       4.995   0.595  -5.887  0.00  0.00    -0.080 S 
ATOM     21  C   UNL     1       4.672   2.025  -5.060  0.00  0.00    +0.084 A 
ATOM     22  N   UNL     1       3.440   1.860  -4.647  0.00  0.00    -0.250 NA
BRANCH  21  23
ATOM     23  C   UNL     1       5.579   3.210  -4.851  0.00  0.00    +0.011 C 
ATOM     24  C   UNL     1       5.793   3.430  -3.352  0.00  0.00    +0.017 C 
ATOM     25  C   UNL     1       6.926   2.947  -5.526  0.00  0.00    +0.017 C 
ATOM     26  C   UNL     1       4.937   4.458  -5.462  0.00  0.00    +0.017 C 
ENDBRANCH  21  23
ENDBRANCH  17  18
ENDBRANCH  14  17
ENDBRANCH   1  14
TORSDOF 6
