REMARK  Name = ZINC03947420
REMARK  7 active torsions:
REMARK  status: ('A' for Active; 'I' for Inactive)
REMARK    1  A    between atoms: C_1  and  C_2
REMARK    2  A    between atoms: C_5  and  O_31
REMARK    3  A    between atoms: C_7  and  C_29
REMARK    4  A    between atoms: C_7  and  C_30
REMARK    5  A    between atoms: C_14  and  C_16
REMARK    6  A    between atoms: C_16  and  O_17
REMARK    7  A    between atoms: O_17  and  C_18
REMARK                            x       y       z     vdW  Elec       q    Type
REMARK                         _______ _______ _______ _____ _____    ______ ____
ROOT
ATOM      1  C   UNL     1      -0.241   1.456   0.575  0.00  0.00    +0.012 C 
ATOM      2  C   UNL     1      -0.156  -0.075   0.463  0.00  0.00    -0.019 C 
ATOM      3  C   UNL     1       0.156  -0.438  -0.988  0.00  0.00    +0.010 C 
ATOM      4  C   UNL     1       1.554   0.066  -1.355  0.00  0.00    +0.032 C 
ATOM      5  C   UNL     1       2.586  -0.636  -0.480  0.00  0.00    +0.120 C 
ATOM      6  C   UNL     1       2.333  -0.390   1.005  0.00  0.00    -0.006 C 
ATOM      7  C   UNL     1       0.891  -0.647   1.404  0.00  0.00    +0.004 C 
ATOM      8  C   UNL     1       0.627  -0.201   2.844  0.00  0.00    +0.009 C 
ATOM      9  C   UNL     1      -0.725  -0.763   3.305  0.00  0.00    +0.031 C 
ATOM     10  C   UNL     1      -1.787  -0.366   2.307  0.00  0.00    -0.070 C 
ATOM     11  C   UNL     1      -2.907   0.189   2.709  0.00  0.00    +0.008 C 
ATOM     12  C   UNL     1      -1.544  -0.624   0.837  0.00  0.00    +0.058 C 
ATOM     13  C   UNL     1       2.802   1.015   1.383  0.00  0.00    +0.014 C 
ATOM     14  C   UNL     1       3.227  -1.392   1.775  0.00  0.00    +0.014 C 
ENDROOT
BRANCH   5  15
ATOM     15  O   UNL     1       2.558  -2.044  -0.739  0.00  0.00    -0.391 OA
ATOM     16  H   UNL     1       2.756  -2.279  -1.656  0.00  0.00    +0.210 HD
ENDBRANCH   5  15
BRANCH  12  17
ATOM     17  C   UNL     1      -1.662  -2.117   0.549  0.00  0.00    +0.237 C 
BRANCH  17  18
ATOM     18  O   UNL     1      -3.001  -2.546   0.804  0.00  0.00    -0.491 OA
BRANCH  18  19
ATOM     19  C   UNL     1      -3.278  -3.859   0.596  0.00  0.00    +0.124 A 
ATOM     20  C   UNL     1      -2.270  -4.716   0.158  0.00  0.00    +0.046 A 
ATOM     21  C   UNL     1      -2.532  -6.038  -0.056  0.00  0.00    +0.015 A 
ATOM     22  C   UNL     1      -3.821  -6.536   0.166  0.00  0.00    +0.018 A 
ATOM     23  C   UNL     1      -4.132  -7.950  -0.056  0.00  0.00    +0.018 A 
ATOM     24  C   UNL     1      -5.402  -8.373   0.178  0.00  0.00    +0.092 A 
ATOM     25  C   UNL     1      -6.376  -7.455   0.621  0.00  0.00    +0.337 A 
ATOM     26  O   UNL     1      -7.511  -7.847   0.826  0.00  0.00    -0.245 OA
ATOM     27  O   UNL     1      -6.085  -6.160   0.822  0.00  0.00    -0.422 OA
ATOM     28  C   UNL     1      -4.843  -5.675   0.608  0.00  0.00    +0.143 A 
ATOM     29  C   UNL     1      -4.558  -4.336   0.826  0.00  0.00    +0.092 A 
ENDBRANCH  18  19
ENDBRANCH  17  18
ENDBRANCH  12  17
TORSDOF 4
