REMARK  Name = ZINC20564188
REMARK  9 active torsions:
REMARK  status: ('A' for Active; 'I' for Inactive)
REMARK    1  A    between atoms: C_1  and  C_2
REMARK    2  A    between atoms: C_2  and  N_3
REMARK    3  A    between atoms: N_6  and  C_9
REMARK    4  A    between atoms: C_9  and  C_10
REMARK    5  A    between atoms: C_10  and  N_11
REMARK    6  A    between atoms: C_12  and  C_14
REMARK    7  A    between atoms: C_23  and  C_26
REMARK    8  A    between atoms: C_27  and  C_36
REMARK    9  A    between atoms: N_28  and  C_30
REMARK                            x       y       z     vdW  Elec       q    Type
REMARK                         _______ _______ _______ _____ _____    ______ ____
ROOT
ATOM      1  C   UNL     1      -1.128   2.222   0.157  0.00  0.00    +0.078 C 
ATOM      2  C   UNL     1      -1.409   3.039   1.421  0.00  0.00    +0.031 C 
ATOM      3  C   UNL     1      -2.861   3.523   1.398  0.00  0.00    +0.107 C 
ATOM      4  N   UNL     1      -3.764   2.367   1.328  0.00  0.00    -0.312 N 
ATOM      5  C   UNL     1      -3.544   1.595   0.098  0.00  0.00    +0.107 C 
ATOM      6  C   UNL     1      -2.114   1.052   0.083  0.00  0.00    +0.031 C 
ATOM      7  C   UNL     1      -5.087   2.764   1.435  0.00  0.00    +0.172 A 
ATOM      8  C   UNL     1      -5.548   3.542   2.584  0.00  0.00    +0.137 A 
ATOM      9  C   UNL     1      -6.977   3.916   2.594  0.00  0.00    +0.049 A 
ATOM     10  C   UNL     1      -7.760   3.478   1.504  0.00  0.00    +0.072 A 
ATOM     11  N   UNL     1      -7.201   2.780   0.548  0.00  0.00    -0.152 NA
ATOM     12  N   UNL     1      -5.969   2.446   0.507  0.00  0.00    -0.132 NA
ATOM     13  C   UNL     1      -9.228   3.812   1.441  0.00  0.00    +0.068 C 
ATOM     14  C   UNL     1      -7.181   4.639   3.748  0.00  0.00    +0.051 A 
ATOM     15  N   UNL     1      -6.006   4.721   4.396  0.00  0.00    -0.236 N 
ATOM     16  N   UNL     1      -5.013   4.048   3.672  0.00  0.00    -0.163 NA
ATOM     17  C   UNL     1      -8.488   5.235   4.202  0.00  0.00    +0.066 C 
ENDROOT
BRANCH  15  18
ATOM     18  C   UNL     1      -5.804   5.382   5.615  0.00  0.00    +0.066 A 
ATOM     19  C   UNL     1      -4.674   6.167   5.803  0.00  0.00    +0.028 A 
ATOM     20  C   UNL     1      -4.481   6.821   7.003  0.00  0.00    +0.002 A 
ATOM     21  C   UNL     1      -5.405   6.686   8.023  0.00  0.00    +0.000 A 
ATOM     22  C   UNL     1      -6.528   5.900   7.842  0.00  0.00    +0.002 A 
ATOM     23  C   UNL     1      -6.730   5.248   6.641  0.00  0.00    +0.028 A 
ENDBRANCH  15  18
BRANCH   1  25
ATOM     24  N   UNL     1       1.322   2.545   0.268  0.00  0.00    -0.314 N 
ATOM     25  C   UNL     1       0.281   1.691   0.204  0.00  0.00    +0.216 C 
ATOM     26  O   UNL     1       0.480   0.494   0.178  0.00  0.00    -0.276 OA
ATOM     27  H   UNL     1       1.142   3.630   0.292  0.00  0.00    +0.149 HD
BRANCH  24  28
ATOM     28  C   UNL     1       2.692   2.029   0.307  0.00  0.00    +0.119 C 
BRANCH  28  29
ATOM     29  C   UNL     1       3.676   3.198   0.379  0.00  0.00    +0.103 C 
BRANCH  29  33
ATOM     30  N   UNL     1       7.688   2.438   1.461  0.00  0.00    +0.381 N 
ATOM     31  C   UNL     1       7.439   3.176   0.215  0.00  0.00    -0.063 C 
ATOM     32  C   UNL     1       6.027   3.765   0.248  0.00  0.00    +0.066 C 
ATOM     33  N   UNL     1       5.050   2.680   0.418  0.00  0.00    -0.304 NA
ATOM     34  C   UNL     1       5.299   1.942   1.664  0.00  0.00    +0.066 C 
ATOM     35  C   UNL     1       6.712   1.353   1.631  0.00  0.00    -0.063 C 
ATOM     36  H   UNL     1       7.568   3.138   2.301  0.00  0.00    -0.082 HD
BRANCH  30  38
ATOM     37  C   UNL     1       9.364   1.379   2.899  0.00  0.00    -0.017 C 
ATOM     38  C   UNL     1       9.062   1.920   1.500  0.00  0.00    -0.082 C 
ENDBRANCH  30  38
ENDBRANCH  29  33
ENDBRANCH  28  29
ENDBRANCH  24  28
ENDBRANCH   1  25
TORSDOF 6
