REMARK  Name = ZINC37128108
REMARK  6 active torsions:
REMARK  status: ('A' for Active; 'I' for Inactive)
REMARK    1  A    between atoms: C_1  and  C_2
REMARK    2  A    between atoms: C_2  and  C_4
REMARK    3  A    between atoms: C_2  and  N_12
REMARK    4  A    between atoms: C_7  and  O_11
REMARK    5  A    between atoms: C_9  and  O_10
REMARK    6  A    between atoms: N_12  and  C_13
REMARK                            x       y       z     vdW  Elec       q    Type
REMARK                         _______ _______ _______ _____ _____    ______ ____
ROOT
ATOM      1  N   UNL     1       0.582  -0.479  -1.261  0.00  0.00    +0.388 N 
ATOM      2  H   UNL     1       0.444  -1.468  -1.408  0.00  0.00    -0.084 HD
ATOM      3  H   UNL     1       0.117   0.037  -1.993  0.00  0.00    -0.084 HD
ENDROOT
BRANCH   1   4
ATOM      4  C   UNL     1       2.019  -0.176  -1.285  0.00  0.00    -0.038 C 
ATOM      5  C   UNL     1       2.705  -0.995  -0.206  0.00  0.00    -0.000 C 
ATOM      6  C   UNL     1       4.201  -0.648  -0.187  0.00  0.00    +0.073 C 
ATOM      7  S   UNL     1       4.938  -1.381  -1.678  0.00  0.00    -0.125 S 
ATOM      8  C   UNL     1       3.794  -0.948  -2.951  0.00  0.00    +0.009 A 
ATOM      9  C   UNL     1       2.542  -0.441  -2.666  0.00  0.00    -0.048 A 
ATOM     10  C   UNL     1       1.688  -0.139  -3.724  0.00  0.00    +0.003 A 
ATOM     11  C   UNL     1       2.079  -0.334  -5.031  0.00  0.00    +0.000 A 
ATOM     12  C   UNL     1       3.337  -0.836  -5.310  0.00  0.00    +0.001 A 
ATOM     13  C   UNL     1       4.189  -1.138  -4.275  0.00  0.00    +0.015 A 
ENDBRANCH   1   4
BRANCH   1  15
ATOM     14  C   UNL     1       0.108   1.424   0.205  0.00  0.00    -0.009 C 
ATOM     15  C   UNL     1       0.022  -0.094   0.041  0.00  0.00    -0.040 C 
BRANCH  15  16
ATOM     16  C   UNL     1      -1.420  -0.527   0.115  0.00  0.00    -0.020 A 
ATOM     17  C   UNL     1      -2.120  -0.796  -1.045  0.00  0.00    +0.009 A 
ATOM     18  C   UNL     1      -3.442  -1.193  -0.981  0.00  0.00    +0.046 A 
ATOM     19  C   UNL     1      -4.070  -1.321   0.251  0.00  0.00    +0.120 A 
ATOM     20  C   UNL     1      -3.370  -1.051   1.416  0.00  0.00    +0.091 A 
ATOM     21  C   UNL     1      -2.042  -0.659   1.349  0.00  0.00    +0.122 A 
BRANCH  21  22
ATOM     22  O   UNL     1      -1.351  -0.399   2.490  0.00  0.00    -0.506 OA
ATOM     23  H   UNL     1      -1.405   0.521   2.782  0.00  0.00    +0.292 HD
ENDBRANCH  21  22
BRANCH  19  24
ATOM     24  O   UNL     1      -5.370  -1.711   0.313  0.00  0.00    -0.507 OA
ATOM     25  H   UNL     1      -5.492  -2.668   0.374  0.00  0.00    +0.292 HD
ENDBRANCH  19  24
ENDBRANCH  15  16
ENDBRANCH   1  15
TORSDOF 5
