REMARK  Name = ZINC06232540
REMARK  7 active torsions:
REMARK  status: ('A' for Active; 'I' for Inactive)
REMARK    1  A    between atoms: C_1  and  C_2
REMARK    2  A    between atoms: C_2  and  C_30
REMARK    3  A    between atoms: C_6  and  C_16
REMARK    4  A    between atoms: C_11  and  O_15
REMARK    5  A    between atoms: C_24  and  S_26
REMARK    6  A    between atoms: S_26  and  C_27
REMARK    7  A    between atoms: C_27  and  C_28
REMARK                            x       y       z     vdW  Elec       q    Type
REMARK                         _______ _______ _______ _____ _____    ______ ____
ROOT
ATOM      1  C   UNL     1       1.055   3.047   4.247  0.00  0.00    +0.034 C 
ATOM      2  C   UNL     1       1.504   2.930   2.789  0.00  0.00    +0.040 C 
ATOM      3  C   UNL     1       1.573   1.451   2.400  0.00  0.00    +0.096 C 
ATOM      4  C   UNL     1       2.273   1.337   1.041  0.00  0.00    +0.180 C 
ATOM      5  C   UNL     1       1.470   2.095  -0.019  0.00  0.00    +0.081 C 
ATOM      6  C   UNL     1       0.046   1.534  -0.039  0.00  0.00    +0.058 C 
ATOM      7  C   UNL     1       0.094   0.027  -0.077  0.00  0.00    +0.002 A 
ATOM      8  C   UNL     1      -1.040  -0.664  -0.472  0.00  0.00    +0.011 A 
ATOM      9  C   UNL     1      -1.038  -2.043  -0.517  0.00  0.00    +0.046 A 
ATOM     10  C   UNL     1       0.106  -2.746  -0.163  0.00  0.00    +0.120 A 
ATOM     11  C   UNL     1       1.241  -2.059   0.232  0.00  0.00    +0.091 A 
ATOM     12  C   UNL     1       1.238  -0.669   0.274  0.00  0.00    +0.131 A 
ATOM     13  O   UNL     1       2.375  -0.030   0.657  0.00  0.00    -0.468 OA
ATOM     14  N   UNL     1       3.610   1.927   1.169  0.00  0.00    -0.288 N 
ATOM     15  C   UNL     1       3.753   3.094   1.884  0.00  0.00    +0.131 C 
ATOM     16  N   UNL     1       2.809   3.562   2.635  0.00  0.00    -0.363 N 
ATOM     17  C   UNL     1       0.491   3.641   1.890  0.00  0.00    +0.034 C 
ATOM     18  H   UNL     1       4.475   1.437   0.697  0.00  0.00    +0.152 HD
ATOM     19  H   UNL     1       2.969   4.489   3.205  0.00  0.00    +0.162 HD
ENDROOT
BRANCH   6  20
ATOM     20  C   UNL     1      -0.676   2.043  -1.259  0.00  0.00    -0.040 A 
ATOM     21  C   UNL     1      -0.186   1.760  -2.521  0.00  0.00    +0.005 A 
ATOM     22  C   UNL     1      -0.852   2.223  -3.641  0.00  0.00    +0.020 A 
ATOM     23  C   UNL     1      -2.002   2.978  -3.498  0.00  0.00    +0.041 A 
ATOM     24  C   UNL     1      -2.489   3.266  -2.236  0.00  0.00    +0.020 A 
ATOM     25  C   UNL     1      -1.825   2.798  -1.117  0.00  0.00    +0.005 A 
ATOM     26 CL   UNL     1      -2.835   3.565  -4.904  0.00  0.00    -0.084 Cl
ENDBRANCH   6  20
BRANCH  10  27
ATOM     27  O   UNL     1       0.111  -4.104  -0.204  0.00  0.00    -0.507 OA
ATOM     28  H   UNL     1       1.018  -4.659   0.076  0.00  0.00    +0.292 HD
ENDBRANCH  10  27
BRANCH  15  29
ATOM     29  S   UNL     1       5.271   3.982   1.772  0.00  0.00    -0.089 S 
BRANCH  29  30
ATOM     30  C   UNL     1       4.905   5.371   2.873  0.00  0.00    +0.103 C 
BRANCH  30  31
ATOM     31  C   UNL     1       6.097   6.291   2.934  0.00  0.00    -0.023 C 
ATOM     32  C   UNL     1       6.008   7.511   2.466  0.00  0.00    +0.005 C 
ENDBRANCH  30  31
ENDBRANCH  29  30
ENDBRANCH  15  29
TORSDOF 5
