REMARK  Name = ZINC65034883
REMARK  7 active torsions:
REMARK  status: ('A' for Active; 'I' for Inactive)
REMARK    1  A    between atoms: C_1  and  C_2
REMARK    2  A    between atoms: C_7  and  C_8
REMARK    3  A    between atoms: N_13  and  C_19
REMARK    4  A    between atoms: C_19  and  C_20
REMARK    5  A    between atoms: N_22  and  C_23
REMARK    6  A    between atoms: C_26  and  O_29
REMARK    7  A    between atoms: O_29  and  C_30
REMARK                            x       y       z     vdW  Elec       q    Type
REMARK                         _______ _______ _______ _____ _____    ______ ____
ROOT
ATOM      1  C   UNL     1      -0.048   1.506   0.015  0.00  0.00    +0.044 C 
ATOM      2  C   UNL     1      -0.025  -0.001   0.005  0.00  0.00    -0.046 A 
ATOM      3  C   UNL     1      -0.029  -0.679  -1.206  0.00  0.00    +0.004 A 
ATOM      4  C   UNL     1      -0.009  -2.046  -1.236  0.00  0.00    +0.014 A 
ATOM      5  C   UNL     1       0.016  -2.763  -0.040  0.00  0.00    +0.045 A 
ATOM      6  C   UNL     1       0.021  -2.082   1.190  0.00  0.00    +0.054 A 
ATOM      7  C   UNL     1       0.005  -0.690   1.198  0.00  0.00    -0.024 A 
ATOM      8  C   UNL     1       0.015   0.060   2.505  0.00  0.00    +0.046 C 
ATOM      9  N   UNL     1       0.045  -2.803   2.358  0.00  0.00    -0.357 N 
ATOM     10  C   UNL     1       0.064  -4.166   2.377  0.00  0.00    +0.020 A 
ATOM     11  C   UNL     1       0.076  -4.837   3.731  0.00  0.00    +0.035 C 
ATOM     12  C   UNL     1       0.506  -6.296   3.590  0.00  0.00    -0.072 C 
ATOM     13  N   UNL     1      -0.316  -6.924   2.543  0.00  0.00    +0.388 N 
ATOM     14  C   UNL     1       0.099  -6.395   1.241  0.00  0.00    -0.037 C 
ATOM     15  C   UNL     1       0.067  -4.889   1.240  0.00  0.00    +0.002 A 
ATOM     16  H   UNL     1       0.049  -2.325   3.202  0.00  0.00    +0.166 HD
ATOM     17  C   UNL     1       0.040  -4.233  -0.019  0.00  0.00    +0.191 A 
ATOM     18  O   UNL     1       0.036  -4.873  -1.058  0.00  0.00    -0.287 OA
ATOM     19  H   UNL     1      -1.288  -6.709   2.702  0.00  0.00    -0.081 HD
ENDROOT
BRANCH  13  20
ATOM     20  C   UNL     1      -0.119  -8.380   2.569  0.00  0.00    +0.019 C 
BRANCH  20  21
ATOM     21  C   UNL     1      -1.052  -9.030   1.580  0.00  0.00    +0.201 C 
ATOM     22  O   UNL     1      -1.807  -8.348   0.919  0.00  0.00    -0.278 OA
ATOM     23  N   UNL     1      -1.048 -10.369   1.431  0.00  0.00    -0.287 N 
ATOM     24  H   UNL     1      -0.399 -10.909   1.909  0.00  0.00    +0.155 HD
BRANCH  23  25
ATOM     25  C   UNL     1      -1.981 -10.982   0.584  0.00  0.00    +0.034 A 
ATOM     26  C   UNL     1      -2.507 -12.225   0.913  0.00  0.00    +0.027 A 
ATOM     27  C   UNL     1      -3.427 -12.828   0.079  0.00  0.00    +0.047 A 
ATOM     28  C   UNL     1      -3.825 -12.194  -1.089  0.00  0.00    +0.120 A 
ATOM     29  C   UNL     1      -3.300 -10.953  -1.419  0.00  0.00    +0.047 A 
ATOM     30  C   UNL     1      -2.385 -10.346  -0.582  0.00  0.00    +0.027 A 
BRANCH  28  31
ATOM     31  O   UNL     1      -4.731 -12.789  -1.910  0.00  0.00    -0.495 OA
ATOM     32  C   UNL     1      -5.096 -12.079  -3.095  0.00  0.00    +0.277 C 
ENDBRANCH  28  31
ENDBRANCH  23  25
ENDBRANCH  20  21
ENDBRANCH  13  20
TORSDOF 4
