REMARK  Name = ZINC19841945
REMARK  11 active torsions:
REMARK  status: ('A' for Active; 'I' for Inactive)
REMARK    1  A    between atoms: C_1  and  C_2
REMARK    2  A    between atoms: C_7  and  C_10
REMARK    3  A    between atoms: C_11  and  C_13
REMARK    4  A    between atoms: C_14  and  C_23
REMARK    5  A    between atoms: C_23  and  N_24
REMARK    6  A    between atoms: N_24  and  C_25
REMARK    7  A    between atoms: C_25  and  C_27
REMARK    8  A    between atoms: C_25  and  C_31
REMARK    9  A    between atoms: C_27  and  C_28
REMARK   10  A    between atoms: C_28  and  C_29
REMARK   11  A    between atoms: C_28  and  C_30
REMARK                            x       y       z     vdW  Elec       q    Type
REMARK                         _______ _______ _______ _____ _____    ______ ____
ROOT
ATOM      1  C   UNL     1      -1.920  -4.281  -0.496  0.00  0.00    +0.149 A 
ATOM      2  C   UNL     1      -2.466  -5.219  -1.324  0.00  0.00    +0.069 A 
ATOM      3  N   UNL     1      -2.087  -6.439  -0.853  0.00  0.00    -0.300 N 
ATOM      4  C   UNL     1      -2.341  -7.712  -1.284  0.00  0.00    +0.113 A 
ATOM      5  C   UNL     1      -1.835  -8.775  -0.624  0.00  0.00    +0.058 A 
ATOM      6  C   UNL     1      -1.038  -8.587   0.519  0.00  0.00    +0.025 A 
ATOM      7  C   UNL     1      -0.777  -7.328   0.959  0.00  0.00    +0.048 A 
ATOM      8  C   UNL     1      -1.312  -6.225   0.260  0.00  0.00    +0.139 A 
ATOM      9  N   UNL     1      -1.217  -4.921   0.457  0.00  0.00    -0.223 NA
ATOM     10 CL   UNL     1      -2.170 -10.382  -1.189  0.00  0.00    -0.082 Cl
ENDROOT
BRANCH   1  19
ATOM     11  C   UNL     1      -0.032   1.535  -0.013  0.00  0.00    +0.039 C 
ATOM     12  C   UNL     1      -0.002   0.006  -0.029  0.00  0.00    +0.133 C 
ATOM     13  C   UNL     1      -1.436  -0.535   0.013  0.00  0.00    +0.139 C 
ATOM     14  N   UNL     1      -1.376  -1.995   0.185  0.00  0.00    -0.291 N 
ATOM     15  C   UNL     1      -0.539  -2.530   1.270  0.00  0.00    +0.139 C 
ATOM     16  C   UNL     1       0.851  -1.892   1.167  0.00  0.00    +0.133 C 
ATOM     17  O   UNL     1       0.715  -0.470   1.112  0.00  0.00    -0.371 OA
ATOM     18  C   UNL     1       1.684  -2.280   2.391  0.00  0.00    +0.039 C 
ATOM     19  C   UNL     1      -2.068  -2.818  -0.627  0.00  0.00    +0.267 C 
ATOM     20  O   UNL     1      -2.816  -2.356  -1.468  0.00  0.00    -0.268 OA
ENDBRANCH   1  19
BRANCH   2  21
ATOM     21  C   UNL     1      -3.328  -4.955  -2.532  0.00  0.00    +0.138 C 
BRANCH  21  22
ATOM     22  N   UNL     1      -4.739  -4.912  -2.127  0.00  0.00    -0.300 NA
ATOM     23  H   UNL     1      -5.006  -5.763  -1.655  0.00  0.00    +0.123 HD
BRANCH  22  24
ATOM     24  C   UNL     1      -5.611  -4.656  -3.281  0.00  0.00    +0.141 C 
BRANCH  24  25
ATOM     25  C   UNL     1      -5.702  -3.171  -3.522  0.00  0.00    +0.228 C 
ATOM     26  O   UNL     1      -5.101  -2.402  -2.802  0.00  0.00    -0.274 OA
ATOM     27  N   UNL     1      -6.453  -2.697  -4.536  0.00  0.00    -0.328 N 
ATOM     28  H   UNL     1      -6.934  -3.312  -5.112  0.00  0.00    +0.145 HD
ATOM     29  H   UNL     1      -6.511  -1.741  -4.691  0.00  0.00    +0.145 HD
ENDBRANCH  24  25
BRANCH  24  30
ATOM     30  C   UNL     1      -7.008  -5.214  -3.000  0.00  0.00    +0.031 C 
BRANCH  30  31
ATOM     31  C   UNL     1      -6.933  -6.737  -2.880  0.00  0.00    -0.015 C 
ATOM     32  C   UNL     1      -8.304  -7.284  -2.476  0.00  0.00    +0.007 C 
ATOM     33  C   UNL     1      -6.522  -7.336  -4.226  0.00  0.00    +0.007 C 
ENDBRANCH  30  31
ENDBRANCH  24  30
ENDBRANCH  22  24
ENDBRANCH  21  22
ENDBRANCH   2  21
TORSDOF 7
