REMARK  Name = ZINC55503861
REMARK  4 active torsions:
REMARK  status: ('A' for Active; 'I' for Inactive)
REMARK    1  A    between atoms: C_1  and  S_2
REMARK    2  A    between atoms: S_2  and  N_5
REMARK    3  A    between atoms: N_5  and  C_6
REMARK    4  A    between atoms: C_10  and  C_12
REMARK                            x       y       z     vdW  Elec       q    Type
REMARK                         _______ _______ _______ _____ _____    ______ ____
ROOT
ATOM      1  C   UNL     1       2.567  -3.813  -4.444  0.00  0.00    +0.142 A 
ATOM      2  N   UNL     1       2.746  -5.134  -4.747  0.00  0.00    -0.306 N 
ATOM      3  H   UNL     1       2.403  -5.812  -4.144  0.00  0.00    +0.170 HD
ATOM      4  C   UNL     1       3.390  -5.511  -5.868  0.00  0.00    +0.260 A 
ATOM      5  O   UNL     1       3.542  -6.692  -6.128  0.00  0.00    -0.267 OA
ATOM      6  C   UNL     1       3.892  -4.500  -6.752  0.00  0.00    +0.075 A 
ATOM      7  C   UNL     1       4.621  -4.694  -8.016  0.00  0.00    -0.021 A 
ATOM      8  C   UNL     1       4.986  -3.579  -8.672  0.00  0.00    +0.006 A 
ATOM      9  S   UNL     1       4.405  -2.231  -7.665  0.00  0.00    -0.072 S 
ATOM     10  C   UNL     1       3.662  -3.174  -6.361  0.00  0.00    +0.116 A 
ATOM     11  N   UNL     1       3.014  -2.868  -5.243  0.00  0.00    -0.222 NA
ATOM     12  C   UNL     1       5.716  -3.415  -9.977  0.00  0.00    +0.111 C 
ATOM     13  S   UNL     1       6.490  -5.005 -10.405  0.00  0.00    -0.155 S 
ATOM     14  C   UNL     1       5.170  -6.185  -9.979  0.00  0.00    +0.074 C 
ATOM     15  C   UNL     1       4.917  -6.114  -8.480  0.00  0.00    +0.047 C 
ENDROOT
BRANCH   1  20
ATOM     16  C   UNL     1       0.992  -1.756  -1.718  0.00  0.00    +0.075 A 
ATOM     17  C   UNL     1       0.518  -2.752  -0.872  0.00  0.00    +0.027 A 
ATOM     18  C   UNL     1       0.711  -4.083  -1.188  0.00  0.00    +0.003 A 
ATOM     19  C   UNL     1       1.375  -4.433  -2.346  0.00  0.00    +0.011 A 
ATOM     20  C   UNL     1       1.855  -3.441  -3.203  0.00  0.00    +0.019 A 
ATOM     21  C   UNL     1       1.655  -2.097  -2.887  0.00  0.00    +0.038 A 
BRANCH  16  22
ATOM     22  N   UNL     1       0.795  -0.411  -1.394  0.00  0.00    -0.103 NA
BRANCH  22  24
ATOM     23  C   UNL     1      -0.022   1.810   0.012  0.00  0.00    +0.220 C 
ATOM     24  S   UNL     1       0.002  -0.004   0.002  0.00  0.00    +0.059 S 
ATOM     25  O   UNL     1       0.835  -0.488   1.046  0.00  0.00    -0.154 OA
ATOM     26  O   UNL     1      -1.315  -0.510  -0.168  0.00  0.00    -0.154 OA
ENDBRANCH  22  24
ENDBRANCH  16  22
ENDBRANCH   1  20
TORSDOF 3
