REMARK  Name = ZINC67028988
REMARK  9 active torsions:
REMARK  status: ('A' for Active; 'I' for Inactive)
REMARK    1  A    between atoms: C_1  and  C_2
REMARK    2  A    between atoms: C_5  and  C_21
REMARK    3  A    between atoms: C_10  and  C_12
REMARK    4  A    between atoms: C_15  and  C_17
REMARK    5  A    between atoms: C_17  and  C_18
REMARK    6  A    between atoms: C_17  and  C_19
REMARK    7  A    between atoms: C_17  and  C_20
REMARK    8  A    between atoms: C_21  and  O_23
REMARK    9  A    between atoms: O_23  and  C_24
REMARK                            x       y       z     vdW  Elec       q    Type
REMARK                         _______ _______ _______ _____ _____    ______ ____
ROOT
ATOM      1  C   UNL     1       0.011   1.512   1.142  0.00  0.00    +0.091 C 
ATOM      2  C   UNL     1       0.064   0.012   1.005  0.00  0.00    +0.160 C 
ATOM      3  O   UNL     1       1.229  -0.640   1.184  0.00  0.00    -0.293 OA
ATOM      4  C   UNL     1      -1.058  -0.679   0.703  0.00  0.00    +0.050 C 
ATOM      5  C   UNL     1      -1.081  -2.095   0.713  0.00  0.00    +0.148 C 
ATOM      6  N   UNL     1      -2.182  -2.750   0.416  0.00  0.00    -0.186 NA
ATOM      7  C   UNL     1      -3.338  -2.175   0.089  0.00  0.00    +0.155 C 
ATOM      8  S   UNL     1      -4.677  -3.180  -0.269  0.00  0.00    -0.017 S 
ATOM      9  N   UNL     1      -3.503  -0.840   0.029  0.00  0.00    -0.313 N 
ATOM     10  C   UNL     1      -2.353   0.026   0.342  0.00  0.00    +0.146 C 
ATOM     11  H   UNL     1      -4.361  -0.457  -0.213  0.00  0.00    +0.149 HD
ENDROOT
BRANCH  10  12
ATOM     12  C   UNL     1      -2.091   0.902  -0.856  0.00  0.00    +0.034 A 
ATOM     13  C   UNL     1      -1.717   0.560  -2.115  0.00  0.00    +0.124 A 
ATOM     14  N   UNL     1      -1.556   1.543  -2.979  0.00  0.00    -0.251 NA
ATOM     15  C   UNL     1      -1.748   2.792  -2.633  0.00  0.00    +0.084 A 
ATOM     16  S   UNL     1      -2.193   2.678  -1.014  0.00  0.00    -0.074 S 
BRANCH  15  17
ATOM     17  C   UNL     1      -1.610   4.030  -3.482  0.00  0.00    +0.011 C 
ATOM     18  C   UNL     1      -2.577   3.948  -4.664  0.00  0.00    +0.017 C 
ATOM     19  C   UNL     1      -1.937   5.264  -2.640  0.00  0.00    +0.017 C 
ATOM     20  C   UNL     1      -0.175   4.133  -4.003  0.00  0.00    +0.017 C 
ENDBRANCH  15  17
ENDBRANCH  10  12
BRANCH   5  21
ATOM     21  C   UNL     1       0.152  -2.849   1.064  0.00  0.00    +0.356 C 
ATOM     22  O   UNL     1       0.945  -3.152   0.197  0.00  0.00    -0.243 OA
BRANCH  21  23
ATOM     23  O   UNL     1       0.388  -3.196   2.343  0.00  0.00    -0.464 OA
ATOM     24  C   UNL     1       1.592  -3.919   2.607  0.00  0.00    +0.280 C 
ENDBRANCH  21  23
ENDBRANCH   5  21
TORSDOF 4
