REMARK  Name = ZINC02870027
REMARK  4 active torsions:
REMARK  status: ('A' for Active; 'I' for Inactive)
REMARK    1  A    between atoms: C_6  and  C_7
REMARK    2  A    between atoms: N_8  and  N_9
REMARK    3  A    between atoms: N_12  and  N_13
REMARK    4  A    between atoms: C_14  and  C_15
REMARK                            x       y       z     vdW  Elec       q    Type
REMARK                         _______ _______ _______ _____ _____    ______ ____
ROOT
ATOM      1  N   UNL     1      -2.444  -2.779   0.011  0.00  0.00    -0.247 N 
ATOM      2  C   UNL     1      -2.422  -4.156   0.004  0.00  0.00    +0.210 C 
ATOM      3  N   UNL     1      -1.282  -4.790  -0.011  0.00  0.00    -0.369 N 
ATOM      4  N   UNL     1      -3.603  -4.864   0.012  0.00  0.00    -0.247 N 
ATOM      5  H   UNL     1      -3.292  -2.308   0.022  0.00  0.00    +0.192 HD
ATOM      6  H   UNL     1      -1.266  -5.760  -0.016  0.00  0.00    +0.159 HD
ATOM      7  H   UNL     1      -4.450  -4.392   0.023  0.00  0.00    +0.192 HD
ATOM      8  H   UNL     1      -0.450  -4.291  -0.017  0.00  0.00    +0.159 HD
ENDROOT
BRANCH   1  10
ATOM      9  C   UNL     1      -1.263  -0.762   0.011  0.00  0.00    +0.140 C 
ATOM     10  N   UNL     1      -1.242  -2.059   0.003  0.00  0.00    -0.179 NA
BRANCH   9  16
ATOM     11  C   UNL     1      -0.017   1.393   0.010  0.00  0.00    +0.010 A 
ATOM     12  C   UNL     1       1.170   2.095   0.002  0.00  0.00    +0.016 A 
ATOM     13  C   UNL     1       2.378   1.419  -0.013  0.00  0.00    +0.018 A 
ATOM     14  C   UNL     1       2.404   0.035  -0.021  0.00  0.00    +0.016 A 
ATOM     15  C   UNL     1       1.225  -0.680  -0.014  0.00  0.00    +0.010 A 
ATOM     16  C   UNL     1       0.002  -0.004   0.002  0.00  0.00    -0.005 A 
ATOM     17 BR   UNL     1       4.000   2.391  -0.023  0.00  0.00    -0.050 Br
ENDBRANCH   9  16
ENDBRANCH   1  10
BRANCH   4  18
ATOM     18  N   UNL     1      -3.580  -6.264   0.004  0.00  0.00    -0.179 NA
ATOM     19  C   UNL     1      -4.693  -6.931   0.011  0.00  0.00    +0.140 C 
BRANCH  19  20
ATOM     20  C   UNL     1      -4.670  -8.406   0.003  0.00  0.00    -0.005 A 
ATOM     21  C   UNL     1      -3.450  -9.088  -0.007  0.00  0.00    +0.010 A 
ATOM     22  C   UNL     1      -3.435 -10.467  -0.014  0.00  0.00    +0.016 A 
ATOM     23  C   UNL     1      -4.625 -11.175  -0.013  0.00  0.00    +0.018 A 
ATOM     24  C   UNL     1      -5.837 -10.506  -0.003  0.00  0.00    +0.016 A 
ATOM     25  C   UNL     1      -5.866  -9.127   0.011  0.00  0.00    +0.010 A 
ATOM     26 BR   UNL     1      -4.595 -13.066  -0.024  0.00  0.00    -0.050 Br
ENDBRANCH  19  20
ENDBRANCH   4  18
TORSDOF 4
