REMARK  Name = ZINC23590906
REMARK  8 active torsions:
REMARK  status: ('A' for Active; 'I' for Inactive)
REMARK    1  A    between atoms: C_1  and  C_2
REMARK    2  A    between atoms: C_11  and  N_32
REMARK    3  A    between atoms: C_13  and  S_15
REMARK    4  A    between atoms: S_15  and  C_16
REMARK    5  A    between atoms: C_16  and  C_18
REMARK    6  A    between atoms: C_16  and  C_19
REMARK    7  A    between atoms: N_21  and  C_22
REMARK    8  A    between atoms: C_22  and  C_23
REMARK                            x       y       z     vdW  Elec       q    Type
REMARK                         _______ _______ _______ _____ _____    ______ ____
ROOT
ATOM      1  C   UNL     1      -9.575  -3.671  -1.764  0.00  0.00    +0.008 C 
ATOM      2  C   UNL     1      -8.142  -3.141  -1.679  0.00  0.00    -0.009 C 
ATOM      3  C   UNL     1      -7.831  -2.728  -0.237  0.00  0.00    +0.008 C 
ATOM      4  C   UNL     1      -6.338  -2.433  -0.092  0.00  0.00    +0.037 C 
ATOM      5  C   UNL     1      -5.927  -1.430  -1.167  0.00  0.00    -0.025 A 
ATOM      6  C   UNL     1      -6.696  -1.235  -2.257  0.00  0.00    -0.004 A 
ATOM      7  S   UNL     1      -5.844  -0.007  -3.211  0.00  0.00    -0.073 S 
ATOM      8  C   UNL     1      -4.450   0.242  -2.142  0.00  0.00    +0.115 A 
ATOM      9  C   UNL     1      -4.696  -0.642  -1.073  0.00  0.00    +0.051 A 
ATOM     10  C   UNL     1      -3.713  -0.649  -0.044  0.00  0.00    +0.129 A 
ATOM     11  N   UNL     1      -2.660   0.143  -0.151  0.00  0.00    -0.207 NA
ATOM     12  C   UNL     1      -2.492   0.957  -1.186  0.00  0.00    +0.192 A 
ATOM     13  N   UNL     1      -3.376   1.006  -2.174  0.00  0.00    -0.214 NA
ATOM     14  C   UNL     1      -7.992  -1.912  -2.587  0.00  0.00    +0.046 C 
ENDROOT
BRANCH  10  15
ATOM     15  N   UNL     1      -3.855  -1.479   1.053  0.00  0.00    -0.343 N 
ATOM     16  H   UNL     1      -3.092  -1.480   1.845  0.00  0.00    +0.144 HD
ATOM     17  H   UNL     1      -4.732  -2.139   1.134  0.00  0.00    +0.144 HD
ENDBRANCH  10  15
BRANCH  12  18
ATOM     18  S   UNL     1      -1.064   1.987  -1.253  0.00  0.00    -0.073 S 
BRANCH  18  19
ATOM     19  C   UNL     1      -0.259   1.510   0.297  0.00  0.00    +0.137 C 
ATOM     20  C   UNL     1      -1.137   1.928   1.478  0.00  0.00    +0.029 C 
BRANCH  19  21
ATOM     21  C   UNL     1       1.080   2.194   0.399  0.00  0.00    +0.226 C 
ATOM     22  O   UNL     1       1.277   3.232  -0.196  0.00  0.00    -0.275 OA
ATOM     23  N   UNL     1       2.058   1.652   1.152  0.00  0.00    -0.310 N 
ATOM     24  H   UNL     1       1.878   0.710   1.691  0.00  0.00    +0.149 HD
BRANCH  23  25
ATOM     25  C   UNL     1       3.359   2.317   1.251  0.00  0.00    +0.139 C 
BRANCH  25  26
ATOM     26  C   UNL     1       4.267   1.513   2.146  0.00  0.00    -0.027 A 
ATOM     27  C   UNL     1       4.298   1.767   3.505  0.00  0.00    +0.009 A 
ATOM     28  C   UNL     1       5.125   1.028   4.330  0.00  0.00    +0.050 A 
ATOM     29  C   UNL     1       5.934   0.039   3.795  0.00  0.00    +0.166 A 
ATOM     30  C   UNL     1       5.907  -0.213   2.425  0.00  0.00    +0.167 A 
ATOM     31  C   UNL     1       5.071   0.527   1.605  0.00  0.00    +0.054 A 
ATOM     32  O   UNL     1       6.783  -1.223   2.150  0.00  0.00    -0.453 OA
ATOM     33  C   UNL     1       7.645  -1.308   3.300  0.00  0.00    +0.466 C 
ATOM     34  O   UNL     1       6.828  -0.813   4.377  0.00  0.00    -0.453 OA
ENDBRANCH  25  26
ENDBRANCH  23  25
ENDBRANCH  19  21
ENDBRANCH  18  19
ENDBRANCH  12  18
TORSDOF 6
