REMARK  Name = ZINC15708434
REMARK  9 active torsions:
REMARK  status: ('A' for Active; 'I' for Inactive)
REMARK    1  A    between atoms: C_2  and  C_3
REMARK    2  A    between atoms: C_3  and  N_4
REMARK    3  A    between atoms: C_5  and  C_7
REMARK    4  A    between atoms: C_7  and  C_8
REMARK    5  A    between atoms: C_8  and  C_9
REMARK    6  A    between atoms: C_18  and  N_21
REMARK    7  A    between atoms: N_21  and  S_22
REMARK    8  A    between atoms: S_22  and  C_25
REMARK    9  A    between atoms: C_29  and  C_31
REMARK                            x       y       z     vdW  Elec       q    Type
REMARK                         _______ _______ _______ _____ _____    ______ ____
ROOT
ATOM      1  C   UNL     1      -1.954   0.324   5.404  0.00  0.00    -0.050 C 
ATOM      2  C   UNL     1      -3.063   1.000   6.223  0.00  0.00    +0.089 C 
ATOM      3  N   UNL     1      -2.808   2.421   6.424  0.00  0.00    -0.318 N 
ATOM      4  C   UNL     1      -1.843   3.121   5.798  0.00  0.00    +0.200 C 
ATOM      5  O   UNL     1      -1.765   4.323   5.939  0.00  0.00    -0.278 OA
ATOM      6  C   UNL     1      -0.869   2.397   4.928  0.00  0.00    +0.021 C 
ATOM      7  C   UNL     1      -0.664   0.759   3.297  0.00  0.00    -0.057 C 
ATOM      8  C   UNL     1      -0.175   2.072   2.625  0.00  0.00    +0.059 C 
ATOM      9  C   UNL     1      -0.365   3.170   3.705  0.00  0.00    +0.012 C 
ATOM     10  H   UNL     1      -3.373   2.896   7.053  0.00  0.00    +0.149 HD
ATOM     11  N   UNL     1      -1.571   1.305   4.326  0.00  0.00    +0.391 N 
ATOM     12  H   UNL     1      -2.429   1.641   3.872  0.00  0.00    -0.080 HD
ENDROOT
BRANCH   8  13
ATOM     13  N   UNL     1      -0.987   2.373   1.443  0.00  0.00    -0.189 NA
ATOM     14  H   UNL     1      -1.844   2.815   1.544  0.00  0.00    +0.148 HD
BRANCH  13  15
ATOM     15  S   UNL     1      -0.441   1.958  -0.064  0.00  0.00    +0.059 S 
ATOM     16  O   UNL     1       0.898   2.427  -0.154  0.00  0.00    -0.153 OA
ATOM     17  O   UNL     1      -1.449   2.353  -0.984  0.00  0.00    -0.153 OA
BRANCH  15  18
ATOM     18  C   UNL     1      -0.363   0.199  -0.124  0.00  0.00    +0.106 A 
ATOM     19  C   UNL     1       0.797  -0.455   0.246  0.00  0.00    +0.028 A 
ATOM     20  C   UNL     1       0.856  -1.835   0.203  0.00  0.00    +0.002 A 
ATOM     21  C   UNL     1      -0.242  -2.561  -0.219  0.00  0.00    +0.012 A 
ATOM     22  C   UNL     1      -1.400  -1.907  -0.595  0.00  0.00    +0.057 A 
ATOM     23  C   UNL     1      -1.461  -0.527  -0.547  0.00  0.00    +0.041 A 
BRANCH  22  24
ATOM     24  C   UNL     1      -2.597  -2.699  -1.055  0.00  0.00    +0.417 C 
ATOM     25  F   UNL     1      -2.530  -2.881  -2.441  0.00  0.00    -0.166 F 
ATOM     26  F   UNL     1      -2.604  -3.945  -0.420  0.00  0.00    -0.166 F 
ATOM     27  F   UNL     1      -3.768  -2.004  -0.732  0.00  0.00    -0.166 F 
ENDBRANCH  22  24
ENDBRANCH  15  18
ENDBRANCH  13  15
ENDBRANCH   8  13
BRANCH   1  28
ATOM     28  C   UNL     1      -2.470  -0.990   4.813  0.00  0.00    -0.005 C 
BRANCH  28  29
ATOM     29  C   UNL     1      -2.728  -1.991   5.941  0.00  0.00    +0.094 C 
BRANCH  29  31
ATOM     30  N   UNL     1      -3.396  -4.362   6.164  0.00  0.00    -0.304 N 
ATOM     31  C   UNL     1      -3.120  -3.321   5.353  0.00  0.00    +0.214 C 
ATOM     32  O   UNL     1      -3.187  -3.456   4.149  0.00  0.00    -0.276 OA
ATOM     33  H   UNL     1      -3.342  -4.254   7.126  0.00  0.00    +0.150 HD
BRANCH  30  34
ATOM     34  C   UNL     1      -3.777  -5.656   5.592  0.00  0.00    +0.193 C 
BRANCH  34  36
ATOM     35  C   UNL     1      -4.222  -7.386   7.543  0.00  0.00    +0.005 C 
ATOM     36  C   UNL     1      -4.025  -6.618   6.677  0.00  0.00    -0.087 C 
ENDBRANCH  34  36
ENDBRANCH  30  34
ENDBRANCH  29  31
ENDBRANCH  28  29
ENDBRANCH   1  28
TORSDOF 9
