REMARK  Name = ZINC17138055
REMARK  4 active torsions:
REMARK  status: ('A' for Active; 'I' for Inactive)
REMARK    1  A    between atoms: C_4  and  C_7
REMARK    2  A    between atoms: N_9  and  N_10
REMARK    3  A    between atoms: N_10  and  C_11
REMARK    4  A    between atoms: N_18  and  C_21
REMARK                            x       y       z     vdW  Elec       q    Type
REMARK                         _______ _______ _______ _____ _____    ______ ____
ROOT
ATOM      1  C   UNL     1       4.963  -4.059  -0.068  0.00  0.00    +0.106 C 
ATOM      2  C   UNL     1       6.170  -4.732  -0.189  0.00  0.00    +0.116 C 
ATOM      3  C   UNL     1       6.223  -6.195  -0.315  0.00  0.00    +0.278 C 
ATOM      4  O   UNL     1       5.090  -6.929  -0.318  0.00  0.00    -0.268 OA
ATOM      5  N   UNL     1       7.406  -6.776  -0.427  0.00  0.00    -0.123 NA
ATOM      6  C   UNL     1       8.538  -6.078  -0.428  0.00  0.00    +0.340 C 
ATOM      7  O   UNL     1       9.589  -6.685  -0.535  0.00  0.00    -0.250 OA
ATOM      8  N   UNL     1       8.585  -4.742  -0.317  0.00  0.00    -0.188 N 
ATOM      9  C   UNL     1       7.455  -4.012  -0.201  0.00  0.00    +0.265 C 
ATOM     10  O   UNL     1       7.498  -2.800  -0.105  0.00  0.00    -0.269 OA
ENDROOT
BRANCH   8  11
ATOM     11  C   UNL     1       9.825  -4.095  -0.327  0.00  0.00    +0.053 A 
ATOM     12  C   UNL     1      10.376  -3.668  -1.515  0.00  0.00    +0.024 A 
ATOM     13  C   UNL     1      11.609  -3.023  -1.536  0.00  0.00    +0.002 A 
ATOM     14  C   UNL     1      12.303  -2.796  -0.387  0.00  0.00    +0.008 A 
ATOM     15  C   UNL     1      11.776  -3.215   0.846  0.00  0.00    -0.016 A 
ATOM     16  C   UNL     1      10.519  -3.868   0.880  0.00  0.00    +0.004 A 
ATOM     17  C   UNL     1       9.991  -4.282   2.113  0.00  0.00    +0.010 A 
ATOM     18  C   UNL     1      10.688  -4.047   3.259  0.00  0.00    +0.001 A 
ATOM     19  C   UNL     1      11.922  -3.400   3.226  0.00  0.00    +0.001 A 
ATOM     20  C   UNL     1      12.470  -2.995   2.048  0.00  0.00    +0.008 A 
ENDBRANCH   8  11
BRANCH   1  21
ATOM     21  N   UNL     1       4.939  -2.713  -0.085  0.00  0.00    -0.271 N 
ATOM     22  H   UNL     1       5.770  -2.213  -0.107  0.00  0.00    +0.169 HD
BRANCH  21  25
ATOM     23  C   UNL     1       3.689  -0.687  -0.088  0.00  0.00    +0.260 C 
ATOM     24  O   UNL     1       4.731  -0.061  -0.116  0.00  0.00    -0.269 OA
ATOM     25  N   UNL     1       3.713  -2.034  -0.071  0.00  0.00    -0.233 N 
ATOM     26  H   UNL     1       2.882  -2.534  -0.049  0.00  0.00    +0.173 HD
BRANCH  23  30
ATOM     27  C   UNL     1      -0.026   1.371  -0.047  0.00  0.00    +0.000 A 
ATOM     28  C   UNL     1       1.157   2.087  -0.078  0.00  0.00    +0.001 A 
ATOM     29  C   UNL     1       2.368   1.425  -0.091  0.00  0.00    +0.013 A 
ATOM     30  C   UNL     1       2.396   0.029  -0.074  0.00  0.00    +0.038 A 
ATOM     31  C   UNL     1       1.198  -0.687  -0.043  0.00  0.00    +0.013 A 
ATOM     32  C   UNL     1      -0.005  -0.012  -0.029  0.00  0.00    +0.001 A 
ENDBRANCH  23  30
ENDBRANCH  21  25
ENDBRANCH   1  21
TORSDOF 4
