REMARK  Name = ZINC02957866
REMARK  3 active torsions:
REMARK  status: ('A' for Active; 'I' for Inactive)
REMARK    1  A    between atoms: C_8  and  C_12
REMARK    2  A    between atoms: N_14  and  C_19
REMARK    3  A    between atoms: C_23  and  C_25
REMARK                            x       y       z     vdW  Elec       q    Type
REMARK                         _______ _______ _______ _____ _____    ______ ____
ROOT
ATOM      1  C   UNL     1       6.929   0.718  -0.599  0.00  0.00    +0.072 A 
ATOM      2  C   UNL     1       5.935   1.573  -0.906  0.00  0.00    +0.120 A 
ATOM      3  N   UNL     1       4.887   1.328  -0.038  0.00  0.00    -0.295 N 
ATOM      4  C   UNL     1       5.248   0.332   0.793  0.00  0.00    +0.163 A 
ATOM      5  S   UNL     1       4.286  -0.324   2.048  0.00  0.00    -0.013 S 
ATOM      6  N   UNL     1       6.494  -0.065   0.468  0.00  0.00    -0.333 N 
ATOM      7  H   UNL     1       7.001  -0.768   0.903  0.00  0.00    +0.168 HD
ENDROOT
BRANCH   1  15
ATOM      8  C   UNL     1      13.034   0.052  -1.245  0.00  0.00    +0.001 A 
ATOM      9  C   UNL     1      13.056   0.186  -2.626  0.00  0.00    +0.004 A 
ATOM     10  C   UNL     1      11.889   0.395  -3.332  0.00  0.00    +0.047 A 
ATOM     11  C   UNL     1      10.676   0.473  -2.658  0.00  0.00    +0.139 A 
ATOM     12  C   UNL     1      10.657   0.338  -1.259  0.00  0.00    +0.018 A 
ATOM     13  C   UNL     1      11.853   0.126  -0.562  0.00  0.00    +0.011 A 
ATOM     14  C   UNL     1       9.384   0.425  -0.542  0.00  0.00    +0.028 A 
ATOM     15  C   UNL     1       8.241   0.627  -1.271  0.00  0.00    +0.085 A 
ATOM     16  C   UNL     1       8.342   0.758  -2.729  0.00  0.00    +0.347 A 
ATOM     17  O   UNL     1       7.336   0.942  -3.387  0.00  0.00    -0.244 OA
ATOM     18  O   UNL     1       9.531   0.676  -3.345  0.00  0.00    -0.422 OA
ENDBRANCH   1  15
BRANCH   3  19
ATOM     19  C   UNL     1       3.660   2.004  -0.022  0.00  0.00    +0.049 A 
ATOM     20  C   UNL     1       3.633   3.394  -0.014  0.00  0.00    +0.026 A 
ATOM     21  C   UNL     1       2.426   4.066   0.000  0.00  0.00    +0.003 A 
ATOM     22  C   UNL     1       1.239   3.363   0.003  0.00  0.00    +0.015 A 
ATOM     23  C   UNL     1       1.255   1.966   0.001  0.00  0.00    +0.065 A 
ATOM     24  C   UNL     1       2.474   1.288  -0.015  0.00  0.00    +0.041 A 
BRANCH  23  25
ATOM     25  C   UNL     1      -0.014   1.210   0.009  0.00  0.00    +0.387 C 
ATOM     26  O   UNL     1       0.002  -0.004   0.002  0.00  0.00    -0.241 OA
ATOM     27  O   UNL     1      -1.190   1.868   0.018  0.00  0.00    -0.241 OA
ENDBRANCH  23  25
ENDBRANCH   3  19
TORSDOF 3
