REMARK  Name = ZINC09433944
REMARK  6 active torsions:
REMARK  status: ('A' for Active; 'I' for Inactive)
REMARK    1  A    between atoms: C_1  and  N_2
REMARK    2  A    between atoms: C_8  and  C_18
REMARK    3  A    between atoms: C_21  and  O_26
REMARK    4  A    between atoms: C_22  and  O_24
REMARK    5  A    between atoms: O_24  and  C_25
REMARK    6  A    between atoms: N_29  and  C_32
REMARK                            x       y       z     vdW  Elec       q    Type
REMARK                         _______ _______ _______ _____ _____    ______ ____
ROOT
ATOM      1  C   UNL     1      -4.439   0.103  -2.114  0.00  0.00    +0.143 C 
ATOM      2  N   UNL     1      -3.395  -0.566  -1.333  0.00  0.00    -0.224 N 
ATOM      3  C   UNL     1      -2.240   0.085  -1.082  0.00  0.00    +0.260 C 
ATOM      4  O   UNL     1      -2.057   1.214  -1.497  0.00  0.00    -0.269 OA
ATOM      5  C   UNL     1      -1.207  -0.608  -0.294  0.00  0.00    +0.116 C 
ATOM      6  C   UNL     1       0.002  -0.004   0.002  0.00  0.00    +0.027 C 
ATOM      7  C   UNL     1       1.094  -0.933   0.400  0.00  0.00    +0.071 C 
ATOM      8  C   UNL     1       2.428  -0.514  -0.149  0.00  0.00    +0.087 C 
ATOM      9  S   UNL     1       3.123   0.921   0.656  0.00  0.00    -0.115 S 
ATOM     10  C   UNL     1       2.232   2.330   0.131  0.00  0.00    +0.030 A 
ATOM     11  C   UNL     1       2.963   3.521   0.013  0.00  0.00    +0.016 A 
ATOM     12  C   UNL     1       2.371   4.694  -0.390  0.00  0.00    +0.001 A 
ATOM     13  C   UNL     1       1.021   4.705  -0.691  0.00  0.00    +0.002 A 
ATOM     14  C   UNL     1       0.291   3.546  -0.581  0.00  0.00    +0.024 A 
ATOM     15  C   UNL     1       0.879   2.338  -0.168  0.00  0.00    +0.045 A 
ATOM     16  N   UNL     1       0.015   1.278  -0.107  0.00  0.00    -0.316 N 
ATOM     17  C   UNL     1      -1.515  -1.976   0.161  0.00  0.00    +0.260 C 
ATOM     18  O   UNL     1      -0.709  -2.614   0.813  0.00  0.00    -0.269 OA
ATOM     19  N   UNL     1      -2.715  -2.499  -0.161  0.00  0.00    -0.224 N 
ATOM     20  C   UNL     1      -3.610  -1.810  -0.882  0.00  0.00    +0.317 C 
ATOM     21  O   UNL     1      -4.672  -2.341  -1.142  0.00  0.00    -0.252 OA
ATOM     22  C   UNL     1      -3.047  -3.855   0.285  0.00  0.00    +0.143 C 
ATOM     23  H   UNL     1      -0.896   1.603  -0.172  0.00  0.00    +0.152 HD
ENDROOT
BRANCH   8  24
ATOM     24  C   UNL     1       3.392  -1.663   0.002  0.00  0.00    -0.030 A 
ATOM     25  C   UNL     1       3.674  -2.166   1.259  0.00  0.00    +0.008 A 
ATOM     26  C   UNL     1       4.557  -3.220   1.403  0.00  0.00    +0.049 A 
ATOM     27  C   UNL     1       5.161  -3.775   0.286  0.00  0.00    +0.158 A 
ATOM     28  C   UNL     1       4.877  -3.269  -0.979  0.00  0.00    +0.162 A 
ATOM     29  C   UNL     1       3.987  -2.216  -1.116  0.00  0.00    +0.054 A 
BRANCH  28  30
ATOM     30  O   UNL     1       5.467  -3.811  -2.078  0.00  0.00    -0.491 OA
ATOM     31  C   UNL     1       5.128  -3.240  -3.344  0.00  0.00    +0.277 C 
ENDBRANCH  28  30
BRANCH  27  32
ATOM     32  O   UNL     1       6.029  -4.813   0.425  0.00  0.00    -0.503 OA
ATOM     33  H   UNL     1       5.610  -5.684   0.387  0.00  0.00    +0.292 HD
ENDBRANCH  27  32
ENDBRANCH   8  24
TORSDOF 3
