REMARK  Name = ZINC17139140
REMARK  8 active torsions:
REMARK  status: ('A' for Active; 'I' for Inactive)
REMARK    1  A    between atoms: C_1  and  C_2
REMARK    2  A    between atoms: C_2  and  N_3
REMARK    3  A    between atoms: N_3  and  C_4
REMARK    4  A    between atoms: N_3  and  C_6
REMARK    5  A    between atoms: C_4  and  C_5
REMARK    6  A    between atoms: C_9  and  C_13
REMARK    7  A    between atoms: C_10  and  O_12
REMARK    8  A    between atoms: N_20  and  C_23
REMARK                            x       y       z     vdW  Elec       q    Type
REMARK                         _______ _______ _______ _____ _____    ______ ____
ROOT
ATOM      1  C   UNL     1      -3.209  -2.149   5.255  0.00  0.00    +0.030 C 
ATOM      2  C   UNL     1      -3.168  -1.133   6.202  0.00  0.00    +0.102 C 
ATOM      3  C   UNL     1      -4.141  -1.067   7.301  0.00  0.00    +0.276 C 
ATOM      4  O   UNL     1      -5.110  -2.000   7.422  0.00  0.00    -0.268 OA
ATOM      5  N   UNL     1      -4.047  -0.074   8.169  0.00  0.00    -0.123 NA
ATOM      6  C   UNL     1      -3.103   0.859   8.075  0.00  0.00    +0.340 C 
ATOM      7  O   UNL     1      -3.081   1.742   8.914  0.00  0.00    -0.250 OA
ATOM      8  N   UNL     1      -2.174   0.879   7.108  0.00  0.00    -0.188 N 
ATOM      9  C   UNL     1      -2.141  -0.075   6.153  0.00  0.00    +0.264 C 
ATOM     10  O   UNL     1      -1.295  -0.060   5.278  0.00  0.00    -0.269 OA
ENDROOT
BRANCH   8  11
ATOM     11  C   UNL     1      -1.218   1.905   7.092  0.00  0.00    +0.046 A 
ATOM     12  C   UNL     1      -1.484   3.092   6.423  0.00  0.00    +0.027 A 
ATOM     13  C   UNL     1      -0.541   4.101   6.408  0.00  0.00    +0.040 A 
ATOM     14  C   UNL     1       0.669   3.929   7.059  0.00  0.00    +0.124 A 
ATOM     15  C   UNL     1       0.936   2.745   7.726  0.00  0.00    +0.040 A 
ATOM     16  C   UNL     1      -0.007   1.736   7.749  0.00  0.00    +0.027 A 
ATOM     17  F   UNL     1       1.590   4.917   7.043  0.00  0.00    -0.205 F 
ENDBRANCH   8  11
BRANCH   1  21
ATOM     18  C   UNL     1      -0.061  -2.598   2.533  0.00  0.00    +0.033 A 
ATOM     19  C   UNL     1       0.206  -2.419   3.893  0.00  0.00    +0.024 A 
ATOM     20  C   UNL     1      -0.815  -2.272   4.782  0.00  0.00    +0.013 A 
ATOM     21  C   UNL     1      -2.148  -2.300   4.335  0.00  0.00    +0.017 A 
ATOM     22  C   UNL     1      -2.420  -2.480   2.961  0.00  0.00    +0.126 A 
ATOM     23  C   UNL     1      -1.372  -2.622   2.071  0.00  0.00    +0.069 A 
BRANCH  22  24
ATOM     24  O   UNL     1      -3.701  -2.509   2.518  0.00  0.00    -0.506 OA
ATOM     25  H   UNL     1      -4.051  -1.642   2.270  0.00  0.00    +0.292 HD
ENDBRANCH  22  24
BRANCH  18  26
ATOM     26  N   UNL     1       0.989  -2.746   1.638  0.00  0.00    -0.330 N 
BRANCH  26  28
ATOM     27  C   UNL     1       2.894  -1.283   2.098  0.00  0.00    +0.024 C 
ATOM     28  C   UNL     1       2.372  -2.721   2.120  0.00  0.00    +0.102 C 
ENDBRANCH  26  28
BRANCH  26  29
ATOM     29  C   UNL     1       0.714  -2.928   0.210  0.00  0.00    +0.102 C 
ATOM     30  C   UNL     1       0.577  -4.420  -0.097  0.00  0.00    +0.024 C 
ENDBRANCH  26  29
ENDBRANCH  18  26
ENDBRANCH   1  21
TORSDOF 6
