REMARK  Name = ZINC05385924
REMARK  4 active torsions:
REMARK  status: ('A' for Active; 'I' for Inactive)
REMARK    1  A    between atoms: C_1  and  C_2
REMARK    2  A    between atoms: C_4  and  C_18
REMARK    3  A    between atoms: C_7  and  C_12
REMARK    4  A    between atoms: C_12  and  C_13
REMARK                            x       y       z     vdW  Elec       q    Type
REMARK                         _______ _______ _______ _____ _____    ______ ____
ROOT
ATOM      1  C   UNL     1      -0.013   1.086   0.008  0.00  0.00    +0.068 C 
ATOM      2  C   UNL     1      -0.718   1.572   1.248  0.00  0.00    +0.069 A 
ATOM      3  C   UNL     1      -0.106   1.848   2.489  0.00  0.00    +0.047 A 
ATOM      4  C   UNL     1       1.200   1.791   2.990  0.00  0.00    +0.071 A 
ATOM      5  N   UNL     1       1.421   2.133   4.242  0.00  0.00    -0.154 NA
ATOM      6  N   UNL     1       0.491   2.520   5.034  0.00  0.00    -0.151 NA
ATOM      7  C   UNL     1      -0.771   2.611   4.669  0.00  0.00    +0.096 A 
ATOM      8  C   UNL     1      -1.129   2.275   3.366  0.00  0.00    +0.091 A 
ATOM      9  N   UNL     1      -2.292   2.245   2.651  0.00  0.00    -0.275 N 
ATOM     10  H   UNL     1      -3.198   2.490   2.995  0.00  0.00    +0.189 HD
ATOM     11  N   UNL     1      -1.994   1.813   1.351  0.00  0.00    -0.178 NA
ATOM     12  C   UNL     1       2.337   1.343   2.109  0.00  0.00    +0.068 C 
ENDROOT
BRANCH   7  13
ATOM     13  C   UNL     1      -1.817   3.073   5.651  0.00  0.00    +0.133 C 
BRANCH  13  14
ATOM     14  C   UNL     1      -1.951   4.572   5.573  0.00  0.00    +0.111 A 
ATOM     15  C   UNL     1      -2.786   5.246   4.762  0.00  0.00    +0.045 A 
ATOM     16  C   UNL     1      -2.585   6.622   5.019  0.00  0.00    +0.041 A 
ATOM     17  C   UNL     1      -1.634   6.706   5.967  0.00  0.00    +0.195 A 
ATOM     18  O   UNL     1      -1.254   5.462   6.298  0.00  0.00    -0.467 OA
ENDBRANCH  13  14
ENDBRANCH   7  13
TORSDOF 2
