REMARK  Name = ZINC63520735
REMARK  7 active torsions:
REMARK  status: ('A' for Active; 'I' for Inactive)
REMARK    1  A    between atoms: C_1  and  C_2
REMARK    2  A    between atoms: C_3  and  C_17
REMARK    3  A    between atoms: C_5  and  C_7
REMARK    4  A    between atoms: N_19  and  CA_20
REMARK    5  A    between atoms: CA_20  and  C_22
REMARK    6  A    between atoms: CA_20  and  C_33
REMARK    7  A    between atoms: C_22  and  C_23
REMARK                            x       y       z     vdW  Elec       q    Type
REMARK                         _______ _______ _______ _____ _____    ______ ____
ROOT
ATOM      1  C   UNL     1      -2.510  -0.398   0.012  0.00  0.00    +0.248 C 
ATOM      2  O   UNL     1      -2.795   0.784   0.021  0.00  0.00    -0.270 OA
ATOM      3  N   UNL     1      -3.487  -1.327   0.012  0.00  0.00    -0.298 N 
ATOM      4  H   UNL     1      -3.260  -2.269   0.005  0.00  0.00    +0.150 HD
ENDROOT
BRANCH   1   7
ATOM      5  C   UNL     1      -0.018   1.503   0.010  0.00  0.00    +0.087 C 
ATOM      6  C   UNL     1       0.002  -0.004   0.002  0.00  0.00    +0.115 A 
ATOM      7  C   UNL     1      -1.096  -0.815   0.003  0.00  0.00    +0.078 A 
ATOM      8  C   UNL     1      -0.579  -2.188  -0.008  0.00  0.00    +0.063 A 
ATOM      9  C   UNL     1       0.773  -2.074  -0.014  0.00  0.00    +0.136 A 
ATOM     10  O   UNL     1       1.099  -0.769  -0.013  0.00  0.00    -0.459 OA
BRANCH   9  11
ATOM     11  C   UNL     1       1.731  -3.200  -0.025  0.00  0.00    +0.021 A 
ATOM     12  C   UNL     1       1.265  -4.516  -0.036  0.00  0.00    +0.015 A 
ATOM     13  C   UNL     1       2.161  -5.564  -0.045  0.00  0.00    +0.050 A 
ATOM     14  C   UNL     1       3.527  -5.316  -0.043  0.00  0.00    +0.162 A 
ATOM     15  C   UNL     1       3.998  -4.007  -0.034  0.00  0.00    +0.163 A 
ATOM     16  C   UNL     1       3.103  -2.951  -0.030  0.00  0.00    +0.061 A 
ATOM     17  O   UNL     1       5.335  -3.748  -0.041  0.00  0.00    -0.485 OA
ATOM     18  C   UNL     1       6.202  -4.827   0.325  0.00  0.00    +0.270 C 
ATOM     19  C   UNL     1       5.745  -6.085  -0.426  0.00  0.00    +0.270 C 
ATOM     20  O   UNL     1       4.393  -6.367  -0.048  0.00  0.00    -0.485 OA
ENDBRANCH   9  11
ENDBRANCH   1   7
BRANCH   3  21
ATOM     21  CA  UNL     1      -4.892  -0.912   0.021  0.00  0.00    +0.189 C 
BRANCH  21  22
ATOM     22  C   UNL     1      -5.346  -0.642  -1.390  0.00  0.00    +0.376 C 
ATOM     23  O   UNL     1      -4.634  -0.955  -2.330  0.00  0.00    -0.244 OA
ATOM     24  OXT UNL     1      -6.425  -0.112  -1.593  0.00  0.00    -0.244 OA
ENDBRANCH  21  22
BRANCH  21  25
ATOM     25  C   UNL     1      -5.748  -2.025   0.628  0.00  0.00    +0.062 C 
BRANCH  25  26
ATOM     26  C   UNL     1      -5.372  -2.213   2.099  0.00  0.00    +0.105 C 
ATOM     27  C   UNL     1      -6.253  -3.267   2.732  0.00  0.00    +0.007 C 
ATOM     28  C   UNL     1      -5.422  -4.251   3.146  0.00  0.00    -0.004 A 
ATOM     29  C   UNL     1      -5.657  -5.531   3.825  0.00  0.00    +0.010 A 
ATOM     30  C   UNL     1      -4.601  -6.323   4.116  0.00  0.00    +0.001 A 
ATOM     31  C   UNL     1      -3.289  -5.953   3.786  0.00  0.00    +0.002 A 
ATOM     32  C   UNL     1      -2.994  -4.793   3.162  0.00  0.00    +0.026 A 
ATOM     33  C   UNL     1      -4.028  -3.884   2.808  0.00  0.00    +0.043 A 
ATOM     34  N   UNL     1      -3.998  -2.716   2.209  0.00  0.00    -0.378 N 
ATOM     35  H   UNL     1      -3.202  -2.262   1.893  0.00  0.00    +0.160 HD
ENDBRANCH  25  26
ENDBRANCH  21  25
ENDBRANCH   3  21
TORSDOF 6
