REMARK  Name = ZINC03839303
REMARK  3 active torsions:
REMARK  status: ('A' for Active; 'I' for Inactive)
REMARK    1  A    between atoms: C_3  and  C_6
REMARK    2  A    between atoms: C_19  and  N_27
REMARK    3  A    between atoms: C_28  and  C_30
REMARK                            x       y       z     vdW  Elec       q    Type
REMARK                         _______ _______ _______ _____ _____    ______ ____
ROOT
ATOM      1  C   UNL     1       1.685  11.175   4.707  0.00  0.00    +0.254 C 
ATOM      2  O   UNL     1       2.137  10.089   4.396  0.00  0.00    -0.269 OA
ATOM      3  N   UNL     1       0.355  11.329   4.868  0.00  0.00    -0.284 N 
ATOM      4  C   UNL     1      -0.313  12.528   5.399  0.00  0.00    +0.111 C 
ATOM      5  C   UNL     1      -1.838  12.264   5.334  0.00  0.00    +0.043 C 
ATOM      6  C   UNL     1      -1.935  11.144   4.278  0.00  0.00    +0.104 C 
ATOM      7  C   UNL     1      -0.672  10.337   4.560  0.00  0.00    +0.182 C 
ATOM      8  C   UNL     1      -0.348   9.353   3.527  0.00  0.00    +0.239 C 
ATOM      9  O   UNL     1       0.831   9.200   3.285  0.00  0.00    -0.273 OA
ATOM     10  N   UNL     1      -1.195   8.604   2.819  0.00  0.00    -0.287 N 
ATOM     11  C   UNL     1      -0.828   7.936   1.554  0.00  0.00    +0.131 C 
ATOM     12  C   UNL     1      -2.114   7.422   0.894  0.00  0.00    +0.092 C 
ATOM     13  C   UNL     1      -3.255   7.905   1.811  0.00  0.00    +0.055 C 
ATOM     14  C   UNL     1      -2.552   8.181   3.166  0.00  0.00    +0.164 C 
ATOM     15  C   UNL     1      -3.373   9.164   3.910  0.00  0.00    +0.234 C 
ATOM     16  O   UNL     1      -4.486   8.765   4.183  0.00  0.00    -0.274 OA
ATOM     17  N   UNL     1      -3.132  10.375   4.328  0.00  0.00    -0.309 N 
ATOM     18  H   UNL     1      -3.889  10.824   4.737  0.00  0.00    +0.149 HD
ENDROOT
BRANCH   1  21
ATOM     19  C   UNL     1       4.566  13.578   5.035  0.00  0.00    +0.008 A 
ATOM     20  C   UNL     1       3.965  12.368   4.791  0.00  0.00    +0.021 A 
ATOM     21  C   UNL     1       2.584  12.314   4.906  0.00  0.00    +0.074 A 
ATOM     22  S   UNL     1       2.188  13.996   5.351  0.00  0.00    -0.092 S 
ATOM     23  C   UNL     1       3.795  14.646   5.371  0.00  0.00    +0.046 A 
ENDBRANCH   1  21
BRANCH  12  24
ATOM     24  N   UNL     1      -2.102   5.958   0.825  0.00  0.00    -0.311 N 
ATOM     25  C   UNL     1      -1.517   5.338  -0.218  0.00  0.00    +0.216 C 
ATOM     26  O   UNL     1      -1.001   5.991  -1.101  0.00  0.00    -0.276 OA
ATOM     27  H   UNL     1      -2.514   5.436   1.531  0.00  0.00    +0.149 HD
BRANCH  25  28
ATOM     28  C   UNL     1      -1.504   3.833  -0.289  0.00  0.00    +0.075 C 
ATOM     29  C   UNL     1      -0.784   3.388  -1.564  0.00  0.00    +0.013 C 
ATOM     30  C   UNL     1      -0.771   1.860  -1.636  0.00  0.00    +0.001 C 
ATOM     31  C   UNL     1      -0.039   1.298  -0.415  0.00  0.00    +0.000 C 
ATOM     32  C   UNL     1      -0.759   1.743   0.860  0.00  0.00    +0.001 C 
ATOM     33  C   UNL     1      -0.772   3.271   0.932  0.00  0.00    +0.013 C 
ENDBRANCH  25  28
ENDBRANCH  12  24
TORSDOF 3
