REMARK  Name = ZINC01795850
REMARK  5 active torsions:
REMARK  status: ('A' for Active; 'I' for Inactive)
REMARK    1  A    between atoms: C_3  and  C_6
REMARK    2  A    between atoms: C_7  and  C_8
REMARK    3  A    between atoms: N_10  and  C_11
REMARK    4  A    between atoms: C_11  and  C_12
REMARK    5  A    between atoms: N_14  and  N_15
REMARK                            x       y       z     vdW  Elec       q    Type
REMARK                         _______ _______ _______ _____ _____    ______ ____
ROOT
ATOM      1  C   UNL     1       3.807  -3.068  -0.051  0.00  0.00    +0.249 C 
ATOM      2  O   UNL     1       3.058  -4.022  -0.049  0.00  0.00    -0.272 OA
ATOM      3  N   UNL     1       3.304  -1.817  -0.039  0.00  0.00    -0.205 N 
ATOM      4  H   UNL     1       3.903  -1.054  -0.041  0.00  0.00    +0.177 HD
ENDROOT
BRANCH   3   5
ATOM      5  N   UNL     1       1.917  -1.619  -0.025  0.00  0.00    -0.174 NA
ATOM      6  C   UNL     1       1.429  -0.403  -0.014  0.00  0.00    +0.153 C 
ATOM      7  C   UNL     1       0.002  -0.004   0.002  0.00  0.00    +0.030 A 
ATOM      8  C   UNL     1      -1.188  -0.724   0.009  0.00  0.00    +0.027 A 
ATOM      9  C   UNL     1      -2.395  -0.053   0.025  0.00  0.00    +0.020 A 
ATOM     10  C   UNL     1      -2.418   1.333   0.032  0.00  0.00    +0.032 A 
ATOM     11  C   UNL     1      -1.242   2.056   0.030  0.00  0.00    +0.041 A 
ATOM     12  C   UNL     1      -0.017   1.396   0.010  0.00  0.00    +0.057 A 
ATOM     13  N   UNL     1       1.290   1.874  -0.000  0.00  0.00    -0.279 N 
ATOM     14  C   UNL     1       2.181   0.868  -0.014  0.00  0.00    +0.269 C 
ATOM     15  O   UNL     1       3.392   0.984  -0.025  0.00  0.00    -0.268 OA
ATOM     16 BR   UNL     1      -1.296   3.946   0.041  0.00  0.00    -0.048 Br
ATOM     17 BR   UNL     1      -4.016  -1.025   0.035  0.00  0.00    -0.050 Br
ATOM     18  H   UNL     1       1.527   2.815   0.003  0.00  0.00    +0.155 HD
ENDBRANCH   3   5
BRANCH   1  19
ATOM     19  C   UNL     1       5.298  -3.280  -0.066  0.00  0.00    +0.202 C 
BRANCH  19  22
ATOM     20  C   UNL     1       6.864  -5.147  -0.091  0.00  0.00    +0.237 C 
ATOM     21  O   UNL     1       7.778  -4.343  -0.096  0.00  0.00    -0.271 OA
ATOM     22  N   UNL     1       5.587  -4.717  -0.077  0.00  0.00    -0.303 N 
ATOM     23  H   UNL     1       4.859  -5.358  -0.073  0.00  0.00    +0.149 HD
BRANCH  20  25
ATOM     24  C   UNL     1       8.428  -6.969  -0.116  0.00  0.00    +0.051 C 
ATOM     25  C   UNL     1       7.142  -6.535  -0.101  0.00  0.00    +0.071 C 
BRANCH  24  28
ATOM     26  C   UNL     1       9.758 -10.323  -0.146  0.00  0.00    +0.042 A 
ATOM     27  C   UNL     1       9.959  -8.935  -0.146  0.00  0.00    +0.049 A 
ATOM     28  C   UNL     1       8.706  -8.357  -0.126  0.00  0.00    +0.128 A 
ATOM     29  O   UNL     1       7.794  -9.351  -0.123  0.00  0.00    -0.464 OA
ATOM     30  C   UNL     1       8.424 -10.534  -0.135  0.00  0.00    +0.195 A 
ENDBRANCH  24  28
ENDBRANCH  20  25
ENDBRANCH  19  22
ENDBRANCH   1  19
TORSDOF 5
