REMARK  Name = ZINC27143456
REMARK  10 active torsions:
REMARK  status: ('A' for Active; 'I' for Inactive)
REMARK    1  A    between atoms: C_1  and  S_2
REMARK    2  A    between atoms: S_2  and  C_3
REMARK    3  A    between atoms: C_6  and  C_12
REMARK    4  A    between atoms: C_8  and  N_9
REMARK    5  A    between atoms: C_12  and  C_14
REMARK    6  A    between atoms: C_19  and  C_20
REMARK    7  A    between atoms: N_22  and  C_23
REMARK    8  A    between atoms: C_23  and  C_24
REMARK    9  A    between atoms: C_24  and  N_25
REMARK   10  A    between atoms: C_26  and  C_28
REMARK                            x       y       z     vdW  Elec       q    Type
REMARK                         _______ _______ _______ _____ _____    ______ ____
ROOT
ATOM      1  C   UNL     1       3.687   1.925   0.020  0.00  0.00    +0.034 A 
ATOM      2  C   UNL     1       3.568   3.312   0.087  0.00  0.00    +0.012 A 
ATOM      3  C   UNL     1       4.701   4.103   0.093  0.00  0.00    +0.001 A 
ATOM      4  C   UNL     1       5.958   3.526   0.022  0.00  0.00    +0.001 A 
ATOM      5  C   UNL     1       6.095   2.153  -0.051  0.00  0.00    +0.014 A 
ATOM      6  C   UNL     1       4.965   1.340  -0.053  0.00  0.00    +0.047 A 
ENDROOT
BRANCH   6   7
ATOM      7  C   UNL     1       5.106  -0.130  -0.130  0.00  0.00    +0.245 C 
ATOM      8  O   UNL     1       4.119  -0.831  -0.238  0.00  0.00    -0.270 OA
ATOM      9  N   UNL     1       6.330  -0.693  -0.082  0.00  0.00    -0.310 N 
ATOM     10  H   UNL     1       7.223  -0.059   0.015  0.00  0.00    +0.149 HD
BRANCH   9  11
ATOM     11  C   UNL     1       6.470  -2.150  -0.159  0.00  0.00    +0.123 C 
BRANCH  11  12
ATOM     12  C   UNL     1       7.951  -2.524  -0.082  0.00  0.00    +0.123 C 
BRANCH  12  13
ATOM     13  N   UNL     1       8.091  -3.980  -0.158  0.00  0.00    -0.307 N 
ATOM     14  C   UNL     1       9.315  -4.543  -0.110  0.00  0.00    +0.279 C 
ATOM     15  O   UNL     1      10.303  -3.842  -0.002  0.00  0.00    -0.267 OA
ATOM     16  H   UNL     1       7.198  -4.614  -0.256  0.00  0.00    +0.149 HD
BRANCH  14  17
ATOM     17  C   UNL     1       9.455  -6.001  -0.187  0.00  0.00    +0.189 A 
ATOM     18  C   UNL     1      10.629  -6.697  -0.149  0.00  0.00    +0.054 A 
ATOM     19  C   UNL     1      10.296  -8.057  -0.251  0.00  0.00    +0.042 A 
ATOM     20  C   UNL     1       8.950  -8.130  -0.345  0.00  0.00    +0.196 A 
ATOM     21  O   UNL     1       8.446  -6.890  -0.301  0.00  0.00    -0.458 OA
ENDBRANCH  14  17
ENDBRANCH  12  13
ENDBRANCH  11  12
ENDBRANCH   9  11
ENDBRANCH   6   7
BRANCH   1  22
ATOM     22  C   UNL     1       2.477   1.075   0.019  0.00  0.00    +0.194 C 
ATOM     23  O   UNL     1       1.806   0.973  -0.990  0.00  0.00    -0.287 OA
BRANCH  22  27
ATOM     24  C   UNL     1       1.351  -1.009   3.530  0.00  0.00    +0.038 A 
ATOM     25  C   UNL     1       2.544  -0.287   3.502  0.00  0.00    +0.017 A 
ATOM     26  C   UNL     1       2.910   0.386   2.372  0.00  0.00    +0.013 A 
ATOM     27  C   UNL     1       2.086   0.350   1.240  0.00  0.00    +0.024 A 
ATOM     28  C   UNL     1       0.890  -0.377   1.272  0.00  0.00    +0.045 A 
ATOM     29  C   UNL     1       0.527  -1.042   2.407  0.00  0.00    +0.140 A 
BRANCH  29  30
ATOM     30  N   UNL     1      -0.741  -1.806   2.444  0.00  0.00    +0.058 N 
ATOM     31  O   UNL     1      -1.460  -1.839   1.461  0.00  0.00    -0.126 OA
ATOM     32  O   UNL     1      -1.065  -2.400   3.456  0.00  0.00    -0.126 OA
ENDBRANCH  29  30
BRANCH  24  34
ATOM     33  C   UNL     1       2.233  -1.537   6.154  0.00  0.00    +0.090 C 
ATOM     34  S   UNL     1       0.883  -1.875   4.992  0.00  0.00    -0.126 S 
ENDBRANCH  24  34
ENDBRANCH  22  27
ENDBRANCH   1  22
TORSDOF 9
