REMARK  Name = ZINC34812010
REMARK  7 active torsions:
REMARK  status: ('A' for Active; 'I' for Inactive)
REMARK    1  A    between atoms: C_1  and  C_2
REMARK    2  A    between atoms: C_2  and  C_3
REMARK    3  A    between atoms: C_3  and  C_4
REMARK    4  A    between atoms: C_4  and  C_5
REMARK    5  A    between atoms: C_5  and  C_7
REMARK    6  A    between atoms: C_5  and  C_9
REMARK    7  A    between atoms: C_7  and  C_8
REMARK                            x       y       z     vdW  Elec       q    Type
REMARK                         _______ _______ _______ _____ _____    ______ ____
ROOT
ATOM      1  C   UNL     1       1.336  -3.881  -2.561  0.00  0.00    +0.219 C 
ATOM      2  O   UNL     1       0.662  -4.415  -1.705  0.00  0.00    -0.275 OA
ATOM      3  N   UNL     1       1.913  -4.625  -3.525  0.00  0.00    -0.301 N 
ATOM      4  C   UNL     1       2.643  -3.984  -4.628  0.00  0.00    +0.111 C 
ATOM      5  C   UNL     1       2.079  -4.497  -5.956  0.00  0.00    +0.064 C 
ATOM      6  C   UNL     1       2.134  -6.027  -5.972  0.00  0.00    +0.102 C 
ATOM      7  C   UNL     1       1.269  -6.579  -4.837  0.00  0.00    +0.064 C 
ATOM      8  C   UNL     1       1.828  -6.091  -3.491  0.00  0.00    +0.111 C 
ATOM      9  N   UNL     1       1.615  -6.514  -7.256  0.00  0.00    -0.323 N 
ATOM     10  C   UNL     1       1.872  -7.832  -7.621  0.00  0.00    +0.044 A 
ATOM     11  C   UNL     1       1.005  -8.552  -8.423  0.00  0.00    +0.065 A 
ATOM     12  C   UNL     1       1.304  -9.863  -8.753  0.00  0.00    +0.160 A 
ATOM     13  C   UNL     1       2.468 -10.460  -8.283  0.00  0.00    +0.159 A 
ATOM     14  C   UNL     1       3.343  -9.753  -7.484  0.00  0.00    +0.056 A 
ATOM     15  C   UNL     1       3.053  -8.432  -7.148  0.00  0.00    +0.060 A 
ATOM     16  C   UNL     1       3.959  -7.629  -6.309  0.00  0.00    +0.247 C 
ATOM     17  O   UNL     1       5.092  -8.011  -6.088  0.00  0.00    -0.270 OA
ATOM     18  N   UNL     1       3.518  -6.466  -5.787  0.00  0.00    -0.290 N 
ATOM     19  F   UNL     1       2.744 -11.741  -8.611  0.00  0.00    -0.202 F 
ATOM     20  F   UNL     1       0.458 -10.567  -9.536  0.00  0.00    -0.202 F 
ATOM     21  H   UNL     1       1.104  -5.930  -7.838  0.00  0.00    +0.148 HD
ATOM     22  H   UNL     1       4.130  -5.909  -5.280  0.00  0.00    +0.151 HD
ENDROOT
BRANCH   1  23
ATOM     23  C   UNL     1       1.529  -2.386  -2.545  0.00  0.00    +0.075 C 
BRANCH  23  24
ATOM     24  C   UNL     1       1.472  -1.880  -1.102  0.00  0.00    +0.009 C 
ATOM     25  C   UNL     1       2.651  -2.454  -0.314  0.00  0.00    +0.004 C 
ENDBRANCH  23  24
BRANCH  23  26
ATOM     26  C   UNL     1       0.420  -1.721  -3.363  0.00  0.00    +0.013 C 
BRANCH  26  27
ATOM     27  C   UNL     1       0.685  -0.216  -3.451  0.00  0.00    +0.000 C 
BRANCH  27  29
ATOM     28  C   UNL     1      -0.159   1.954  -4.358  0.00  0.00    +0.004 C 
ATOM     29  C   UNL     1      -0.423   0.449  -4.269  0.00  0.00    -0.003 C 
ENDBRANCH  27  29
ENDBRANCH  26  27
ENDBRANCH  23  26
ENDBRANCH   1  23
TORSDOF 5
