REMARK  Name = ZINC15926576
REMARK  7 active torsions:
REMARK  status: ('A' for Active; 'I' for Inactive)
REMARK    1  A    between atoms: C_6  and  S_7
REMARK    2  A    between atoms: S_7  and  N_10
REMARK    3  A    between atoms: N_10  and  C_11
REMARK    4  A    between atoms: C_11  and  C_12
REMARK    5  A    between atoms: C_12  and  C_13
REMARK    6  A    between atoms: N_15  and  C_16
REMARK    7  A    between atoms: C_16  and  C_17
REMARK                            x       y       z     vdW  Elec       q    Type
REMARK                         _______ _______ _______ _____ _____    ______ ____
ROOT
ATOM      1  C   UNL     1      -1.855   4.955  -3.279  0.00  0.00    +0.214 C 
ATOM      2  O   UNL     1      -1.645   5.772  -2.408  0.00  0.00    -0.276 OA
ATOM      3  N   UNL     1      -2.298   5.356  -4.487  0.00  0.00    -0.315 N 
ATOM      4  H   UNL     1      -2.466   4.702  -5.183  0.00  0.00    +0.149 HD
ENDROOT
BRANCH   1   5
ATOM      5  C   UNL     1      -1.622   3.491  -3.009  0.00  0.00    +0.112 C 
BRANCH   5   6
ATOM      6  C   UNL     1      -1.125   3.309  -1.574  0.00  0.00    +0.115 C 
BRANCH   6   7
ATOM      7  N   UNL     1      -0.897   1.885  -1.312  0.00  0.00    -0.189 NA
ATOM      8  H   UNL     1      -1.263   1.218  -1.913  0.00  0.00    +0.148 HD
BRANCH   7   9
ATOM      9  S   UNL     1      -0.017   1.417   0.010  0.00  0.00    +0.058 S 
ATOM     10  O   UNL     1       0.002  -0.004   0.002  0.00  0.00    -0.153 OA
ATOM     11  O   UNL     1       1.172   2.195   0.003  0.00  0.00    -0.153 OA
BRANCH   9  17
ATOM     12  C   UNL     1      -0.717   3.145   2.004  0.00  0.00    +0.029 A 
ATOM     13  C   UNL     1      -1.434   3.526   3.122  0.00  0.00    +0.017 A 
ATOM     14  C   UNL     1      -2.353   2.659   3.683  0.00  0.00    +0.018 A 
ATOM     15  C   UNL     1      -2.559   1.411   3.121  0.00  0.00    +0.017 A 
ATOM     16  C   UNL     1      -1.846   1.033   2.000  0.00  0.00    +0.029 A 
ATOM     17  C   UNL     1      -0.927   1.900   1.439  0.00  0.00    +0.105 A 
ATOM     18 BR   UNL     1      -3.329   3.177   5.218  0.00  0.00    -0.050 Br
ENDBRANCH   9  17
ENDBRANCH   7   9
ENDBRANCH   6   7
ENDBRANCH   5   6
ENDBRANCH   1   5
BRANCH   3  19
ATOM     19  C   UNL     1      -2.525   6.779  -4.748  0.00  0.00    +0.111 C 
BRANCH  19  20
ATOM     20  C   UNL     1      -3.022   6.961  -6.184  0.00  0.00    -0.013 C 
ATOM     21  C   UNL     1      -1.972   6.424  -7.159  0.00  0.00    +0.012 C 
ATOM     22  C   UNL     1      -2.469   6.606  -8.594  0.00  0.00    -0.010 C 
ATOM     23  C   UNL     1      -2.707   8.093  -8.868  0.00  0.00    +0.007 C 
ATOM     24  C   UNL     1      -3.757   8.629  -7.893  0.00  0.00    -0.010 C 
ATOM     25  C   UNL     1      -3.260   8.447  -6.457  0.00  0.00    +0.012 C 
ATOM     26  C   UNL     1      -5.066   7.861  -8.080  0.00  0.00    +0.007 C 
ATOM     27  C   UNL     1      -4.829   6.374  -7.807  0.00  0.00    -0.010 C 
ATOM     28  C   UNL     1      -3.779   5.838  -8.782  0.00  0.00    +0.007 C 
ATOM     29  C   UNL     1      -4.332   6.192  -6.371  0.00  0.00    +0.012 C 
ENDBRANCH  19  20
ENDBRANCH   3  19
TORSDOF 7
