REMARK  Name = ZINC18197106
REMARK  10 active torsions:
REMARK  status: ('A' for Active; 'I' for Inactive)
REMARK    1  A    between atoms: C_1  and  C_2
REMARK    2  A    between atoms: C_2  and  C_3
REMARK    3  A    between atoms: C_2  and  C_4
REMARK    4  A    between atoms: C_7  and  C_10
REMARK    5  A    between atoms: C_17  and  O_18
REMARK    6  A    between atoms: C_25  and  C_28
REMARK    7  A    between atoms: C_31  and  O_36
REMARK    8  A    between atoms: C_32  and  O_34
REMARK    9  A    between atoms: O_34  and  C_35
REMARK   10  A    between atoms: O_36  and  C_37
REMARK                            x       y       z     vdW  Elec       q    Type
REMARK                         _______ _______ _______ _____ _____    ______ ____
ROOT
ATOM      1  C   UNL     1      -5.419  -2.005   0.043  0.00  0.00    +0.092 C 
ATOM      2  C   UNL     1      -6.378  -0.848   0.056  0.00  0.00    +0.067 A 
ATOM      3  C   UNL     1      -7.091  -0.498   1.173  0.00  0.00    +0.126 A 
ATOM      4  N   UNL     1      -7.848   0.570   0.859  0.00  0.00    -0.260 N 
ATOM      5  H   UNL     1      -8.474   1.050   1.473  0.00  0.00    +0.190 HD
ATOM      6  N   UNL     1      -7.602   0.889  -0.487  0.00  0.00    -0.134 NA
ATOM      7  C   UNL     1      -6.721   0.036  -0.962  0.00  0.00    +0.237 A 
ATOM      8  N   UNL     1      -6.968  -1.206   2.362  0.00  0.00    -0.303 N 
ATOM      9  C   UNL     1      -6.355  -2.434   2.334  0.00  0.00    +0.017 C 
ATOM     10  C   UNL     1      -5.632  -2.857   1.276  0.00  0.00    +0.024 C 
ATOM     11  C   UNL     1      -5.038  -4.133   1.271  0.00  0.00    +0.162 C 
ATOM     12  O   UNL     1      -4.391  -4.483   0.303  0.00  0.00    -0.292 OA
ATOM     13  C   UNL     1      -5.184  -5.072   2.435  0.00  0.00    +0.088 C 
ATOM     14  C   UNL     1      -6.508  -4.779   3.147  0.00  0.00    +0.032 C 
ATOM     15  C   UNL     1      -6.516  -3.305   3.559  0.00  0.00    +0.059 C 
ATOM     16  H   UNL     1      -7.308  -0.841   3.194  0.00  0.00    +0.153 HD
ENDROOT
BRANCH   1  20
ATOM     17  C   UNL     1      -1.412  -0.526   0.013  0.00  0.00    -0.045 A 
ATOM     18  C   UNL     1      -2.256  -0.214   1.062  0.00  0.00    +0.004 A 
ATOM     19  C   UNL     1      -3.554  -0.688   1.069  0.00  0.00    +0.005 A 
ATOM     20  C   UNL     1      -4.005  -1.483   0.033  0.00  0.00    -0.035 A 
ATOM     21  C   UNL     1      -3.160  -1.800  -1.014  0.00  0.00    +0.005 A 
ATOM     22  C   UNL     1      -1.863  -1.321  -1.024  0.00  0.00    +0.004 A 
BRANCH  17  24
ATOM     23  C   UNL     1      -0.019   1.526   0.010  0.00  0.00    +0.012 C 
ATOM     24  C   UNL     1       0.002  -0.004   0.002  0.00  0.00    +0.013 C 
ATOM     25  C   UNL     1       0.742  -0.511   1.242  0.00  0.00    +0.012 C 
ENDBRANCH  17  24
ENDBRANCH   1  20
BRANCH  14  26
ATOM     26  C   UNL     1      -6.630  -5.649   4.372  0.00  0.00    -0.040 A 
ATOM     27  C   UNL     1      -5.670  -5.581   5.364  0.00  0.00    +0.008 A 
ATOM     28  C   UNL     1      -5.780  -6.373   6.492  0.00  0.00    +0.049 A 
ATOM     29  C   UNL     1      -6.848  -7.245   6.625  0.00  0.00    +0.161 A 
ATOM     30  C   UNL     1      -7.812  -7.317   5.623  0.00  0.00    +0.162 A 
ATOM     31  C   UNL     1      -7.699  -6.516   4.498  0.00  0.00    +0.053 A 
BRANCH  30  32
ATOM     32  O   UNL     1      -8.862  -8.172   5.749  0.00  0.00    -0.491 OA
ATOM     33  C   UNL     1      -9.812  -8.193   4.682  0.00  0.00    +0.277 C 
ENDBRANCH  30  32
BRANCH  29  34
ATOM     34  O   UNL     1      -6.955  -8.029   7.731  0.00  0.00    -0.491 OA
ATOM     35  C   UNL     1      -5.929  -7.902   8.717  0.00  0.00    +0.277 C 
ENDBRANCH  29  34
ENDBRANCH  14  26
BRANCH   7  36
ATOM     36  O   UNL     1      -6.229   0.021  -2.230  0.00  0.00    -0.491 OA
ATOM     37  H   UNL     1      -6.641   0.765  -2.756  0.00  0.00    +0.294 HD
ENDBRANCH   7  36
TORSDOF 6
