REMARK  Name = ZINC09183718
REMARK  6 active torsions:
REMARK  status: ('A' for Active; 'I' for Inactive)
REMARK    1  A    between atoms: C_4  and  C_7
REMARK    2  A    between atoms: C_7  and  C_8
REMARK    3  A    between atoms: C_8  and  N_9
REMARK    4  A    between atoms: C_17  and  C_21
REMARK    5  A    between atoms: C_17  and  N_25
REMARK    6  A    between atoms: C_26  and  C_28
REMARK                            x       y       z     vdW  Elec       q    Type
REMARK                         _______ _______ _______ _____ _____    ______ ____
ROOT
ATOM      1  N   UNL     1       4.543  -2.130   2.015  0.00  0.00    -0.281 N 
ATOM      2  C   UNL     1       4.927  -3.432   1.778  0.00  0.00    +0.120 A 
ATOM      3  C   UNL     1       6.251  -3.691   1.577  0.00  0.00    +0.096 A 
ATOM      4  C   UNL     1       7.186  -2.648   1.613  0.00  0.00    +0.262 A 
ATOM      5  N   UNL     1       6.762  -1.389   1.849  0.00  0.00    -0.275 N 
ATOM      6  C   UNL     1       5.453  -1.141   2.041  0.00  0.00    +0.331 A 
ATOM      7  O   UNL     1       5.087  -0.000   2.247  0.00  0.00    -0.246 OA
ATOM      8  O   UNL     1       8.370  -2.876   1.434  0.00  0.00    -0.267 OA
ATOM      9  C   UNL     1       6.371  -5.178   1.347  0.00  0.00    +0.240 C 
ATOM     10  C   UNL     1       4.941  -5.669   1.452  0.00  0.00    +0.256 C 
ATOM     11  O   UNL     1       4.555  -6.813   1.334  0.00  0.00    -0.272 OA
ATOM     12  N   UNL     1       4.185  -4.586   1.702  0.00  0.00    -0.269 N 
ATOM     13  H   UNL     1       7.401  -0.660   1.876  0.00  0.00    +0.173 HD
ATOM     14  H   UNL     1       3.222  -4.615   1.817  0.00  0.00    +0.156 HD
ENDROOT
BRANCH   9  15
ATOM     15  C   UNL     1       6.937  -5.464  -0.046  0.00  0.00    +0.424 C 
ATOM     16  F   UNL     1       8.251  -4.990  -0.121  0.00  0.00    -0.167 F 
ATOM     17  F   UNL     1       6.925  -6.843  -0.281  0.00  0.00    -0.167 F 
ATOM     18  F   UNL     1       6.153  -4.820  -1.009  0.00  0.00    -0.167 F 
ENDBRANCH   9  15
BRANCH   9  19
ATOM     19  N   UNL     1       7.206  -5.795   2.381  0.00  0.00    -0.284 N 
ATOM     20  C   UNL     1       6.893  -5.636   3.682  0.00  0.00    +0.281 C 
ATOM     21  O   UNL     1       5.869  -5.059   3.996  0.00  0.00    -0.267 OA
ATOM     22  H   UNL     1       7.983  -6.318   2.129  0.00  0.00    +0.151 HD
BRANCH  20  23
ATOM     23  C   UNL     1       7.788  -6.159   4.720  0.00  0.00    +0.189 A 
ATOM     24  C   UNL     1       7.590  -6.072   6.068  0.00  0.00    +0.054 A 
ATOM     25  C   UNL     1       8.686  -6.702   6.678  0.00  0.00    +0.042 A 
ATOM     26  C   UNL     1       9.495  -7.140   5.689  0.00  0.00    +0.196 A 
ATOM     27  O   UNL     1       8.947  -6.816   4.510  0.00  0.00    -0.458 OA
ENDBRANCH  20  23
ENDBRANCH   9  19
BRANCH   1  28
ATOM     28  C   UNL     1       3.128  -1.819   2.234  0.00  0.00    +0.133 C 
BRANCH  28  29
ATOM     29  C   UNL     1       2.459  -1.511   0.893  0.00  0.00    +0.057 C 
BRANCH  29  33
ATOM     30  C   UNL     1      -1.666  -0.605   1.530  0.00  0.00    +0.000 A 
ATOM     31  C   UNL     1      -0.725   0.406   1.557  0.00  0.00    +0.000 A 
ATOM     32  C   UNL     1       0.611   0.113   1.351  0.00  0.00    +0.004 A 
ATOM     33  C   UNL     1       1.004  -1.192   1.118  0.00  0.00    -0.046 A 
ATOM     34  C   UNL     1       0.062  -2.203   1.093  0.00  0.00    +0.004 A 
ATOM     35  C   UNL     1      -1.273  -1.910   1.297  0.00  0.00    +0.000 A 
ENDBRANCH  29  33
ENDBRANCH  28  29
ENDBRANCH   1  28
TORSDOF 6
