REMARK  Name = ZINC22786812
REMARK  6 active torsions:
REMARK  status: ('A' for Active; 'I' for Inactive)
REMARK    1  A    between atoms: C_1  and  C_2
REMARK    2  A    between atoms: N_11  and  C_15
REMARK    3  A    between atoms: C_15  and  N_16
REMARK    4  A    between atoms: N_19  and  C_22
REMARK    5  A    between atoms: C_22  and  C_23
REMARK    6  A    between atoms: C_24  and  C_25
REMARK                            x       y       z     vdW  Elec       q    Type
REMARK                         _______ _______ _______ _____ _____    ______ ____
ROOT
ATOM      1  N   UNL     1       4.818   1.149  -3.506  0.00  0.00    -0.290 NA
ATOM      2  C   UNL     1       5.444   1.529  -2.232  0.00  0.00    +0.067 C 
ATOM      3  C   UNL     1       4.620   0.964  -1.073  0.00  0.00    -0.063 C 
ATOM      4  N   UNL     1       3.246   1.479  -1.156  0.00  0.00    +0.384 N 
ATOM      5  C   UNL     1       2.620   1.098  -2.430  0.00  0.00    -0.063 C 
ATOM      6  C   UNL     1       3.444   1.663  -3.589  0.00  0.00    +0.067 C 
ATOM      7  H   UNL     1       3.291   2.577  -1.114  0.00  0.00    -0.081 HD
ENDROOT
BRANCH   1   8
ATOM      8  C   UNL     1       5.623   1.609  -4.646  0.00  0.00    +0.204 C 
BRANCH   8  18
ATOM      9  C   UNL     1       6.126   1.195  -9.055  0.00  0.00    +0.010 C 
ATOM     10  C   UNL     1       4.802   0.429  -9.107  0.00  0.00    +0.018 C 
ATOM     11  C   UNL     1       4.920  -0.728 -10.102  0.00  0.00    +0.006 C 
ATOM     12  C   UNL     1       3.603  -1.505 -10.137  0.00  0.00    +0.000 C 
ATOM     13  C   UNL     1       3.305  -2.070  -8.747  0.00  0.00    +0.003 C 
ATOM     14  C   UNL     1       3.180  -0.918  -7.746  0.00  0.00    +0.035 C 
ATOM     15  C   UNL     1       4.479  -0.120  -7.721  0.00  0.00    +0.115 C 
ATOM     16  C   UNL     1       4.385   1.007  -6.717  0.00  0.00    +0.248 C 
ATOM     17  O   UNL     1       3.606   1.935  -6.727  0.00  0.00    -0.273 OA
ATOM     18  N   UNL     1       5.351   0.761  -5.809  0.00  0.00    -0.211 N 
ATOM     19  C   UNL     1       6.036  -0.351  -6.105  0.00  0.00    +0.310 C 
ATOM     20  O   UNL     1       6.958  -0.775  -5.438  0.00  0.00    -0.252 OA
ATOM     21  N   UNL     1       5.584  -0.949  -7.225  0.00  0.00    -0.285 N 
ATOM     22  H   UNL     1       5.877  -1.858  -7.769  0.00  0.00    +0.151 HD
ENDBRANCH   8  18
ENDBRANCH   1   8
BRANCH   4  23
ATOM     23  C   UNL     1       2.442   1.018  -0.016  0.00  0.00    -0.051 C 
BRANCH  23  24
ATOM     24  C   UNL     1       1.126   1.754   0.001  0.00  0.00    -0.045 C 
ATOM     25  C   UNL     1      -0.013   1.076   0.008  0.00  0.00    +0.002 C 
BRANCH  25  26
ATOM     26  C   UNL     1      -1.303   1.797   0.018  0.00  0.00    -0.025 A 
ATOM     27  C   UNL     1      -1.325   3.192   0.032  0.00  0.00    +0.008 A 
ATOM     28  C   UNL     1      -2.532   3.860   0.035  0.00  0.00    +0.001 A 
ATOM     29  C   UNL     1      -3.719   3.149   0.037  0.00  0.00    +0.000 A 
ATOM     30  C   UNL     1      -3.704   1.766   0.029  0.00  0.00    +0.001 A 
ATOM     31  C   UNL     1      -2.503   1.086   0.020  0.00  0.00    +0.008 A 
ENDBRANCH  25  26
ENDBRANCH  23  24
ENDBRANCH   4  23
TORSDOF 5
