REMARK  Name = ZINC08749883
REMARK  8 active torsions:
REMARK  status: ('A' for Active; 'I' for Inactive)
REMARK    1  A    between atoms: C_1  and  C_2
REMARK    2  A    between atoms: C_5  and  C_8
REMARK    3  A    between atoms: C_8  and  C_10
REMARK    4  A    between atoms: C_8  and  N_16
REMARK    5  A    between atoms: N_16  and  C_17
REMARK    6  A    between atoms: C_17  and  C_18
REMARK    7  A    between atoms: N_20  and  C_21
REMARK    8  A    between atoms: N_20  and  C_27
REMARK                            x       y       z     vdW  Elec       q    Type
REMARK                         _______ _______ _______ _____ _____    ______ ____
ROOT
ATOM      1  N   UNL     1       2.948   3.619  -1.876  0.00  0.00    +0.392 N 
ATOM      2  H   UNL     1       2.702   4.239  -2.750  0.00  0.00    -0.084 HD
ATOM      3  H   UNL     1       3.704   2.871  -2.157  0.00  0.00    -0.084 HD
ENDROOT
BRANCH   1   4
ATOM      4  C   UNL     1       3.479   4.473  -0.804  0.00  0.00    -0.009 C 
BRANCH   4   9
ATOM      5  C   UNL     1       6.582   8.763  -3.118  0.00  0.00    +0.044 C 
ATOM      6  C   UNL     1       5.773   7.644  -2.515  0.00  0.00    -0.050 A 
ATOM      7  C   UNL     1       4.947   7.893  -1.434  0.00  0.00    +0.003 A 
ATOM      8  C   UNL     1       4.205   6.867  -0.881  0.00  0.00    +0.002 A 
ATOM      9  C   UNL     1       4.288   5.592  -1.408  0.00  0.00    -0.057 A 
ATOM     10  C   UNL     1       5.118   5.342  -2.485  0.00  0.00    +0.002 A 
ATOM     11  C   UNL     1       5.856   6.369  -3.042  0.00  0.00    +0.003 A 
ENDBRANCH   4   9
BRANCH   4  12
ATOM     12  C   UNL     1       4.357   3.651   0.104  0.00  0.00    -0.057 A 
ATOM     13  C   UNL     1       5.204   2.697  -0.430  0.00  0.00    +0.002 A 
ATOM     14  C   UNL     1       6.013   1.947   0.402  0.00  0.00    +0.000 A 
ATOM     15  C   UNL     1       5.968   2.143   1.770  0.00  0.00    +0.000 A 
ATOM     16  C   UNL     1       5.118   3.093   2.304  0.00  0.00    +0.000 A 
ATOM     17  C   UNL     1       4.312   3.847   1.472  0.00  0.00    +0.002 A 
ENDBRANCH   4  12
ENDBRANCH   1   4
BRANCH   1  18
ATOM     18  C   UNL     1       1.733   2.920  -1.438  0.00  0.00    +0.016 C 
BRANCH  18  19
ATOM     19  C   UNL     1       1.219   2.056  -2.561  0.00  0.00    +0.199 C 
ATOM     20  O   UNL     1       1.853   1.957  -3.589  0.00  0.00    -0.278 OA
ATOM     21  N   UNL     1       0.053   1.393  -2.421  0.00  0.00    -0.295 N 
BRANCH  21  22
ATOM     22  C   UNL     1      -0.765   1.594  -1.223  0.00  0.00    +0.099 C 
ATOM     23  C   UNL     1      -2.099   2.247  -1.620  0.00  0.00    +0.046 C 
ATOM     24  C   UNL     1      -3.061   2.162  -0.400  0.00  0.00    +0.168 C 
ATOM     25  S   UNL     1      -2.692   0.461   0.203  0.00  0.00    -0.029 S 
ATOM     26  O   UNL     1      -3.600  -0.451  -0.399  0.00  0.00    -0.174 OA
ATOM     27  O   UNL     1      -2.563   0.489   1.617  0.00  0.00    -0.174 OA
ATOM     28  C   UNL     1      -1.027   0.228  -0.545  0.00  0.00    +0.188 C 
ENDBRANCH  21  22
BRANCH  21  29
ATOM     29  C   UNL     1      -0.395   0.472  -3.468  0.00  0.00    +0.076 C 
ATOM     30  C   UNL     1       0.642  -0.638  -3.649  0.00  0.00    +0.022 C 
ATOM     31  C   UNL     1       0.174  -1.601  -4.743  0.00  0.00    +0.002 C 
ATOM     32  C   UNL     1       0.010  -0.837  -6.058  0.00  0.00    +0.000 C 
ATOM     33  C   UNL     1      -1.027   0.274  -5.877  0.00  0.00    +0.002 C 
ATOM     34  C   UNL     1      -0.559   1.236  -4.784  0.00  0.00    +0.022 C 
ENDBRANCH  21  29
ENDBRANCH  18  19
ENDBRANCH   1  18
TORSDOF 7
