REMARK  Name = ZINC15110027
REMARK  2 active torsions:
REMARK  status: ('A' for Active; 'I' for Inactive)
REMARK    1  A    between atoms: C_4  and  N_7
REMARK    2  A    between atoms: C_13  and  C_19
REMARK                            x       y       z     vdW  Elec       q    Type
REMARK                         _______ _______ _______ _____ _____    ______ ____
ROOT
ATOM      1  N   UNL     1      -0.069   5.240   0.028  0.00  0.00    -0.294 N 
ATOM      2  C   UNL     1      -1.276   5.917  -0.062  0.00  0.00    +0.165 A 
ATOM      3  N   UNL     1      -2.502   5.428  -0.070  0.00  0.00    -0.209 NA
ATOM      4  C   UNL     1      -3.570   6.211  -0.158  0.00  0.00    +0.138 A 
ATOM      5  C   UNL     1      -3.325   7.553  -0.251  0.00  0.00    +0.041 A 
ATOM      6  S   UNL     1      -1.560   7.629  -0.186  0.00  0.00    -0.054 S 
ATOM      7  C   UNL     1      -4.349   8.627  -0.372  0.00  0.00    +0.075 C 
ATOM      8  C   UNL     1      -5.644   8.130   0.288  0.00  0.00    +0.110 C 
ATOM      9  C   UNL     1      -5.900   6.694  -0.068  0.00  0.00    +0.219 C 
ATOM     10  O   UNL     1      -7.045   6.344  -0.266  0.00  0.00    -0.275 OA
ATOM     11  N   UNL     1      -4.923   5.777  -0.178  0.00  0.00    -0.270 N 
ATOM     12  H   UNL     1       0.767   5.723  -0.066  0.00  0.00    +0.154 HD
ATOM     13  H   UNL     1      -5.138   4.835  -0.268  0.00  0.00    +0.156 HD
ENDROOT
BRANCH   1  17
ATOM     14  C   UNL     1      -0.034   1.130   0.700  0.00  0.00    +0.000 A 
ATOM     15  C   UNL     1      -1.100   1.892   1.141  0.00  0.00    +0.002 A 
ATOM     16  C   UNL     1      -1.113   3.256   0.925  0.00  0.00    +0.023 A 
ATOM     17  C   UNL     1      -0.057   3.861   0.254  0.00  0.00    +0.033 A 
ATOM     18  C   UNL     1       1.010   3.091  -0.193  0.00  0.00    +0.023 A 
ATOM     19  C   UNL     1       1.018   1.729   0.031  0.00  0.00    +0.002 A 
ENDBRANCH   1  17
BRANCH   7  20
ATOM     20  C   UNL     1      -4.602   8.927  -1.827  0.00  0.00    -0.002 A 
ATOM     21  C   UNL     1      -4.467  10.100  -2.493  0.00  0.00    +0.012 A 
ATOM     22  C   UNL     1      -4.756  10.140  -3.844  0.00  0.00    +0.008 A 
ATOM     23  C   UNL     1      -5.176   9.009  -4.461  0.00  0.00    +0.045 A 
ATOM     24  S   UNL     1      -5.166   7.831  -3.119  0.00  0.00    -0.101 S 
ENDBRANCH   7  20
TORSDOF 2
