REMARK  Name = ZINC43737041
REMARK  9 active torsions:
REMARK  status: ('A' for Active; 'I' for Inactive)
REMARK    1  A    between atoms: C_1  and  C_2
REMARK    2  A    between atoms: C_5  and  O_45
REMARK    3  A    between atoms: C_18  and  C_44
REMARK    4  A    between atoms: C_23  and  C_24
REMARK    5  A    between atoms: C_24  and  C_26
REMARK    6  A    between atoms: C_26  and  C_27
REMARK    7  A    between atoms: C_34  and  O_35
REMARK    8  A    between atoms: O_35  and  C_36
REMARK    9  A    between atoms: N_42  and  C_43
REMARK                            x       y       z     vdW  Elec       q    Type
REMARK                         _______ _______ _______ _____ _____    ______ ____
ROOT
ATOM      1  C   UNL     1      -0.633   1.917  -0.034  0.00  0.00    +0.012 C 
ATOM      2  C   UNL     1      -0.524   0.389   0.021  0.00  0.00    -0.026 C 
ATOM      3  C   UNL     1       0.237  -0.110  -1.205  0.00  0.00    +0.010 C 
ATOM      4  C   UNL     1       1.656   0.459  -1.210  0.00  0.00    +0.032 C 
ATOM      5  C   UNL     1       2.398   0.092   0.072  0.00  0.00    +0.115 C 
ATOM      6  C   UNL     1       1.622   0.569   1.302  0.00  0.00    +0.035 C 
ATOM      7  C   UNL     1       0.224  -0.046   1.282  0.00  0.00    -0.002 C 
ATOM      8  C   UNL     1      -0.555   0.298   2.546  0.00  0.00    +0.004 C 
ATOM      9  C   UNL     1      -1.906  -0.438   2.544  0.00  0.00    +0.004 C 
ATOM     10  C   UNL     1      -2.034  -1.182   1.223  0.00  0.00    -0.003 C 
ATOM     11  C   UNL     1      -1.941  -0.180   0.066  0.00  0.00    -0.001 C 
ATOM     12  C   UNL     1      -2.379  -0.843  -1.229  0.00  0.00    +0.005 C 
ATOM     13  C   UNL     1      -3.885  -1.164  -1.195  0.00  0.00    +0.012 C 
ATOM     14  C   UNL     1      -4.347  -1.399   0.217  0.00  0.00    -0.001 C 
ATOM     15  C   UNL     1      -3.233  -2.053   1.063  0.00  0.00    +0.006 C 
ATOM     16  C   UNL     1      -4.068  -2.412   2.302  0.00  0.00    +0.032 C 
ATOM     17  C   UNL     1      -5.328  -2.960   1.625  0.00  0.00    -0.019 C 
ATOM     18  C   UNL     1      -5.477  -2.383   0.415  0.00  0.00    -0.003 C 
ATOM     19  C   UNL     1      -4.841  -0.085   0.831  0.00  0.00    +0.016 C 
ENDROOT
BRANCH  18  20
ATOM     20  C   UNL     1      -6.544  -2.649  -0.543  0.00  0.00    +0.158 C 
ATOM     21  O   UNL     1      -7.405  -3.463  -0.282  0.00  0.00    -0.292 OA
BRANCH  20  22
ATOM     22  C   UNL     1      -6.578  -1.913  -1.858  0.00  0.00    +0.069 C 
BRANCH  22  23
ATOM     23  C   UNL     1      -7.859  -2.274  -2.612  0.00  0.00    -0.027 C 
ATOM     24  C   UNL     1      -9.048  -2.018  -1.723  0.00  0.00    -0.012 A 
ATOM     25  C   UNL     1     -10.115  -2.890  -1.670  0.00  0.00    -0.040 A 
ATOM     26  C   UNL     1     -11.193  -2.618  -0.843  0.00  0.00    +0.053 A 
ATOM     27  C   UNL     1     -11.208  -1.473  -0.063  0.00  0.00    +0.170 A 
ATOM     28  C   UNL     1     -10.134  -0.592  -0.112  0.00  0.00    +0.208 A 
ATOM     29  C   UNL     1      -9.056  -0.867  -0.942  0.00  0.00    +0.167 A 
ATOM     30  O   UNL     1     -10.383   0.449   0.738  0.00  0.00    -0.449 OA
ATOM     31  C   UNL     1     -11.798   0.402   0.998  0.00  0.00    +0.467 C 
ATOM     32  O   UNL     1     -12.133  -0.987   0.817  0.00  0.00    -0.452 OA
ATOM     33  C   UNL     1     -10.141  -4.151  -2.496  0.00  0.00    +0.017 C 
ATOM     34  C   UNL     1      -9.094  -4.063  -3.607  0.00  0.00    -0.074 C 
ATOM     35  N   UNL     1      -7.806  -3.685  -3.007  0.00  0.00    +0.383 N 
ATOM     36  C   UNL     1      -6.730  -3.880  -3.989  0.00  0.00    -0.095 C 
ATOM     37  H   UNL     1      -7.630  -4.257  -2.194  0.00  0.00    -0.081 HD
BRANCH  29  38
ATOM     38  O   UNL     1      -8.003  -0.008  -0.992  0.00  0.00    -0.491 OA
ATOM     39  C   UNL     1      -8.067   1.040  -1.961  0.00  0.00    +0.277 C 
ENDBRANCH  29  38
ENDBRANCH  22  23
ENDBRANCH  20  22
ENDBRANCH  18  20
BRANCH   5  40
ATOM     40  O   UNL     1       2.571  -1.325   0.139  0.00  0.00    -0.392 OA
ATOM     41  H   UNL     1       3.077  -1.695  -0.597  0.00  0.00    +0.210 HD
ENDBRANCH   5  40
TORSDOF 5
