REMARK  Name = ZINC66634502
REMARK  2 active torsions:
REMARK  status: ('A' for Active; 'I' for Inactive)
REMARK    1  A    between atoms: C_5  and  C_7
REMARK    2  A    between atoms: C_9  and  C_12
REMARK                            x       y       z     vdW  Elec       q    Type
REMARK                         _______ _______ _______ _____ _____    ______ ____
ROOT
ATOM      1  C   UNL     1       1.235  -2.266  -0.867  0.00  0.00    +0.110 A 
ATOM      2  N   UNL     1       0.239  -3.123  -0.735  0.00  0.00    -0.234 NA
ATOM      3  C   UNL     1       0.494  -4.310  -0.201  0.00  0.00    +0.133 A 
ATOM      4  C   UNL     1       1.773  -4.602   0.193  0.00  0.00    +0.080 A 
ATOM      5  S   UNL     1       2.606  -3.195  -0.204  0.00  0.00    -0.075 S 
ENDROOT
BRANCH   3   6
ATOM      6  C   UNL     1      -0.584  -5.300  -0.033  0.00  0.00    +0.266 C 
ATOM      7  O   UNL     1      -0.319  -6.487   0.007  0.00  0.00    -0.268 OA
ATOM      8  N   UNL     1      -1.863  -4.891   0.078  0.00  0.00    -0.294 N 
ATOM      9  C   UNL     1      -2.916  -5.899   0.192  0.00  0.00    +0.117 C 
ATOM     10  C   UNL     1      -3.844  -5.810  -1.026  0.00  0.00    +0.114 C 
ATOM     11  C   UNL     1      -4.813  -4.670  -0.811  0.00  0.00    +0.215 C 
ATOM     12  O   UNL     1      -5.981  -4.907  -0.585  0.00  0.00    -0.276 OA
ATOM     13  N   UNL     1      -4.393  -3.403  -0.870  0.00  0.00    -0.314 N 
ATOM     14  C   UNL     1      -2.984  -3.095  -1.151  0.00  0.00    +0.123 C 
ATOM     15  C   UNL     1      -2.144  -3.458   0.085  0.00  0.00    +0.127 C 
ATOM     16  H   UNL     1      -5.024  -2.681  -0.727  0.00  0.00    +0.149 HD
ENDBRANCH   3   6
BRANCH   1  21
ATOM     17  C   UNL     1       0.018   0.932  -2.417  0.00  0.00    +0.001 A 
ATOM     18  C   UNL     1       1.188   1.669  -2.470  0.00  0.00    +0.001 A 
ATOM     19  C   UNL     1       2.373   1.131  -2.002  0.00  0.00    +0.020 A 
ATOM     20  C   UNL     1       2.396  -0.148  -1.480  0.00  0.00    +0.051 A 
ATOM     21  C   UNL     1       1.219  -0.896  -1.425  0.00  0.00    +0.025 A 
ATOM     22  C   UNL     1       0.027  -0.346  -1.898  0.00  0.00    +0.012 A 
ATOM     23 CL   UNL     1       3.885  -0.823  -0.895  0.00  0.00    -0.083 Cl
ENDBRANCH   1  21
TORSDOF 2
