REMARK  Name = ZINC62659987
REMARK  7 active torsions:
REMARK  status: ('A' for Active; 'I' for Inactive)
REMARK    1  A    between atoms: C_1  and  C_2
REMARK    2  A    between atoms: C_4  and  C_14
REMARK    3  A    between atoms: C_5  and  C_13
REMARK    4  A    between atoms: N_6  and  C_7
REMARK    5  A    between atoms: C_14  and  C_16
REMARK    6  A    between atoms: C_16  and  N_17
REMARK    7  A    between atoms: N_17  and  C_18
REMARK                            x       y       z     vdW  Elec       q    Type
REMARK                         _______ _______ _______ _____ _____    ______ ____
ROOT
ATOM      1  C   UNL     1      -0.804   1.246   0.211  0.00  0.00    +0.063 C 
ATOM      2  C   UNL     1      -0.773  -0.259   0.135  0.00  0.00    +0.017 A 
ATOM      3  C   UNL     1      -0.648  -0.979  -0.993  0.00  0.00    +0.034 A 
ATOM      4  C   UNL     1      -0.667  -2.390  -0.586  0.00  0.00    +0.036 A 
ATOM      5  C   UNL     1      -0.805  -2.386   0.789  0.00  0.00    +0.027 A 
ATOM      6  N   UNL     1      -0.862  -1.107   1.201  0.00  0.00    -0.345 N 
ATOM      7  C   UNL     1      -0.875  -3.604   1.675  0.00  0.00    +0.064 C 
ENDROOT
BRANCH   6   8
ATOM      8  C   UNL     1      -1.002  -0.684   2.596  0.00  0.00    +0.087 C 
ATOM      9  C   UNL     1       0.111   0.307   2.943  0.00  0.00    +0.025 C 
ATOM     10  C   UNL     1      -0.036   0.749   4.401  0.00  0.00    +0.002 C 
ATOM     11  C   UNL     1      -1.397   1.422   4.595  0.00  0.00    +0.000 C 
ATOM     12  C   UNL     1      -2.510   0.431   4.248  0.00  0.00    +0.002 C 
ATOM     13  C   UNL     1      -2.363  -0.011   2.790  0.00  0.00    +0.025 C 
ENDBRANCH   6   8
BRANCH   4  14
ATOM     14  C   UNL     1      -0.560  -3.562  -1.459  0.00  0.00    +0.148 C 
ATOM     15  O   UNL     1      -0.591  -4.678  -0.983  0.00  0.00    -0.294 OA
BRANCH  14  16
ATOM     16  C   UNL     1      -0.413  -3.381  -2.948  0.00  0.00    -0.001 C 
BRANCH  16  17
ATOM     17  N   UNL     1      -0.327  -4.697  -3.595  0.00  0.00    +0.386 N 
ATOM     18  H   UNL     1       0.520  -5.161  -3.302  0.00  0.00    -0.085 HD
ATOM     19  H   UNL     1      -1.125  -5.255  -3.329  0.00  0.00    -0.085 HD
BRANCH  17  20
ATOM     20  C   UNL     1      -0.313  -4.526  -5.053  0.00  0.00    -0.071 C 
ATOM     21  C   UNL     1      -0.446  -5.910  -5.720  0.00  0.00    -0.016 C 
ATOM     22  C   UNL     1      -0.938  -5.717  -7.129  0.00  0.00    -0.002 C 
ATOM     23  C   UNL     1       0.213  -5.653  -8.151  0.00  0.00    -0.000 C 
ATOM     24  C   UNL     1       1.410  -4.820  -7.652  0.00  0.00    -0.000 C 
ATOM     25  C   UNL     1       0.982  -3.560  -6.950  0.00  0.00    -0.002 C 
ATOM     26  C   UNL     1       0.913  -3.841  -5.436  0.00  0.00    -0.016 C 
ENDBRANCH  17  20
ENDBRANCH  16  17
ENDBRANCH  14  16
ENDBRANCH   4  14
TORSDOF 5
