REMARK  Name = ZINC65181487
REMARK  7 active torsions:
REMARK  status: ('A' for Active; 'I' for Inactive)
REMARK    1  A    between atoms: C_1  and  N_2
REMARK    2  A    between atoms: N_2  and  C_3
REMARK    3  A    between atoms: C_3  and  C_4
REMARK    4  A    between atoms: C_4  and  C_5
REMARK    5  A    between atoms: C_8  and  C_11
REMARK    6  A    between atoms: C_21  and  C_23
REMARK    7  A    between atoms: C_26  and  C_29
REMARK                            x       y       z     vdW  Elec       q    Type
REMARK                         _______ _______ _______ _____ _____    ______ ____
ROOT
ATOM      1  C   UNL     1      -1.071  -1.794   3.140  0.00  0.00    +0.139 C 
ATOM      2  N   UNL     1       0.059  -2.125   3.651  0.00  0.00    -0.072 NA
ATOM      3  O   UNL     1      -0.120  -2.828   4.867  0.00  0.00    -0.367 OA
ATOM      4  C   UNL     1      -1.539  -2.910   5.080  0.00  0.00    +0.318 C 
ATOM      5  N   UNL     1      -2.121  -2.212   3.923  0.00  0.00    -0.291 N 
ATOM      6  H   UNL     1      -3.065  -2.075   3.745  0.00  0.00    +0.151 HD
ENDROOT
BRANCH   4   7
ATOM      7  C   UNL     1      -1.991  -4.371   5.116  0.00  0.00    +0.165 C 
ATOM      8  C   UNL     1      -1.575  -5.077   3.845  0.00  0.00    +0.012 C 
ATOM      9  C   UNL     1      -0.750  -6.080   4.225  0.00  0.00    -0.004 A 
ATOM     10  C   UNL     1      -0.025  -7.110   3.473  0.00  0.00    +0.010 A 
ATOM     11  C   UNL     1       0.740  -7.998   4.147  0.00  0.00    +0.001 A 
ATOM     12  C   UNL     1       0.859  -7.958   5.543  0.00  0.00    +0.002 A 
ATOM     13  C   UNL     1       0.224  -7.041   6.303  0.00  0.00    +0.026 A 
ATOM     14  C   UNL     1      -0.609  -6.059   5.699  0.00  0.00    +0.043 A 
ATOM     15  N   UNL     1      -1.319  -5.081   6.210  0.00  0.00    -0.373 N 
ATOM     16  H   UNL     1      -1.389  -4.864   7.153  0.00  0.00    +0.160 HD
ENDBRANCH   4   7
BRANCH   1  17
ATOM     17  C   UNL     1      -1.226  -1.035   1.847  0.00  0.00    +0.094 C 
BRANCH  17  18
ATOM     18  C   UNL     1       0.155  -0.742   1.259  0.00  0.00    +0.115 C 
BRANCH  18  20
ATOM     19  C   UNL     1      -0.033   1.460   0.012  0.00  0.00    +0.132 C 
ATOM     20  N   UNL     1       0.004  -0.004   0.002  0.00  0.00    -0.300 N 
ATOM     21  C   UNL     1      -0.102  -0.673  -1.163  0.00  0.00    +0.246 C 
ATOM     22  O   UNL     1      -0.178  -1.886  -1.163  0.00  0.00    -0.270 OA
BRANCH  21  23
ATOM     23  C   UNL     1      -0.124   0.069  -2.443  0.00  0.00    +0.037 A 
ATOM     24  C   UNL     1       0.640   1.228  -2.591  0.00  0.00    +0.014 A 
ATOM     25  C   UNL     1       0.620   1.919  -3.782  0.00  0.00    +0.019 A 
ATOM     26  C   UNL     1      -0.166   1.461  -4.842  0.00  0.00    +0.052 A 
ATOM     27  C   UNL     1      -0.931   0.301  -4.693  0.00  0.00    +0.019 A 
ATOM     28  C   UNL     1      -0.905  -0.393  -3.504  0.00  0.00    +0.014 A 
BRANCH  26  29
ATOM     29  C   UNL     1      -0.188   2.180  -6.080  0.00  0.00    +0.099 C 
ATOM     30  N   UNL     1      -0.206   2.750  -7.062  0.00  0.00    -0.191 NA
ENDBRANCH  26  29
ENDBRANCH  21  23
ENDBRANCH  18  20
ENDBRANCH  17  18
ENDBRANCH   1  17
TORSDOF 6
