REMARK  Name = ZINC67202729
REMARK  5 active torsions:
REMARK  status: ('A' for Active; 'I' for Inactive)
REMARK    1  A    between atoms: C_6  and  C_7
REMARK    2  A    between atoms: N_9  and  C_10
REMARK    3  A    between atoms: C_10  and  C_11
REMARK    4  A    between atoms: N_16  and  C_17
REMARK    5  A    between atoms: C_17  and  C_18
REMARK                            x       y       z     vdW  Elec       q    Type
REMARK                         _______ _______ _______ _____ _____    ______ ____
ROOT
ATOM      1  C   UNL     1      -1.266  -0.757   0.012  0.00  0.00    +0.244 C 
ATOM      2  O   UNL     1      -1.251  -1.973   0.005  0.00  0.00    -0.270 OA
ATOM      3  N   UNL     1      -2.441  -0.098   0.029  0.00  0.00    -0.313 N 
ATOM      4  H   UNL     1      -2.453   0.872   0.034  0.00  0.00    +0.149 HD
ENDROOT
BRANCH   1  10
ATOM      5  C   UNL     1      -0.017   1.393   0.010  0.00  0.00    +0.014 A 
ATOM      6  C   UNL     1       1.169   2.094   0.002  0.00  0.00    +0.017 A 
ATOM      7  C   UNL     1       2.379   1.413  -0.014  0.00  0.00    +0.030 A 
ATOM      8  C   UNL     1       2.413   0.014  -0.025  0.00  0.00    +0.048 A 
ATOM      9  C   UNL     1       1.220  -0.689  -0.015  0.00  0.00    +0.037 A 
ATOM     10  C   UNL     1       0.002  -0.004   0.002  0.00  0.00    +0.039 A 
ATOM     11  N   UNL     1       3.618  -0.684  -0.052  0.00  0.00    -0.284 N 
ATOM     12  C   UNL     1       4.805  -0.221   0.329  0.00  0.00    +0.227 C 
ATOM     13  O   UNL     1       5.761  -0.964   0.252  0.00  0.00    -0.275 OA
ATOM     14  C   UNL     1       5.028   1.173   0.848  0.00  0.00    +0.170 C 
ATOM     15  S   UNL     1       3.901   2.308  -0.019  0.00  0.00    -0.114 S 
ATOM     16  H   UNL     1       3.588  -1.597  -0.380  0.00  0.00    +0.155 HD
ENDBRANCH   1  10
BRANCH   3  17
ATOM     17  C   UNL     1      -3.701  -0.846   0.039  0.00  0.00    +0.089 C 
BRANCH  17  18
ATOM     18  C   UNL     1      -4.876   0.134   0.057  0.00  0.00    -0.051 C 
ATOM     19  C   UNL     1      -6.204  -0.636  -0.102  0.00  0.00    -0.016 C 
ATOM     20  C   UNL     1      -7.044   0.300  -1.009  0.00  0.00    -0.020 C 
ATOM     21  C   UNL     1      -5.958   0.886  -1.945  0.00  0.00    -0.078 C 
ATOM     22  N   UNL     1      -4.769   1.067  -1.079  0.00  0.00    +0.383 N 
ATOM     23  H   UNL     1      -3.931   0.867  -1.605  0.00  0.00    -0.081 HD
BRANCH  22  24
ATOM     24  C   UNL     1      -4.720   2.448  -0.582  0.00  0.00    -0.075 C 
BRANCH  24  25
ATOM     25  C   UNL     1      -4.484   3.404  -1.753  0.00  0.00    -0.028 C 
ATOM     26  C   UNL     1      -3.102   3.141  -2.355  0.00  0.00    +0.002 C 
ATOM     27  C   UNL     1      -2.866   4.097  -3.526  0.00  0.00    +0.000 C 
ATOM     28  C   UNL     1      -2.940   5.542  -3.028  0.00  0.00    +0.000 C 
ATOM     29  C   UNL     1      -4.322   5.804  -2.426  0.00  0.00    +0.000 C 
ATOM     30  C   UNL     1      -4.558   4.848  -1.255  0.00  0.00    +0.002 C 
ENDBRANCH  24  25
ENDBRANCH  22  24
ENDBRANCH  17  18
ENDBRANCH   3  17
TORSDOF 5
