REMARK  Name = ZINC22434312
REMARK  11 active torsions:
REMARK  status: ('A' for Active; 'I' for Inactive)
REMARK    1  A    between atoms: C_1  and  C_2
REMARK    2  A    between atoms: C_2  and  C_3
REMARK    3  A    between atoms: C_2  and  C_4
REMARK    4  A    between atoms: C_2  and  N_5
REMARK    5  A    between atoms: C_6  and  C_8
REMARK    6  A    between atoms: C_15  and  N_19
REMARK    7  A    between atoms: C_20  and  C_22
REMARK    8  A    between atoms: C_22  and  C_23
REMARK    9  A    between atoms: C_22  and  C_24
REMARK   10  A    between atoms: C_22  and  O_25
REMARK   11  A    between atoms: O_25  and  C_26
REMARK                            x       y       z     vdW  Elec       q    Type
REMARK                         _______ _______ _______ _____ _____    ______ ____
ROOT
ATOM      1  C   UNL     1       3.519   7.617  -0.407  0.00  0.00    +0.085 C 
ATOM      2  C   UNL     1       4.669   6.903  -0.439  0.00  0.00    +0.045 C 
ATOM      3  C   UNL     1       4.546   5.449  -0.239  0.00  0.00    +0.073 C 
ATOM      4  C   UNL     1       5.684   4.608   0.213  0.00  0.00    -0.016 C 
ATOM      5  C   UNL     1       5.361   3.317   0.457  0.00  0.00    -0.002 C 
ATOM      6  C   UNL     1       3.974   2.866   0.245  0.00  0.00    +0.020 C 
ATOM      7  C   UNL     1       2.941   3.738   0.368  0.00  0.00    +0.025 C 
ATOM      8  C   UNL     1       3.339   5.145   0.703  0.00  0.00    +0.108 C 
ATOM      9  S   UNL     1       2.236   6.423  -0.017  0.00  0.00    -0.109 S 
ATOM     10 CL   UNL     1       6.205   7.660  -0.722  0.00  0.00    -0.086 Cl
ENDROOT
BRANCH   1  12
ATOM     11  N   UNL     1       2.136   9.626  -0.551  0.00  0.00    -0.306 N 
ATOM     12  C   UNL     1       3.358   9.064  -0.632  0.00  0.00    +0.252 C 
ATOM     13  O   UNL     1       4.327   9.751  -0.890  0.00  0.00    -0.270 OA
ATOM     14  H   UNL     1       1.259   9.004  -0.317  0.00  0.00    +0.150 HD
BRANCH  11  16
ATOM     15  C   UNL     1       2.452  11.418  -2.184  0.00  0.00    +0.031 C 
ATOM     16  C   UNL     1       1.975  11.065  -0.774  0.00  0.00    +0.026 C 
ATOM     17  C   UNL     1       0.500  11.443  -0.625  0.00  0.00    +0.031 C 
ATOM     18  C   UNL     1       2.805  11.836   0.254  0.00  0.00    +0.031 C 
ENDBRANCH  11  16
ENDBRANCH   1  12
BRANCH   7  19
ATOM     19  N   UNL     1       1.620   3.359   0.192  0.00  0.00    -0.285 N 
ATOM     20  C   UNL     1       0.724   3.558   1.179  0.00  0.00    +0.260 C 
ATOM     21  O   UNL     1       1.053   4.149   2.186  0.00  0.00    -0.271 OA
ATOM     22  H   UNL     1       1.302   2.896  -0.754  0.00  0.00    +0.155 HD
BRANCH  20  23
ATOM     23  C   UNL     1      -0.685   3.045   1.032  0.00  0.00    +0.180 C 
ATOM     24  C   UNL     1      -0.659   1.526   0.857  0.00  0.00    +0.065 C 
ATOM     25  C   UNL     1      -1.337   3.689  -0.194  0.00  0.00    +0.065 C 
BRANCH  23  26
ATOM     26  O   UNL     1      -1.437   3.377   2.201  0.00  0.00    -0.477 OA
BRANCH  26  27
ATOM     27  C   UNL     1      -1.570   4.698   2.494  0.00  0.00    +0.122 A 
ATOM     28  C   UNL     1      -0.884   5.647   1.751  0.00  0.00    +0.047 A 
ATOM     29  C   UNL     1      -1.024   6.989   2.048  0.00  0.00    +0.023 A 
ATOM     30  C   UNL     1      -1.841   7.386   3.093  0.00  0.00    +0.041 A 
ATOM     31  C   UNL     1      -2.522   6.440   3.839  0.00  0.00    +0.023 A 
ATOM     32  C   UNL     1      -2.388   5.097   3.541  0.00  0.00    +0.047 A 
ATOM     33 CL   UNL     1      -2.010   9.072   3.468  0.00  0.00    -0.084 Cl
ENDBRANCH  26  27
ENDBRANCH  23  26
ENDBRANCH  20  23
ENDBRANCH   7  19
TORSDOF 6
