REMARK  Name = ZINC09380675
REMARK  15 active torsions:
REMARK  status: ('A' for Active; 'I' for Inactive)
REMARK    1  A    between atoms: C_1  and  C_2
REMARK    2  A    between atoms: C_2  and  N_71
REMARK    3  A    between atoms: C_3  and  C_4
REMARK    4  A    between atoms: C_3  and  N_71
REMARK    5  A    between atoms: C_5  and  C_6
REMARK    6  A    between atoms: C_5  and  N_71
REMARK    7  A    between atoms: C_6  and  N_7
REMARK    8  A    between atoms: C_8  and  C_32
REMARK    9  A    between atoms: C_10  and  C_15
REMARK   10  A    between atoms: C_11  and  O_14
REMARK   11  A    between atoms: C_15  and  C_17
REMARK   12  A    between atoms: C_20  and  O_24
REMARK   13  A    between atoms: C_22  and  C_23
REMARK   14  A    between atoms: O_24  and  C_25
REMARK   15  A    between atoms: C_25  and  C_26
REMARK                            x       y       z     vdW  Elec       q    Type
REMARK                         _______ _______ _______ _____ _____    ______ ____
ROOT
ATOM      1  N   UNL     1      -0.108  -2.281  -4.733  0.00  0.00    -0.285 N 
ATOM      2  C   UNL     1      -0.358  -2.090  -3.300  0.00  0.00    +0.144 C 
ATOM      3  C   UNL     1       0.031  -0.663  -2.990  0.00  0.00    +0.071 C 
ATOM      4  C   UNL     1       0.453  -0.113  -4.152  0.00  0.00    +0.188 C 
ATOM      5  C   UNL     1       0.370  -1.124  -5.227  0.00  0.00    +0.282 C 
ATOM      6  O   UNL     1       0.681  -0.936  -6.386  0.00  0.00    -0.267 OA
ENDROOT
BRANCH   2   7
ATOM      7  C   UNL     1      -1.818  -2.307  -2.994  0.00  0.00    -0.022 A 
ATOM      8  C   UNL     1      -2.784  -1.694  -3.769  0.00  0.00    +0.007 A 
ATOM      9  C   UNL     1      -4.123  -1.897  -3.492  0.00  0.00    +0.020 A 
ATOM     10  C   UNL     1      -4.496  -2.705  -2.433  0.00  0.00    +0.041 A 
ATOM     11  C   UNL     1      -3.528  -3.314  -1.655  0.00  0.00    +0.020 A 
ATOM     12  C   UNL     1      -2.189  -3.115  -1.935  0.00  0.00    +0.007 A 
ATOM     13 CL   UNL     1      -6.177  -2.954  -2.080  0.00  0.00    -0.084 Cl
ENDBRANCH   2   7
BRANCH   4  14
ATOM     14  O   UNL     1       0.886   1.160  -4.305  0.00  0.00    -0.502 OA
ATOM     15  H   UNL     1       1.139   1.314  -5.260  0.00  0.00    +0.292 HD
ENDBRANCH   4  14
BRANCH   3  16
ATOM     16  C   UNL     1      -0.041  -0.001  -1.684  0.00  0.00    +0.195 C 
ATOM     17  O   UNL     1       0.192   1.190  -1.592  0.00  0.00    -0.287 OA
BRANCH  16  18
ATOM     18  C   UNL     1      -0.394  -0.779  -0.480  0.00  0.00    +0.025 A 
ATOM     19  C   UNL     1      -1.664  -0.649   0.091  0.00  0.00    +0.015 A 
ATOM     20  C   UNL     1      -1.988  -1.372   1.216  0.00  0.00    +0.046 A 
ATOM     21  C   UNL     1      -1.056  -2.236   1.782  0.00  0.00    +0.121 A 
ATOM     22  C   UNL     1       0.205  -2.373   1.214  0.00  0.00    +0.049 A 
ATOM     23  C   UNL     1       0.537  -1.653   0.089  0.00  0.00    -0.036 A 
ATOM     24  C   UNL     1       1.905  -1.801  -0.526  0.00  0.00    +0.044 C 
BRANCH  21  25
ATOM     25  O   UNL     1      -1.379  -2.947   2.892  0.00  0.00    -0.487 OA
BRANCH  25  26
ATOM     26  C   UNL     1      -2.692  -2.758   3.424  0.00  0.00    +0.264 C 
BRANCH  26  27
ATOM     27  C   UNL     1      -2.868  -3.623   4.645  0.00  0.00    -0.010 A 
ATOM     28  C   UNL     1      -3.362  -4.908   4.517  0.00  0.00    +0.007 A 
ATOM     29  C   UNL     1      -3.518  -5.703   5.637  0.00  0.00    +0.000 A 
ATOM     30  C   UNL     1      -3.192  -5.209   6.886  0.00  0.00    +0.000 A 
ATOM     31  C   UNL     1      -2.704  -3.922   7.015  0.00  0.00    +0.000 A 
ATOM     32  C   UNL     1      -2.542  -3.129   5.894  0.00  0.00    +0.007 A 
ENDBRANCH  26  27
ENDBRANCH  25  26
ENDBRANCH  21  25
ENDBRANCH  16  18
ENDBRANCH   3  16
BRANCH   1  33
ATOM     33  C   UNL     1      -0.337  -3.513  -5.492  0.00  0.00    +0.090 C 
BRANCH  33  34
ATOM     34  C   UNL     1      -1.762  -3.511  -6.049  0.00  0.00    -0.060 C 
BRANCH  34  35
ATOM     35  N   UNL     1      -1.985  -4.768  -6.793  0.00  0.00    +0.380 N 
ATOM     36  H   UNL     1      -1.723  -5.561  -6.195  0.00  0.00    -0.082 HD
BRANCH  35  38
ATOM     37  C   UNL     1      -4.229  -5.122  -5.885  0.00  0.00    -0.017 C 
ATOM     38  C   UNL     1      -3.412  -4.893  -7.158  0.00  0.00    -0.082 C 
ENDBRANCH  35  38
BRANCH  35  39
ATOM     39  C   UNL     1      -1.148  -4.789  -8.011  0.00  0.00    -0.082 C 
ATOM     40  C   UNL     1      -1.272  -6.163  -8.672  0.00  0.00    -0.017 C 
ENDBRANCH  35  39
ENDBRANCH  34  35
ENDBRANCH  33  34
ENDBRANCH   1  33
TORSDOF 12
