REMARK  Name = ZINC09608235
REMARK  7 active torsions:
REMARK  status: ('A' for Active; 'I' for Inactive)
REMARK    1  A    between atoms: C_5  and  S_7
REMARK    2  A    between atoms: S_7  and  N_10
REMARK    3  A    between atoms: N_10  and  C_11
REMARK    4  A    between atoms: C_11  and  C_12
REMARK    5  A    between atoms: C_15  and  C_18
REMARK    6  A    between atoms: N_20  and  C_21
REMARK    7  A    between atoms: C_21  and  C_22
REMARK                            x       y       z     vdW  Elec       q    Type
REMARK                         _______ _______ _______ _____ _____    ______ ____
ROOT
ATOM      1  C   UNL     1       3.742   4.942  -2.908  0.00  0.00    +0.005 C 
ATOM      2  C   UNL     1       5.066   5.600  -2.515  0.00  0.00    +0.005 C 
ATOM      3  C   UNL     1       5.598   6.420  -3.692  0.00  0.00    +0.013 C 
ATOM      4  C   UNL     1       4.580   7.501  -4.062  0.00  0.00    +0.075 C 
ATOM      5  C   UNL     1       3.257   6.842  -4.456  0.00  0.00    +0.013 C 
ATOM      6  C   UNL     1       2.725   6.023  -3.279  0.00  0.00    +0.005 C 
ENDROOT
BRANCH   4   7
ATOM      7  C   UNL     1       4.358   8.408  -2.879  0.00  0.00    +0.216 C 
ATOM      8  O   UNL     1       3.250   8.516  -2.398  0.00  0.00    -0.276 OA
ATOM      9  N   UNL     1       5.391   9.098  -2.355  0.00  0.00    -0.308 N 
ATOM     10  H   UNL     1       6.277   9.011  -2.740  0.00  0.00    +0.149 HD
BRANCH   9  11
ATOM     11  C   UNL     1       5.175   9.979  -1.205  0.00  0.00    +0.178 C 
BRANCH  11  12
ATOM     12  C   UNL     1       6.478  10.627  -0.817  0.00  0.00    +0.122 A 
ATOM     13  C   UNL     1       6.947  11.796  -1.291  0.00  0.00    +0.046 A 
ATOM     14  C   UNL     1       8.193  12.022  -0.662  0.00  0.00    +0.041 A 
ATOM     15  C   UNL     1       8.411  10.979   0.158  0.00  0.00    +0.195 A 
ATOM     16  O   UNL     1       7.367  10.140   0.064  0.00  0.00    -0.466 OA
ENDBRANCH  11  12
ENDBRANCH   9  11
ENDBRANCH   4   7
BRANCH   1  17
ATOM     17  C   UNL     1       3.210   4.122  -1.731  0.00  0.00    +0.109 C 
BRANCH  17  18
ATOM     18  N   UNL     1       4.127   3.014  -1.453  0.00  0.00    -0.190 NA
ATOM     19  H   UNL     1       4.798   2.765  -2.107  0.00  0.00    +0.148 HD
BRANCH  18  20
ATOM     20  S   UNL     1       4.017   2.187  -0.023  0.00  0.00    +0.061 S 
ATOM     21  O   UNL     1       3.970   3.163   1.008  0.00  0.00    -0.153 OA
ATOM     22  O   UNL     1       5.008   1.170  -0.065  0.00  0.00    -0.153 OA
BRANCH  20  27
ATOM     23  C   UNL     1       1.184  -0.666  -0.012  0.00  0.00    +0.004 A 
ATOM     24  C   UNL     1       0.002  -0.004   0.002  0.00  0.00    +0.031 A 
ATOM     25  C   UNL     1      -0.017   1.415   0.010  0.00  0.00    +0.102 A 
ATOM     26  C   UNL     1       1.257   2.128   0.002  0.00  0.00    +0.126 A 
ATOM     27  C   UNL     1       2.456   1.369  -0.013  0.00  0.00    +0.133 A 
ATOM     28  C   UNL     1       2.401   0.015  -0.020  0.00  0.00    +0.031 A 
ATOM     29  N   UNL     1       1.091   3.449   0.010  0.00  0.00    -0.189 NA
ATOM     30  S   UNL     1      -0.456   3.696   0.026  0.00  0.00    +0.117 S 
ATOM     31  N   UNL     1      -1.056   2.248   0.019  0.00  0.00    -0.191 NA
ENDBRANCH  20  27
ENDBRANCH  18  20
ENDBRANCH  17  18
ENDBRANCH   1  17
TORSDOF 7
