REMARK  Name = ZINC05347917
REMARK  8 active torsions:
REMARK  status: ('A' for Active; 'I' for Inactive)
REMARK    1  A    between atoms: C_4  and  C_7
REMARK    2  A    between atoms: C_7  and  O_8
REMARK    3  A    between atoms: O_8  and  C_9
REMARK    4  A    between atoms: C_9  and  C_11
REMARK    5  A    between atoms: C_12  and  N_31
REMARK    6  A    between atoms: C_18  and  C_29
REMARK    7  A    between atoms: C_21  and  C_23
REMARK    8  A    between atoms: C_29  and  O_30
REMARK                            x       y       z     vdW  Elec       q    Type
REMARK                         _______ _______ _______ _____ _____    ______ ____
ROOT
ATOM      1  C   UNL     1       5.790  -1.873   2.755  0.00  0.00    +0.108 C 
ATOM      2  C   UNL     1       6.921  -2.612   2.908  0.00  0.00    +0.196 C 
ATOM      3  O   UNL     1       7.413  -2.884   4.128  0.00  0.00    -0.435 OA
ATOM      4  C   UNL     1       6.613  -2.786   5.218  0.00  0.00    +0.215 A 
ATOM      5  C   UNL     1       6.987  -3.461   6.415  0.00  0.00    +0.228 A 
ATOM      6  O   UNL     1       8.012  -4.122   6.472  0.00  0.00    -0.284 OA
ATOM      7  C   UNL     1       6.132  -3.341   7.539  0.00  0.00    +0.098 A 
ATOM      8  C   UNL     1       5.012  -2.600   7.424  0.00  0.00    +0.134 A 
ATOM      9  O   UNL     1       4.692  -1.983   6.287  0.00  0.00    -0.457 OA
ATOM     10  C   UNL     1       5.473  -2.066   5.199  0.00  0.00    +0.163 A 
ATOM     11  C   UNL     1       5.055  -1.331   3.948  0.00  0.00    +0.132 C 
ENDROOT
BRANCH  11  12
ATOM     12  C   UNL     1       5.364   0.137   4.099  0.00  0.00    -0.014 A 
ATOM     13  C   UNL     1       4.346   1.077   4.053  0.00  0.00    +0.007 A 
ATOM     14  C   UNL     1       4.678   2.416   4.197  0.00  0.00    +0.020 A 
ATOM     15  C   UNL     1       6.002   2.766   4.381  0.00  0.00    +0.111 A 
ATOM     16  N   UNL     1       6.944   1.844   4.419  0.00  0.00    -0.263 NA
ATOM     17  C   UNL     1       6.665   0.561   4.291  0.00  0.00    +0.115 A 
ENDBRANCH  11  12
BRANCH   2  18
ATOM     18  N   UNL     1       7.570  -3.086   1.800  0.00  0.00    -0.329 N 
ATOM     19  H   UNL     1       7.266  -2.832   0.914  0.00  0.00    +0.145 HD
ATOM     20  H   UNL     1       8.333  -3.676   1.900  0.00  0.00    +0.145 HD
ENDBRANCH   2  18
BRANCH   1  21
ATOM     21  C   UNL     1       5.306  -1.609   1.466  0.00  0.00    +0.341 C 
ATOM     22  O   UNL     1       4.370  -2.251   1.024  0.00  0.00    -0.245 OA
BRANCH  21  23
ATOM     23  O   UNL     1       5.878  -0.643   0.714  0.00  0.00    -0.456 OA
BRANCH  23  24
ATOM     24  C   UNL     1       5.334  -0.428  -0.589  0.00  0.00    +0.268 C 
BRANCH  24  28
ATOM     25  C   UNL     1       7.486   2.708  -2.533  0.00  0.00    +0.000 A 
ATOM     26  C   UNL     1       7.902   1.397  -2.669  0.00  0.00    +0.000 A 
ATOM     27  C   UNL     1       7.206   0.382  -2.040  0.00  0.00    +0.007 A 
ATOM     28  C   UNL     1       6.093   0.678  -1.274  0.00  0.00    -0.010 A 
ATOM     29  C   UNL     1       5.678   1.990  -1.138  0.00  0.00    +0.007 A 
ATOM     30  C   UNL     1       6.373   3.005  -1.768  0.00  0.00    +0.000 A 
ENDBRANCH  24  28
ENDBRANCH  23  24
ENDBRANCH  21  23
ENDBRANCH   1  21
BRANCH   8  31
ATOM     31  C   UNL     1       4.096  -2.467   8.614  0.00  0.00    +0.230 C 
BRANCH  31  32
ATOM     32  O   UNL     1       4.633  -3.206   9.713  0.00  0.00    -0.387 OA
ATOM     33  H   UNL     1       4.094  -3.164  10.515  0.00  0.00    +0.210 HD
ENDBRANCH  31  32
ENDBRANCH   8  31
TORSDOF 8
