REMARK  Name = ZINC20566068
REMARK  5 active torsions:
REMARK  status: ('A' for Active; 'I' for Inactive)
REMARK    1  A    between atoms: C_6  and  C_7
REMARK    2  A    between atoms: C_12  and  O_31
REMARK    3  A    between atoms: N_20  and  C_23
REMARK    4  A    between atoms: C_23  and  C_24
REMARK    5  A    between atoms: C_24  and  N_25
REMARK                            x       y       z     vdW  Elec       q    Type
REMARK                         _______ _______ _______ _____ _____    ______ ____
ROOT
ATOM      1  C   UNL     1       1.235   3.567   0.004  0.00  0.00    +0.091 C 
ATOM      2  C   UNL     1       2.592   4.078   0.409  0.00  0.00    +0.007 A 
ATOM      3  C   UNL     1       2.731   5.394   0.813  0.00  0.00    +0.012 A 
ATOM      4  C   UNL     1       3.969   5.880   1.186  0.00  0.00    +0.046 A 
ATOM      5  C   UNL     1       5.078   5.046   1.158  0.00  0.00    +0.120 A 
ATOM      6  C   UNL     1       4.941   3.728   0.754  0.00  0.00    +0.092 A 
ATOM      7  C   UNL     1       3.696   3.241   0.377  0.00  0.00    +0.138 A 
ATOM      8  O   UNL     1       3.580   1.951  -0.020  0.00  0.00    -0.437 OA
ATOM      9  C   UNL     1       2.374   1.342  -0.011  0.00  0.00    +0.229 A 
ATOM     10  C   UNL     1       1.220   2.064   0.002  0.00  0.00    +0.066 A 
ATOM     11  C   UNL     1      -0.017   1.377   0.010  0.00  0.00    +0.115 A 
ATOM     12  N   UNL     1      -1.156   2.037   0.019  0.00  0.00    -0.384 N 
ATOM     13  N   UNL     1       0.002  -0.004   0.002  0.00  0.00    -0.317 N 
ATOM     14  C   UNL     1       1.194  -0.652  -0.009  0.00  0.00    +0.204 A 
ATOM     15  N   UNL     1       2.322  -0.004  -0.015  0.00  0.00    -0.202 NA
ATOM     16  H   UNL     1      -2.110   1.488   0.025  0.00  0.00    +0.157 HD
ATOM     17  H   UNL     1      -1.155   3.137   0.020  0.00  0.00    +0.157 HD
ENDROOT
BRANCH   1  23
ATOM     18  C   UNL     1       1.710   3.733  -2.447  0.00  0.00    +0.006 A 
ATOM     19  C   UNL     1       1.404   4.190  -3.715  0.00  0.00    +0.020 A 
ATOM     20  C   UNL     1       0.296   4.996  -3.911  0.00  0.00    +0.041 A 
ATOM     21  C   UNL     1      -0.507   5.339  -2.838  0.00  0.00    +0.020 A 
ATOM     22  C   UNL     1      -0.203   4.876  -1.571  0.00  0.00    +0.006 A 
ATOM     23  C   UNL     1       0.904   4.071  -1.377  0.00  0.00    -0.035 A 
ATOM     24 CL   UNL     1      -0.085   5.576  -5.502  0.00  0.00    -0.084 Cl
ENDBRANCH   1  23
BRANCH   5  25
ATOM     25  O   UNL     1       6.297   5.522   1.526  0.00  0.00    -0.507 OA
ATOM     26  H   UNL     1       7.175   4.861   1.503  0.00  0.00    +0.292 HD
ENDBRANCH   5  25
BRANCH  13  27
ATOM     27  C   UNL     1      -1.252  -0.761   0.007  0.00  0.00    +0.140 C 
BRANCH  27  28
ATOM     28  C   UNL     1      -1.764  -0.909  -1.428  0.00  0.00    +0.106 C 
BRANCH  28  29
ATOM     29  N   UNL     1      -3.021  -1.668  -1.423  0.00  0.00    -0.296 NA
ATOM     30  C   UNL     1      -2.797  -3.056  -0.994  0.00  0.00    +0.112 C 
ATOM     31  C   UNL     1      -4.139  -3.793  -0.946  0.00  0.00    +0.175 C 
ATOM     32  O   UNL     1      -4.764  -3.718  -2.230  0.00  0.00    -0.377 OA
ATOM     33  C   UNL     1      -4.998  -2.380  -2.679  0.00  0.00    +0.175 C 
ATOM     34  C   UNL     1      -3.665  -1.629  -2.744  0.00  0.00    +0.112 C 
ENDBRANCH  28  29
ENDBRANCH  27  28
ENDBRANCH  13  27
TORSDOF 5
