REMARK  Name = ZINC43221895
REMARK  10 active torsions:
REMARK  status: ('A' for Active; 'I' for Inactive)
REMARK    1  A    between atoms: C_1  and  C_2
REMARK    2  A    between atoms: C_2  and  C_3
REMARK    3  A    between atoms: C_7  and  C_35
REMARK    4  A    between atoms: C_8  and  N_9
REMARK    5  A    between atoms: C_14  and  C_29
REMARK    6  A    between atoms: C_17  and  C_22
REMARK    7  A    between atoms: C_17  and  C_26
REMARK    8  A    between atoms: C_22  and  C_24
REMARK    9  A    between atoms: C_22  and  O_25
REMARK   10  A    between atoms: C_35  and  C_36
REMARK                            x       y       z     vdW  Elec       q    Type
REMARK                         _______ _______ _______ _____ _____    ______ ____
ROOT
ATOM      1  N   UNL     1      -1.512  -0.296  -2.400  0.00  0.00    -0.209 N 
ATOM      2  C   UNL     1      -1.568   0.959  -2.953  0.00  0.00    +0.229 C 
ATOM      3  O   UNL     1      -1.931   1.987  -2.422  0.00  0.00    -0.275 OA
ATOM      4  C   UNL     1      -1.097   0.782  -4.307  0.00  0.00    +0.078 C 
ATOM      5  C   UNL     1      -0.564   1.570  -5.427  0.00  0.00    -0.020 C 
ATOM      6  N   UNL     1       0.106   0.556  -6.307  0.00  0.00    +0.398 N 
ATOM      7  C   UNL     1       0.044  -0.765  -5.601  0.00  0.00    +0.074 C 
ATOM      8  C   UNL     1       0.003  -0.337  -4.119  0.00  0.00    +0.089 C 
ATOM      9  C   UNL     1      -0.793  -1.176  -3.158  0.00  0.00    +0.229 C 
ATOM     10  O   UNL     1      -0.796  -2.386  -3.075  0.00  0.00    -0.275 OA
ATOM     11  H   UNL     1      -0.378   0.496  -7.190  0.00  0.00    -0.083 HD
ATOM     12  H   UNL     1       1.069   0.818  -6.460  0.00  0.00    -0.083 HD
ENDROOT
BRANCH   1  18
ATOM     13  C   UNL     1      -1.427  -0.497   0.007  0.00  0.00    -0.026 A 
ATOM     14  C   UNL     1      -2.034  -0.829   1.203  0.00  0.00    +0.005 A 
ATOM     15  C   UNL     1      -3.332  -1.306   1.212  0.00  0.00    +0.001 A 
ATOM     16  C   UNL     1      -4.027  -1.451   0.025  0.00  0.00    +0.005 A 
ATOM     17  C   UNL     1      -3.425  -1.121  -1.173  0.00  0.00    -0.026 A 
ATOM     18  C   UNL     1      -2.124  -0.638  -1.185  0.00  0.00    +0.050 A 
BRANCH  13  20
ATOM     19  C   UNL     1      -0.031   1.552  -0.001  0.00  0.00    +0.009 C 
ATOM     20  C   UNL     1      -0.013   0.022  -0.002  0.00  0.00    +0.033 C 
ENDBRANCH  13  20
BRANCH  17  21
ATOM     21  C   UNL     1      -4.182  -1.280  -2.467  0.00  0.00    +0.033 C 
ATOM     22  C   UNL     1      -3.846  -2.636  -3.091  0.00  0.00    +0.009 C 
ENDBRANCH  17  21
ENDBRANCH   1  18
BRANCH   5  23
ATOM     23  C   UNL     1       0.435   2.583  -4.931  0.00  0.00    -0.022 A 
ATOM     24  C   UNL     1       0.262   3.906  -4.693  0.00  0.00    +0.011 A 
ATOM     25  C   UNL     1       1.333   4.651  -4.234  0.00  0.00    +0.028 A 
ATOM     26  C   UNL     1       2.526   4.034  -4.037  0.00  0.00    +0.078 A 
ATOM     27  S   UNL     1       2.151   2.350  -4.497  0.00  0.00    -0.083 S 
ATOM     28 CL   UNL     1       4.024   4.707  -3.476  0.00  0.00    -0.076 Cl
ENDBRANCH   5  23
BRANCH   7  29
ATOM     29  C   UNL     1       1.282  -1.578  -5.880  0.00  0.00    +0.349 C 
ATOM     30  O   UNL     1       2.146  -1.139  -6.620  0.00  0.00    -0.248 OA
ATOM     31  O   UNL     1       1.419  -2.675  -5.366  0.00  0.00    -0.248 OA
ENDBRANCH   7  29
BRANCH   7  32
ATOM     32  C   UNL     1      -1.215  -1.536  -6.003  0.00  0.00    +0.112 C 
ATOM     33  C   UNL     1      -1.268  -1.667  -7.527  0.00  0.00    +0.037 C 
BRANCH  32  34
ATOM     34  O   UNL     1      -1.186  -2.837  -5.414  0.00  0.00    -0.393 OA
ATOM     35  H   UNL     1      -1.955  -3.383  -5.626  0.00  0.00    +0.210 HD
ENDBRANCH  32  34
ENDBRANCH   7  32
TORSDOF 7
