REMARK  Name = ZINC02090671
REMARK  8 active torsions:
REMARK  status: ('A' for Active; 'I' for Inactive)
REMARK    1  A    between atoms: C_1  and  C_2
REMARK    2  A    between atoms: C_2  and  C_4
REMARK    3  A    between atoms: C_2  and  O_31
REMARK    4  A    between atoms: N_12  and  C_13
REMARK    5  A    between atoms: C_13  and  C_14
REMARK    6  A    between atoms: C_14  and  C_16
REMARK    7  A    between atoms: C_14  and  O_30
REMARK    8  A    between atoms: C_16  and  N_17
REMARK                            x       y       z     vdW  Elec       q    Type
REMARK                         _______ _______ _______ _____ _____    ______ ____
ROOT
ATOM      1  C   UNL     1      -1.586  -1.189  -1.432  0.00  0.00    +0.154 C 
ENDROOT
BRANCH   1   2
ATOM      2  O   UNL     1      -2.027   0.016  -2.061  0.00  0.00    -0.388 OA
ATOM      3  H   UNL     1      -2.783   0.433  -1.624  0.00  0.00    +0.210 HD
ENDBRANCH   1   2
BRANCH   1   4
ATOM      4  C   UNL     1      -1.166  -0.888   0.008  0.00  0.00    +0.156 C 
BRANCH   4  13
ATOM      5  C   UNL     1       1.306  -0.391  -0.013  0.00  0.00    +0.139 A 
ATOM      6  N   UNL     1       2.082   0.653  -0.014  0.00  0.00    -0.230 NA
ATOM      7  C   UNL     1       1.328   1.782  -0.001  0.00  0.00    +0.089 A 
ATOM      8  C   UNL     1       1.635   3.146   0.003  0.00  0.00    +0.030 A 
ATOM      9  C   UNL     1       0.629   4.070   0.018  0.00  0.00    +0.002 A 
ATOM     10  C   UNL     1      -0.700   3.669   0.028  0.00  0.00    +0.002 A 
ATOM     11  C   UNL     1      -1.026   2.329   0.029  0.00  0.00    +0.028 A 
ATOM     12  C   UNL     1      -0.017   1.376   0.010  0.00  0.00    +0.069 A 
ATOM     13  N   UNL     1       0.002  -0.004   0.002  0.00  0.00    -0.323 N 
BRANCH   5  15
ATOM     14  C   UNL     1       2.311  -2.193   1.363  0.00  0.00    +0.046 C 
ATOM     15  C   UNL     1       1.782  -1.821  -0.024  0.00  0.00    +0.177 C 
BRANCH  15  16
ATOM     16  O   UNL     1       2.828  -1.967  -0.988  0.00  0.00    -0.384 OA
ATOM     17  H   UNL     1       3.600  -1.410  -0.818  0.00  0.00    +0.210 HD
ENDBRANCH  15  16
ENDBRANCH   5  15
ENDBRANCH   4  13
ENDBRANCH   1   4
BRANCH   1  18
ATOM     18  C   UNL     1      -2.726  -2.209  -1.428  0.00  0.00    +0.155 C 
BRANCH  18  19
ATOM     19  N   UNL     1      -3.048  -2.587  -2.807  0.00  0.00    -0.337 N 
ATOM     20  C   UNL     1      -3.982  -1.950  -3.603  0.00  0.00    +0.050 A 
ATOM     21  C   UNL     1      -4.824  -0.865  -3.376  0.00  0.00    +0.026 A 
ATOM     22  C   UNL     1      -5.674  -0.431  -4.370  0.00  0.00    +0.002 A 
ATOM     23  C   UNL     1      -5.701  -1.067  -5.602  0.00  0.00    +0.001 A 
ATOM     24  C   UNL     1      -4.870  -2.139  -5.849  0.00  0.00    +0.010 A 
ATOM     25  C   UNL     1      -4.009  -2.590  -4.851  0.00  0.00    +0.008 A 
ATOM     26  C   UNL     1      -3.026  -3.687  -4.780  0.00  0.00    +0.008 A 
ATOM     27  C   UNL     1      -2.465  -3.636  -3.496  0.00  0.00    +0.050 A 
ATOM     28  C   UNL     1      -1.492  -4.565  -3.140  0.00  0.00    +0.026 A 
ATOM     29  C   UNL     1      -1.090  -5.524  -4.045  0.00  0.00    +0.002 A 
ATOM     30  C   UNL     1      -1.646  -5.573  -5.314  0.00  0.00    +0.001 A 
ATOM     31  C   UNL     1      -2.610  -4.660  -5.686  0.00  0.00    +0.010 A 
ENDBRANCH  18  19
ENDBRANCH   1  18
TORSDOF 7
