REMARK  Name = ZINC25804014
REMARK  7 active torsions:
REMARK  status: ('A' for Active; 'I' for Inactive)
REMARK    1  A    between atoms: N_9  and  C_29
REMARK    2  A    between atoms: C_10  and  S_12
REMARK    3  A    between atoms: S_12  and  C_13
REMARK    4  A    between atoms: C_13  and  C_14
REMARK    5  A    between atoms: C_14  and  C_16
REMARK    6  A    between atoms: C_17  and  N_28
REMARK    7  A    between atoms: N_18  and  C_25
REMARK                            x       y       z     vdW  Elec       q    Type
REMARK                         _______ _______ _______ _____ _____    ______ ____
ROOT
ATOM      1  C   UNL     1      -4.121   1.375  -0.756  0.00  0.00    +0.182 C 
ATOM      2  O   UNL     1      -4.220   2.583  -0.837  0.00  0.00    -0.291 OA
ENDROOT
BRANCH   1   3
ATOM      3  C   UNL     1      -5.282   0.573  -0.715  0.00  0.00    +0.120 A 
ATOM      4  C   UNL     1      -6.558   1.134  -0.894  0.00  0.00    +0.116 A 
ATOM      5  N   UNL     1      -7.651   0.317  -0.852  0.00  0.00    -0.278 N 
ATOM      6  C   UNL     1      -7.528  -1.002  -0.633  0.00  0.00    +0.331 A 
ATOM      7  O   UNL     1      -8.533  -1.686  -0.600  0.00  0.00    -0.246 OA
ATOM      8  N   UNL     1      -6.337  -1.593  -0.450  0.00  0.00    -0.274 N 
ATOM      9  H   UNL     1      -6.282  -2.678  -0.274  0.00  0.00    +0.173 HD
ATOM     10  C   UNL     1      -5.196  -0.874  -0.479  0.00  0.00    +0.266 A 
ATOM     11  O   UNL     1      -4.117  -1.413  -0.313  0.00  0.00    -0.267 OA
BRANCH   5  12
ATOM     12  C   UNL     1      -8.985   0.891  -1.043  0.00  0.00    +0.094 C 
ATOM     13  C   UNL     1      -9.928   0.181  -2.016  0.00  0.00    +0.027 C 
ATOM     14  C   UNL     1      -9.296   1.520  -2.402  0.00  0.00    +0.027 C 
ENDBRANCH   5  12
BRANCH   4  15
ATOM     15  N   UNL     1      -6.702   2.470  -1.111  0.00  0.00    -0.344 N 
ATOM     16  H   UNL     1      -7.705   2.900  -1.249  0.00  0.00    +0.144 HD
ATOM     17  H   UNL     1      -5.815   3.120  -1.148  0.00  0.00    +0.144 HD
ENDBRANCH   4  15
ENDBRANCH   1   3
BRANCH   1  18
ATOM     18  C   UNL     1      -2.759   0.733  -0.698  0.00  0.00    +0.157 C 
BRANCH  18  19
ATOM     19  S   UNL     1      -1.484   2.015  -0.770  0.00  0.00    -0.080 S 
BRANCH  19  29
ATOM     20  C   UNL     1       3.111  -2.758  -0.419  0.00  0.00    +0.001 A 
ATOM     21  C   UNL     1       1.833  -3.301  -0.390  0.00  0.00    +0.002 A 
ATOM     22  C   UNL     1       0.727  -2.500  -0.450  0.00  0.00    +0.028 A 
ATOM     23  C   UNL     1       0.881  -1.114  -0.541  0.00  0.00    +0.079 A 
ATOM     24  C   UNL     1       2.184  -0.565  -0.570  0.00  0.00    +0.065 A 
ATOM     25  C   UNL     1       3.294  -1.406  -0.507  0.00  0.00    +0.015 A 
ATOM     26  C   UNL     1       2.320   0.895  -0.665  0.00  0.00    +0.263 A 
ATOM     27  O   UNL     1       3.415   1.426  -0.693  0.00  0.00    -0.267 OA
ATOM     28  N   UNL     1       1.183   1.626  -0.720  0.00  0.00    -0.284 N 
ATOM     29  C   UNL     1      -0.037   1.012  -0.687  0.00  0.00    +0.173 A 
ATOM     30  N   UNL     1      -0.182  -0.287  -0.602  0.00  0.00    -0.223 NA
BRANCH  28  31
ATOM     31  C   UNL     1       1.260   3.086  -0.817  0.00  0.00    +0.093 C 
ATOM     32  C   UNL     1       2.214   3.807   0.138  0.00  0.00    +0.027 C 
ATOM     33  C   UNL     1       0.701   3.902   0.351  0.00  0.00    +0.027 C 
ENDBRANCH  28  31
ENDBRANCH  19  29
ENDBRANCH  18  19
ENDBRANCH   1  18
TORSDOF 7
