REMARK  Name = ZINC38649724
REMARK  12 active torsions:
REMARK  status: ('A' for Active; 'I' for Inactive)
REMARK    1  A    between atoms: C_1  and  C_2
REMARK    2  A    between atoms: C_2  and  C_3
REMARK    3  A    between atoms: C_2  and  C_4
REMARK    4  A    between atoms: C_2  and  C_5
REMARK    5  A    between atoms: C_8  and  C_11
REMARK    6  A    between atoms: C_16  and  O_25
REMARK    7  A    between atoms: C_20  and  N_24
REMARK    8  A    between atoms: C_21  and  C_22
REMARK    9  A    between atoms: O_25  and  C_26
REMARK   10  A    between atoms: C_26  and  C_28
REMARK   11  A    between atoms: C_28  and  O_29
REMARK   12  A    between atoms: O_29  and  C_30
REMARK                            x       y       z     vdW  Elec       q    Type
REMARK                         _______ _______ _______ _____ _____    ______ ____
ROOT
ATOM      1  C   UNL     1       2.758  -1.860  -4.713  0.00  0.00    +0.098 C 
ATOM      2  C   UNL     1       3.191  -0.678  -5.540  0.00  0.00    +0.008 A 
ATOM      3  C   UNL     1       2.274  -0.051  -6.365  0.00  0.00    +0.012 A 
ATOM      4  C   UNL     1       2.653   1.034  -7.129  0.00  0.00    +0.047 A 
ATOM      5  C   UNL     1       3.959   1.500  -7.073  0.00  0.00    +0.135 A 
ATOM      6  C   UNL     1       4.880   0.875  -6.249  0.00  0.00    +0.093 A 
ATOM      7  C   UNL     1       4.497  -0.216  -5.479  0.00  0.00    +0.138 A 
ATOM      8  O   UNL     1       5.411  -0.817  -4.678  0.00  0.00    -0.441 OA
ATOM      9  C   UNL     1       5.195  -2.067  -4.236  0.00  0.00    +0.199 C 
ATOM     10  C   UNL     1       3.961  -2.618  -4.226  0.00  0.00    +0.098 C 
ENDROOT
BRANCH   1  14
ATOM     11  C   UNL     1       0.497  -0.490  -1.359  0.00  0.00    -0.042 A 
ATOM     12  C   UNL     1      -0.082  -1.343  -2.280  0.00  0.00    +0.004 A 
ATOM     13  C   UNL     1       0.650  -1.786  -3.366  0.00  0.00    +0.005 A 
ATOM     14  C   UNL     1       1.960  -1.376  -3.530  0.00  0.00    -0.035 A 
ATOM     15  C   UNL     1       2.538  -0.523  -2.609  0.00  0.00    +0.005 A 
ATOM     16  C   UNL     1       1.805  -0.076  -1.525  0.00  0.00    +0.004 A 
BRANCH  11  18
ATOM     17  C   UNL     1      -0.399   1.519  -0.214  0.00  0.00    +0.015 C 
ATOM     18  C   UNL     1      -0.301  -0.007  -0.175  0.00  0.00    -0.013 C 
ATOM     19  C   UNL     1       0.392  -0.441   1.119  0.00  0.00    +0.015 C 
ATOM     20  C   UNL     1      -1.707  -0.609  -0.227  0.00  0.00    +0.015 C 
ENDBRANCH  11  18
ENDBRANCH   1  14
BRANCH   9  21
ATOM     21  N   UNL     1       6.258  -2.806  -3.780  0.00  0.00    -0.328 N 
ATOM     22  H   UNL     1       7.150  -2.424  -3.781  0.00  0.00    +0.145 HD
ATOM     23  H   UNL     1       6.119  -3.710  -3.458  0.00  0.00    +0.145 HD
ENDBRANCH   9  21
BRANCH  10  24
ATOM     24  C   UNL     1       3.798  -3.955  -3.740  0.00  0.00    +0.101 C 
ATOM     25  N   UNL     1       3.669  -5.016  -3.355  0.00  0.00    -0.191 NA
ENDBRANCH  10  24
BRANCH   5  26
ATOM     26  O   UNL     1       4.334   2.568  -7.826  0.00  0.00    -0.423 OA
BRANCH  26  27
ATOM     27  C   UNL     1       5.177   2.353  -8.849  0.00  0.00    +0.350 C 
ATOM     28  O   UNL     1       5.497   1.225  -9.141  0.00  0.00    -0.247 OA
BRANCH  27  29
ATOM     29  C   UNL     1       5.724   3.519  -9.632  0.00  0.00    +0.349 C 
BRANCH  29  30
ATOM     30  O   UNL     1       6.591   3.037 -10.660  0.00  0.00    -0.479 OA
BRANCH  30  31
ATOM     31  C   UNL     1       7.172   3.967 -11.464  0.00  0.00    +0.140 A 
ATOM     32  C   UNL     1       6.917   5.315 -11.262  0.00  0.00    +0.048 A 
ATOM     33  C   UNL     1       7.508   6.259 -12.080  0.00  0.00    +0.023 A 
ATOM     34  C   UNL     1       8.354   5.860 -13.100  0.00  0.00    +0.043 A 
ATOM     35  C   UNL     1       8.611   4.516 -13.303  0.00  0.00    +0.043 A 
ATOM     36  C   UNL     1       8.025   3.568 -12.483  0.00  0.00    +0.084 A 
ATOM     37 CL   UNL     1       8.352   1.882 -12.734  0.00  0.00    -0.080 Cl
ATOM     38 CL   UNL     1       9.095   7.049 -14.126  0.00  0.00    -0.083 Cl
ENDBRANCH  30  31
ENDBRANCH  29  30
ENDBRANCH  27  29
ENDBRANCH  26  27
ENDBRANCH   5  26
TORSDOF 9
