REMARK  Name = ZINC39012620
REMARK  5 active torsions:
REMARK  status: ('A' for Active; 'I' for Inactive)
REMARK    1  A    between atoms: C_1  and  C_2
REMARK    2  A    between atoms: C_4  and  C_16
REMARK    3  A    between atoms: C_12  and  C_14
REMARK    4  A    between atoms: C_12  and  C_15
REMARK    5  A    between atoms: C_16  and  N_18
REMARK                            x       y       z     vdW  Elec       q    Type
REMARK                         _______ _______ _______ _____ _____    ______ ____
ROOT
ATOM      1  C   UNL     1      -0.019   1.526   0.010  0.00  0.00    +0.017 C 
ATOM      2  C   UNL     1       0.002  -0.004   0.002  0.00  0.00    +0.072 C 
ATOM      3  C   UNL     1       0.820  -0.542  -1.199  0.00  0.00    +0.267 C 
ATOM      4  O   UNL     1       1.492  -1.681  -0.629  0.00  0.00    -0.483 OA
ATOM      5  C   UNL     1       1.629  -1.502   0.693  0.00  0.00    +0.106 C 
ATOM      6  C   UNL     1       0.792  -0.541   1.170  0.00  0.00    +0.039 C 
ATOM      7  C   UNL     1       0.730  -0.167   2.522  0.00  0.00    +0.163 C 
ATOM      8  O   UNL     1      -0.058   0.676   2.902  0.00  0.00    -0.292 OA
ATOM      9  C   UNL     1       1.674  -0.846   3.490  0.00  0.00    +0.086 C 
ATOM     10  C   UNL     1       1.961  -2.271   3.016  0.00  0.00    -0.021 C 
ATOM     11  C   UNL     1       2.575  -2.251   1.610  0.00  0.00    +0.081 C 
ATOM     12  C   UNL     1       2.937  -2.940   3.986  0.00  0.00    +0.012 C 
ATOM     13  C   UNL     1       0.655  -3.068   2.987  0.00  0.00    +0.012 C 
ENDROOT
BRANCH   3  14
ATOM     14  C   UNL     1      -0.092  -0.961  -2.324  0.00  0.00    +0.280 C 
ATOM     15  O   UNL     1      -0.151  -2.129  -2.656  0.00  0.00    -0.270 OA
BRANCH  14  16
ATOM     16  N   UNL     1      -0.831  -0.053  -2.953  0.00  0.00    -0.153 NA
ATOM     17  C   UNL     1      -1.637  -0.423  -3.946  0.00  0.00    +0.164 A 
ATOM     18  N   UNL     1      -2.450   0.364  -4.694  0.00  0.00    -0.335 N 
ATOM     19  H   UNL     1      -2.490   1.319  -4.529  0.00  0.00    +0.168 HD
ATOM     20  C   UNL     1      -3.222  -0.198  -5.693  0.00  0.00    +0.055 A 
ATOM     21  C   UNL     1      -4.120   0.422  -6.574  0.00  0.00    +0.027 A 
ATOM     22  C   UNL     1      -4.804  -0.317  -7.511  0.00  0.00    +0.002 A 
ATOM     23  C   UNL     1      -4.628  -1.687  -7.613  0.00  0.00    +0.001 A 
ATOM     24  C   UNL     1      -3.747  -2.322  -6.756  0.00  0.00    +0.017 A 
ATOM     25  C   UNL     1      -3.062  -1.586  -5.818  0.00  0.00    +0.039 A 
ATOM     26  S   UNL     1      -1.870  -1.969  -4.562  0.00  0.00    -0.052 S 
ENDBRANCH  14  16
ENDBRANCH   3  14
TORSDOF 2
