REMARK  Name = ZINC06149505
REMARK  9 active torsions:
REMARK  status: ('A' for Active; 'I' for Inactive)
REMARK    1  A    between atoms: C_1  and  C_2
REMARK    2  A    between atoms: C_2  and  C_3
REMARK    3  A    between atoms: C_3  and  C_4
REMARK    4  A    between atoms: C_3  and  C_5
REMARK    5  A    between atoms: C_3  and  N_6
REMARK    6  A    between atoms: C_7  and  C_11
REMARK    7  A    between atoms: C_11  and  C_13
REMARK    8  A    between atoms: C_11  and  N_65
REMARK    9  A    between atoms: C_31  and  C_34
REMARK                            x       y       z     vdW  Elec       q    Type
REMARK                         _______ _______ _______ _____ _____    ______ ____
ROOT
ATOM      1  C   UNL     1      -0.701   2.015   1.030  0.00  0.00    +0.039 C 
ENDROOT
BRANCH   1   2
ATOM      2  C   UNL     1       0.264   1.459   2.045  0.00  0.00    +0.011 A 
ATOM      3  C   UNL     1      -0.190   0.658   3.042  0.00  0.00    +0.017 A 
ATOM      4  C   UNL     1       0.772   0.135   4.012  0.00  0.00    +0.002 A 
ATOM      5  C   UNL     1       0.361  -0.696   5.061  0.00  0.00    +0.059 A 
ATOM      6  C   UNL     1       1.290  -1.171   5.963  0.00  0.00    +0.163 A 
ATOM      7  C   UNL     1       2.639  -0.829   5.830  0.00  0.00    +0.164 A 
ATOM      8  C   UNL     1       3.055  -0.010   4.794  0.00  0.00    +0.075 A 
ATOM      9  C   UNL     1       2.131   0.479   3.879  0.00  0.00    +0.053 A 
ATOM     10  N   UNL     1       2.528   1.298   2.841  0.00  0.00    -0.322 N 
ATOM     11  H   UNL     1       3.493   1.545   2.749  0.00  0.00    +0.169 HD
ATOM     12  C   UNL     1       1.636   1.769   1.952  0.00  0.00    +0.251 A 
ATOM     13  O   UNL     1       2.023   2.487   1.046  0.00  0.00    -0.268 OA
ATOM     14  O   UNL     1       3.563  -1.296   6.712  0.00  0.00    -0.485 OA
ATOM     15  C   UNL     1       3.066  -1.806   7.954  0.00  0.00    +0.270 C 
ATOM     16  C   UNL     1       1.882  -2.735   7.654  0.00  0.00    +0.270 C 
ATOM     17  O   UNL     1       0.874  -1.973   6.982  0.00  0.00    -0.485 OA
ENDBRANCH   1   2
BRANCH   1  24
ATOM     18  C   UNL     1      -0.060   0.207  -0.446  0.00  0.00    -0.077 C 
ATOM     19  C   UNL     1       0.546  -0.114  -1.814  0.00  0.00    -0.015 C 
ATOM     20  C   UNL     1      -0.392   0.393  -2.913  0.00  0.00    -0.018 C 
ATOM     21  C   UNL     1      -0.612   1.897  -2.732  0.00  0.00    -0.015 C 
ATOM     22  C   UNL     1      -1.184   2.159  -1.337  0.00  0.00    -0.077 C 
ATOM     23  C   UNL     1       0.237   0.129  -4.283  0.00  0.00    +0.007 C 
ATOM     24  N   UNL     1      -0.224   1.671  -0.325  0.00  0.00    +0.389 N 
ATOM     25  H   UNL     1       0.685   2.122  -0.483  0.00  0.00    -0.080 HD
ENDBRANCH   1  24
BRANCH   1  27
ATOM     26  N   UNL     1      -1.797   4.244   1.608  0.00  0.00    -0.225 N 
ATOM     27  C   UNL     1      -0.758   3.515   1.160  0.00  0.00    +0.143 A 
ATOM     28  N   UNL     1       0.197   4.363   0.865  0.00  0.00    -0.115 NA
ATOM     29  N   UNL     1      -0.236   5.552   1.110  0.00  0.00    -0.023 NA
ATOM     30  N   UNL     1      -1.440   5.483   1.562  0.00  0.00    -0.043 NA
BRANCH  26  31
ATOM     31  C   UNL     1      -3.091   3.728   2.061  0.00  0.00    +0.061 C 
ATOM     32  C   UNL     1      -3.790   3.014   0.902  0.00  0.00    +0.036 C 
ATOM     33  C   UNL     1      -2.873   2.742   3.210  0.00  0.00    +0.036 C 
BRANCH  31  35
ATOM     34  C   UNL     1      -5.314   4.350   3.017  0.00  0.00    +0.006 C 
ATOM     35  C   UNL     1      -3.963   4.889   2.543  0.00  0.00    +0.026 C 
ENDBRANCH  31  35
ENDBRANCH  26  31
ENDBRANCH   1  27
TORSDOF 5
