REMARK  Name = ZINC05809518
REMARK  5 active torsions:
REMARK  status: ('A' for Active; 'I' for Inactive)
REMARK    1  A    between atoms: C_5  and  C_7
REMARK    2  A    between atoms: C_21  and  C_22
REMARK    3  A    between atoms: C_22  and  O_24
REMARK    4  A    between atoms: O_24  and  C_25
REMARK    5  A    between atoms: C_25  and  C_26
REMARK                            x       y       z     vdW  Elec       q    Type
REMARK                         _______ _______ _______ _____ _____    ______ ____
ROOT
ATOM      1  C   UNL     1      -0.117  -2.811   0.244  0.00  0.00    +0.015 C 
ATOM      2  C   UNL     1       1.079  -2.197   0.197  0.00  0.00    -0.021 C 
ATOM      3  C   UNL     1       2.367  -2.992   0.200  0.00  0.00    +0.037 C 
ATOM      4  C   UNL     1       3.340  -2.291   1.156  0.00  0.00    +0.009 C 
ATOM      5  C   UNL     1       3.674  -0.906   0.608  0.00  0.00    +0.038 C 
ATOM      6  C   UNL     1       2.428  -0.107   0.347  0.00  0.00    -0.007 A 
ATOM      7  C   UNL     1       1.180  -0.722   0.139  0.00  0.00    +0.072 A 
ATOM      8  N   UNL     1       0.085  -0.020  -0.102  0.00  0.00    -0.247 NA
ATOM      9  C   UNL     1       0.084   1.311  -0.162  0.00  0.00    +0.072 A 
ATOM     10  C   UNL     1      -1.101   2.027  -0.416  0.00  0.00    +0.028 A 
ATOM     11  C   UNL     1      -1.069   3.386  -0.476  0.00  0.00    +0.002 A 
ATOM     12  C   UNL     1       0.119   4.087  -0.277  0.00  0.00    +0.001 A 
ATOM     13  C   UNL     1       1.285   3.427  -0.023  0.00  0.00    +0.011 A 
ATOM     14  C   UNL     1       1.290   2.030   0.039  0.00  0.00    +0.015 A 
ATOM     15  C   UNL     1       2.517   1.279   0.306  0.00  0.00    +0.073 A 
ENDROOT
BRANCH   1  20
ATOM     16  C   UNL     1       0.612  -6.342  -0.792  0.00  0.00    +0.001 A 
ATOM     17  C   UNL     1      -0.348  -7.036  -0.075  0.00  0.00    +0.001 A 
ATOM     18  C   UNL     1      -1.233  -6.359   0.745  0.00  0.00    +0.020 A 
ATOM     19  C   UNL     1      -1.164  -4.985   0.855  0.00  0.00    +0.048 A 
ATOM     20  C   UNL     1      -0.197  -4.277   0.134  0.00  0.00    -0.006 A 
ATOM     21  C   UNL     1       0.690  -4.969  -0.697  0.00  0.00    +0.009 A 
ATOM     22 CL   UNL     1      -2.275  -4.137   1.885  0.00  0.00    -0.083 Cl
ENDBRANCH   1  20
BRANCH  15  23
ATOM     23  C   UNL     1       3.804   1.970   0.526  0.00  0.00    +0.341 C 
ATOM     24  O   UNL     1       4.532   2.211  -0.416  0.00  0.00    -0.245 OA
BRANCH  23  25
ATOM     25  O   UNL     1       4.171   2.333   1.770  0.00  0.00    -0.452 OA
BRANCH  25  26
ATOM     26  C   UNL     1       5.449   3.007   1.911  0.00  0.00    +0.327 C 
BRANCH  26  27
ATOM     27  C   UNL     1       5.687   3.334   3.363  0.00  0.00    +0.248 C 
ATOM     28  O   UNL     1       4.861   3.028   4.197  0.00  0.00    -0.272 OA
ATOM     29  N   UNL     1       6.818   3.966   3.734  0.00  0.00    -0.327 N 
ATOM     30  H   UNL     1       7.478   4.210   3.067  0.00  0.00    +0.145 HD
ATOM     31  H   UNL     1       6.972   4.176   4.669  0.00  0.00    +0.145 HD
ENDBRANCH  26  27
ENDBRANCH  25  26
ENDBRANCH  23  25
ENDBRANCH  15  23
TORSDOF 5
