REMARK  Name = ZINC15733289
REMARK  3 active torsions:
REMARK  status: ('A' for Active; 'I' for Inactive)
REMARK    1  A    between atoms: C_8  and  C_11
REMARK    2  A    between atoms: C_16  and  C_19
REMARK    3  A    between atoms: C_16  and  N_55
REMARK                            x       y       z     vdW  Elec       q    Type
REMARK                         _______ _______ _______ _____ _____    ______ ____
ROOT
ATOM      1  C   UNL     1       2.709   2.201   2.076  0.00  0.00    +0.269 C 
ATOM      2  O   UNL     1       3.430   1.702   2.917  0.00  0.00    -0.268 OA
ATOM      3  N   UNL     1       2.080   1.419   1.177  0.00  0.00    -0.296 N 
ATOM      4  C   UNL     1       1.292   2.014   0.088  0.00  0.00    +0.107 C 
ATOM      5  C   UNL     1      -0.115   1.410   0.112  0.00  0.00    +0.016 C 
ATOM      6  C   UNL     1      -0.013  -0.115   0.052  0.00  0.00    +0.015 C 
ATOM      7  C   UNL     1       0.752  -0.625   1.275  0.00  0.00    +0.016 C 
ATOM      8  C   UNL     1       2.170  -0.045   1.265  0.00  0.00    +0.107 C 
ENDROOT
BRANCH   1  16
ATOM      9  C   UNL     1       2.468   8.353   2.946  0.00  0.00    +0.019 A 
ATOM     10  C   UNL     1       2.944   9.363   3.708  0.00  0.00    +0.046 A 
ATOM     11  S   UNL     1       4.132   8.530   4.750  0.00  0.00    -0.101 S 
ATOM     12  C   UNL     1       3.946   6.938   4.132  0.00  0.00    +0.001 A 
ATOM     13  C   UNL     1       2.972   7.070   3.157  0.00  0.00    +0.030 A 
ATOM     14  C   UNL     1       2.581   5.817   2.461  0.00  0.00    +0.172 A 
ATOM     15  C   UNL     1       3.009   4.608   2.964  0.00  0.00    +0.032 A 
ATOM     16  C   UNL     1       2.522   3.673   2.039  0.00  0.00    +0.172 A 
ATOM     17  N   UNL     1       1.869   4.366   1.127  0.00  0.00    -0.073 NA
ATOM     18  O   UNL     1       1.886   5.560   1.366  0.00  0.00    -0.354 OA
ATOM     19  C   UNL     1       3.783   4.447   4.236  0.00  0.00    +0.046 C 
ATOM     20  C   UNL     1       4.658   5.678   4.498  0.00  0.00    +0.048 C 
ENDBRANCH   1  16
BRANCH   6  26
ATOM     21  C   UNL     1      -2.101  -0.334   1.256  0.00  0.00    -0.077 C 
ATOM     22  C   UNL     1      -3.544  -0.831   1.144  0.00  0.00    -0.019 C 
ATOM     23  C   UNL     1      -3.542  -2.352   0.961  0.00  0.00    -0.004 C 
ATOM     24  C   UNL     1      -2.724  -2.706  -0.285  0.00  0.00    -0.019 C 
ATOM     25  C   UNL     1      -1.305  -2.154  -0.132  0.00  0.00    -0.077 C 
ATOM     26  N   UNL     1      -1.375  -0.685   0.017  0.00  0.00    +0.389 N 
ATOM     27  H   UNL     1      -1.880  -0.292  -0.787  0.00  0.00    -0.080 HD
ENDBRANCH   6  26
BRANCH   6  28
ATOM     28  C   UNL     1       0.719  -0.521  -1.202  0.00  0.00    +0.200 C 
ATOM     29  O   UNL     1       1.894  -0.816  -1.150  0.00  0.00    -0.278 OA
ATOM     30  N   UNL     1       0.068  -0.554  -2.381  0.00  0.00    -0.330 N 
ATOM     31  H   UNL     1      -0.851  -0.249  -2.437  0.00  0.00    +0.145 HD
ATOM     32  H   UNL     1       0.517  -0.884  -3.175  0.00  0.00    +0.145 HD
ENDBRANCH   6  28
TORSDOF 3
