REMARK  Name = ZINC64435699
REMARK  3 active torsions:
REMARK  status: ('A' for Active; 'I' for Inactive)
REMARK    1  A    between atoms: C_3  and  C_8
REMARK    2  A    between atoms: C_10  and  C_14
REMARK    3  A    between atoms: C_18  and  C_23
REMARK                            x       y       z     vdW  Elec       q    Type
REMARK                         _______ _______ _______ _____ _____    ______ ____
ROOT
ATOM      1  C   UNL     1       6.685   2.808  -1.310  0.00  0.00    +0.182 C 
ATOM      2  N   UNL     1       7.694   3.900  -1.280  0.00  0.00    -0.265 N 
ATOM      3  N   UNL     1       8.902   3.554  -0.751  0.00  0.00    -0.218 N 
ATOM      4  C   UNL     1       9.991   4.201  -0.195  0.00  0.00    +0.237 A 
ATOM      5  N   UNL     1      10.888   3.305   0.090  0.00  0.00    -0.124 NA
ATOM      6  N   UNL     1      10.457   2.134  -0.222  0.00  0.00    -0.121 NA
ATOM      7  C   UNL     1       9.261   2.231  -0.714  0.00  0.00    +0.211 A 
ATOM      8  S   UNL     1       7.841   1.370  -1.359  0.00  0.00    -0.058 S 
ATOM      9  H   UNL     1       7.804   4.316  -2.193  0.00  0.00    +0.168 HD
ENDROOT
BRANCH   1  12
ATOM     10  C   UNL     1       3.660   2.166  -0.022  0.00  0.00    +0.091 C 
ATOM     11  C   UNL     1       4.885   1.607  -0.042  0.00  0.00    +0.034 C 
ATOM     12  C   UNL     1       5.828   2.798  -0.042  0.00  0.00    +0.185 C 
ATOM     13  N   UNL     1       4.912   3.950  -0.021  0.00  0.00    -0.177 NA
ATOM     14  N   UNL     1       3.757   3.521  -0.016  0.00  0.00    -0.154 NA
BRANCH  10  17
ATOM     15  C   UNL     1      -0.017   1.379   0.010  0.00  0.00    +0.002 A 
ATOM     16  C   UNL     1       1.168   2.088   0.002  0.00  0.00    +0.010 A 
ATOM     17  C   UNL     1       2.384   1.409  -0.013  0.00  0.00    +0.003 A 
ATOM     18  C   UNL     1       2.398   0.015  -0.021  0.00  0.00    +0.030 A 
ATOM     19  C   UNL     1       1.208  -0.685  -0.013  0.00  0.00    +0.042 A 
ATOM     20  C   UNL     1       0.002  -0.004   0.002  0.00  0.00    +0.020 A 
ATOM     21 CL   UNL     1       1.223  -2.421  -0.023  0.00  0.00    -0.084 Cl
ENDBRANCH  10  17
ENDBRANCH   1  12
BRANCH   4  22
ATOM     22  C   UNL     1      10.115   5.685   0.037  0.00  0.00    +0.384 C 
ATOM     23  F   UNL     1      11.453   6.007   0.288  0.00  0.00    -0.179 F 
ATOM     24  F   UNL     1       9.675   6.374  -1.098  0.00  0.00    -0.179 F 
ATOM     25 CL   UNL     1       9.107   6.158   1.455  0.00  0.00    -0.039 Cl
ENDBRANCH   4  22
TORSDOF 3
