REMARK  Name = ZINC39667440
REMARK  6 active torsions:
REMARK  status: ('A' for Active; 'I' for Inactive)
REMARK    1  A    between atoms: C_1  and  S_2
REMARK    2  A    between atoms: S_2  and  C_3
REMARK    3  A    between atoms: C_6  and  C_9
REMARK    4  A    between atoms: C_9  and  N_10
REMARK    5  A    between atoms: C_11  and  C_13
REMARK    6  A    between atoms: C_24  and  C_26
REMARK                            x       y       z     vdW  Elec       q    Type
REMARK                         _______ _______ _______ _____ _____    ______ ____
ROOT
ATOM      1  C   UNL     1       1.522  -2.065   8.516  0.00  0.00    +0.100 C 
ATOM      2  C   UNL     1       0.905  -0.695   8.877  0.00  0.00    +0.121 C 
ATOM      3  N   UNL     1       0.782  -0.718  10.354  0.00  0.00    -0.296 N 
ATOM      4  C   UNL     1       2.019  -1.391  10.817  0.00  0.00    +0.115 C 
ATOM      5  C   UNL     1       2.253  -2.518   9.791  0.00  0.00    -0.004 C 
ATOM      6  C   UNL     1       3.745  -2.679   9.516  0.00  0.00    -0.010 C 
ATOM      7  C   UNL     1       4.441  -3.186  10.782  0.00  0.00    -0.082 C 
ATOM      8  N   UNL     1       3.856  -4.471  11.184  0.00  0.00    +0.379 N 
ATOM      9  C   UNL     1       2.443  -4.288  11.537  0.00  0.00    -0.082 C 
ATOM     10  C   UNL     1       1.662  -3.828  10.302  0.00  0.00    -0.010 C 
ATOM     11  C   UNL     1      -0.227  -0.236  11.107  0.00  0.00    +0.252 C 
ATOM     12  O   UNL     1      -0.181  -0.330  12.318  0.00  0.00    -0.270 OA
ATOM     13  H   UNL     1       3.929  -5.125  10.420  0.00  0.00    -0.086 HD
ATOM     14  H   UNL     1       4.356  -4.832  11.982  0.00  0.00    -0.086 HD
ENDROOT
BRANCH  11  15
ATOM     15  C   UNL     1      -1.387   0.406  10.460  0.00  0.00    +0.108 A 
ATOM     16  C   UNL     1      -2.501  -0.357  10.095  0.00  0.00    +0.138 A 
ATOM     17  C   UNL     1      -3.584   0.252   9.491  0.00  0.00    +0.041 A 
ATOM     18  C   UNL     1      -3.570   1.613   9.246  0.00  0.00    +0.026 A 
ATOM     19  C   UNL     1      -2.473   2.377   9.604  0.00  0.00    +0.077 A 
ATOM     20  C   UNL     1      -1.382   1.783  10.215  0.00  0.00    +0.156 A 
ATOM     21  F   UNL     1      -0.314   2.531  10.569  0.00  0.00    -0.203 F 
ATOM     22 CL   UNL     1      -2.467   4.084   9.290  0.00  0.00    -0.081 Cl
ATOM     23  F   UNL     1      -2.518  -1.687  10.332  0.00  0.00    -0.205 F 
ENDBRANCH  11  15
BRANCH   1  25
ATOM     24  N   UNL     1       2.710  -2.948   6.535  0.00  0.00    -0.311 N 
ATOM     25  C   UNL     1       2.496  -1.917   7.376  0.00  0.00    +0.218 C 
ATOM     26  O   UNL     1       3.088  -0.871   7.216  0.00  0.00    -0.275 OA
ATOM     27  H   UNL     1       2.237  -3.785   6.663  0.00  0.00    +0.149 HD
BRANCH  24  28
ATOM     28  C   UNL     1       3.658  -2.805   5.427  0.00  0.00    +0.139 C 
BRANCH  28  32
ATOM     29  C   UNL     1       3.814  -6.452   3.204  0.00  0.00    +0.008 A 
ATOM     30  C   UNL     1       2.900  -5.463   2.857  0.00  0.00    +0.015 A 
ATOM     31  C   UNL     1       2.853  -4.286   3.578  0.00  0.00    +0.006 A 
ATOM     32  C   UNL     1       3.713  -4.091   4.643  0.00  0.00    -0.030 A 
ATOM     33  C   UNL     1       4.624  -5.072   4.990  0.00  0.00    +0.006 A 
ATOM     34  C   UNL     1       4.672  -6.254   4.278  0.00  0.00    +0.015 A 
BRANCH  29  36
ATOM     35  C   UNL     1       2.599  -7.750   1.016  0.00  0.00    +0.090 C 
ATOM     36  S   UNL     1       3.878  -7.955   2.287  0.00  0.00    -0.129 S 
ENDBRANCH  29  36
ENDBRANCH  28  32
ENDBRANCH  24  28
ENDBRANCH   1  25
TORSDOF 5
