REMARK  Name = ZINC12525877
REMARK  6 active torsions:
REMARK  status: ('A' for Active; 'I' for Inactive)
REMARK    1  A    between atoms: C_1  and  C_2
REMARK    2  A    between atoms: N_7  and  S_8
REMARK    3  A    between atoms: S_8  and  C_11
REMARK    4  A    between atoms: N_16  and  C_17
REMARK    5  A    between atoms: N_16  and  C_18
REMARK    6  A    between atoms: C_18  and  C_19
REMARK                            x       y       z     vdW  Elec       q    Type
REMARK                         _______ _______ _______ _____ _____    ______ ____
ROOT
ATOM      1  C   UNL     1       4.122   2.597  -1.549  0.00  0.00    +0.124 A 
ATOM      2  C   UNL     1       4.207   3.427  -2.660  0.00  0.00    +0.033 A 
ATOM      3  C   UNL     1       4.683   2.896  -3.845  0.00  0.00    +0.043 A 
ATOM      4  C   UNL     1       5.057   1.556  -3.884  0.00  0.00    +0.099 A 
ATOM      5  C   UNL     1       4.516   1.279  -1.658  0.00  0.00    +0.113 A 
ATOM      6  N   UNL     1       5.536   1.010  -5.069  0.00  0.00    -0.315 N 
ATOM      7  C   UNL     1       5.749   1.867  -6.238  0.00  0.00    +0.131 C 
ATOM      8  N   UNL     1       4.982   0.722  -2.808  0.00  0.00    -0.348 N 
ATOM      9  H   UNL     1       5.260  -0.265  -2.862  0.00  0.00    +0.167 HD
ENDROOT
BRANCH   1  10
ATOM     10  S   UNL     1       3.523   3.223  -0.015  0.00  0.00    +0.075 S 
ATOM     11  O   UNL     1       3.740   4.627  -0.037  0.00  0.00    -0.150 OA
ATOM     12  O   UNL     1       4.057   2.386   1.002  0.00  0.00    -0.150 OA
BRANCH  10  19
ATOM     13  C   UNL     1      -1.194  -0.921   0.009  0.00  0.00    +0.089 C 
ATOM     14  C   UNL     1       0.002  -0.004   0.002  0.00  0.00    +0.136 A 
ATOM     15  C   UNL     1      -0.016   1.348   0.009  0.00  0.00    +0.092 A 
ATOM     16  C   UNL     1       1.358   1.709  -0.002  0.00  0.00    +0.181 A 
ATOM     17  N   UNL     1       2.030   0.588  -0.014  0.00  0.00    -0.062 NA
ATOM     18  O   UNL     1       1.292  -0.370  -0.012  0.00  0.00    -0.358 OA
ATOM     19  N   UNL     1       1.883   2.998  -0.000  0.00  0.00    -0.197 N 
ATOM     20  H   UNL     1       1.288   3.764   0.009  0.00  0.00    +0.175 HD
ENDBRANCH  10  19
ENDBRANCH   1  10
BRANCH   6  21
ATOM     21  C   UNL     1       5.828  -0.424  -5.149  0.00  0.00    +0.148 C 
BRANCH  21  22
ATOM     22  C   UNL     1       4.595  -1.163  -5.601  0.00  0.00    +0.008 A 
ATOM     23  C   UNL     1       4.195  -1.466  -6.860  0.00  0.00    +0.014 A 
ATOM     24  C   UNL     1       3.014  -2.161  -7.040  0.00  0.00    +0.028 A 
ATOM     25  C   UNL     1       2.290  -2.519  -5.950  0.00  0.00    +0.078 A 
ATOM     26  S   UNL     1       3.287  -1.875  -4.617  0.00  0.00    -0.080 S 
ATOM     27 CL   UNL     1       0.788  -3.387  -5.872  0.00  0.00    -0.076 Cl
ENDBRANCH  21  22
ENDBRANCH   6  21
TORSDOF 4
