REMARK  Name = ZINC40169251
REMARK  10 active torsions:
REMARK  status: ('A' for Active; 'I' for Inactive)
REMARK    1  A    between atoms: C_1  and  C_2
REMARK    2  A    between atoms: C_2  and  C_3
REMARK    3  A    between atoms: C_3  and  C_5
REMARK    4  A    between atoms: C_3  and  O_18
REMARK    5  A    between atoms: N_7  and  C_8
REMARK    6  A    between atoms: C_9  and  C_15
REMARK    7  A    between atoms: C_10  and  C_14
REMARK    8  A    between atoms: C_11  and  C_13
REMARK    9  A    between atoms: O_18  and  C_19
REMARK   10  A    between atoms: C_29  and  C_30
REMARK                            x       y       z     vdW  Elec       q    Type
REMARK                         _______ _______ _______ _____ _____    ______ ____
ROOT
ATOM      1  C   UNL     1      -1.395  -0.458   0.378  0.00  0.00    +0.259 C 
ENDROOT
BRANCH   1   2
ATOM      2  C   UNL     1      -1.510  -1.916   0.743  0.00  0.00    +0.258 C 
ATOM      3  O   UNL     1      -1.990  -2.703  -0.046  0.00  0.00    -0.271 OA
ATOM      4  N   UNL     1      -1.081  -2.345   1.946  0.00  0.00    -0.276 N 
ATOM      5  H   UNL     1      -0.767  -1.706   2.605  0.00  0.00    +0.155 HD
BRANCH   4   6
ATOM      6  C   UNL     1      -1.089  -3.699   2.243  0.00  0.00    +0.084 A 
ATOM      7  C   UNL     1      -0.693  -4.317   3.420  0.00  0.00    +0.068 A 
ATOM      8  C   UNL     1      -0.805  -5.757   3.463  0.00  0.00    -0.027 A 
ATOM      9  C   UNL     1      -1.285  -6.342   2.350  0.00  0.00    -0.008 A 
ATOM     10  S   UNL     1      -1.586  -4.967   1.262  0.00  0.00    -0.078 S 
ATOM     11  C   UNL     1      -1.516  -7.808   2.090  0.00  0.00    +0.052 C 
ATOM     12  C   UNL     1      -0.410  -6.554   4.680  0.00  0.00    +0.045 C 
BRANCH   7  13
ATOM     13  C   UNL     1      -0.186  -3.548   4.561  0.00  0.00    +0.244 C 
ATOM     14  O   UNL     1      -0.957  -3.142   5.411  0.00  0.00    -0.270 OA
ATOM     15  N   UNL     1       1.133  -3.292   4.669  0.00  0.00    -0.325 N 
ATOM     16  H   UNL     1       1.746  -3.617   3.991  0.00  0.00    +0.145 HD
ATOM     17  H   UNL     1       1.468  -2.784   5.424  0.00  0.00    +0.145 HD
ENDBRANCH   7  13
ENDBRANCH   4   6
ENDBRANCH   1   2
BRANCH   1  19
ATOM     18  C   UNL     1       0.208   1.422   0.010  0.00  0.00    +0.008 C 
ATOM     19  C   UNL     1       0.081  -0.089   0.214  0.00  0.00    +0.051 C 
ENDBRANCH   1  19
BRANCH   1  20
ATOM     20  O   UNL     1      -2.085  -0.219  -0.851  0.00  0.00    -0.472 OA
BRANCH  20  21
ATOM     21  C   UNL     1      -2.717   0.979  -0.982  0.00  0.00    +0.215 A 
ATOM     22  C   UNL     1      -3.768   1.332  -0.104  0.00  0.00    +0.235 A 
ATOM     23  O   UNL     1      -4.132   0.578   0.784  0.00  0.00    -0.283 OA
ATOM     24  C   UNL     1      -4.409   2.646  -0.303  0.00  0.00    +0.068 A 
ATOM     25  C   UNL     1      -5.452   3.072   0.518  0.00  0.00    +0.015 A 
ATOM     26  C   UNL     1      -6.027   4.306   0.304  0.00  0.00    +0.001 A 
ATOM     27  C   UNL     1      -5.572   5.121  -0.722  0.00  0.00    +0.004 A 
ATOM     28  C   UNL     1      -4.541   4.711  -1.541  0.00  0.00    +0.047 A 
ATOM     29  C   UNL     1      -3.947   3.470  -1.341  0.00  0.00    +0.140 A 
ATOM     30  O   UNL     1      -2.936   3.056  -2.133  0.00  0.00    -0.448 OA
ATOM     31  C   UNL     1      -2.334   1.865  -1.967  0.00  0.00    +0.216 A 
BRANCH  31  32
ATOM     32  C   UNL     1      -1.240   1.493  -2.867  0.00  0.00    +0.173 A 
ATOM     33  C   UNL     1      -0.672   2.296  -3.816  0.00  0.00    +0.053 A 
ATOM     34  C   UNL     1       0.332   1.537  -4.439  0.00  0.00    +0.042 A 
ATOM     35  C   UNL     1       0.334   0.321  -3.852  0.00  0.00    +0.196 A 
ATOM     36  O   UNL     1      -0.611   0.300  -2.900  0.00  0.00    -0.460 OA
ENDBRANCH  31  32
ENDBRANCH  20  21
ENDBRANCH   1  20
TORSDOF 7
