REMARK  Name = ZINC38508745
REMARK  13 active torsions:
REMARK  status: ('A' for Active; 'I' for Inactive)
REMARK    1  A    between atoms: C_1  and  C_2
REMARK    2  A    between atoms: C_2  and  O_3
REMARK    3  A    between atoms: O_3  and  C_4
REMARK    4  A    between atoms: C_4  and  C_6
REMARK    5  A    between atoms: C_10  and  N_11
REMARK    6  A    between atoms: C_12  and  C_14
REMARK    7  A    between atoms: N_17  and  C_19
REMARK    8  A    between atoms: C_19  and  C_20
REMARK    9  A    between atoms: C_19  and  C_21
REMARK   10  A    between atoms: C_22  and  C_28
REMARK   11  A    between atoms: C_22  and  C_29
REMARK   12  A    between atoms: C_24  and  C_26
REMARK   13  A    between atoms: C_24  and  C_27
REMARK                            x       y       z     vdW  Elec       q    Type
REMARK                         _______ _______ _______ _____ _____    ______ ____
ROOT
ATOM      1  C   UNL     1      -2.842  -2.416   0.016  0.00  0.00    +0.091 A 
ATOM      2  C   UNL     1      -3.560  -2.710  -1.204  0.00  0.00    -0.024 A 
ATOM      3  C   UNL     1      -4.793  -3.236  -1.021  0.00  0.00    -0.016 A 
ATOM      4  S   UNL     1      -4.970  -3.341   0.735  0.00  0.00    -0.079 S 
ATOM      5  C   UNL     1      -3.490  -2.706   1.212  0.00  0.00    +0.087 A 
ATOM      6  C   UNL     1      -5.761  -3.618  -2.091  0.00  0.00    -0.041 C 
ATOM      7  N   UNL     1      -5.166  -3.558  -3.425  0.00  0.00    +0.389 N 
ATOM      8  C   UNL     1      -3.711  -3.588  -3.493  0.00  0.00    -0.069 C 
ATOM      9  C   UNL     1      -3.071  -2.495  -2.628  0.00  0.00    +0.024 C 
ATOM     10  C   UNL     1      -3.167  -4.955  -3.072  0.00  0.00    -0.010 C 
ATOM     11  C   UNL     1      -3.289  -3.341  -4.953  0.00  0.00    -0.010 C 
ATOM     12  C   UNL     1      -6.300  -5.028  -1.813  0.00  0.00    -0.005 C 
ATOM     13  C   UNL     1      -6.951  -2.639  -2.037  0.00  0.00    -0.005 C 
ATOM     14  H   UNL     1      -5.533  -4.334  -3.979  0.00  0.00    -0.084 HD
ATOM     15  H   UNL     1      -5.495  -2.709  -3.889  0.00  0.00    -0.084 HD
ENDROOT
BRANCH   5  16
ATOM     16  N   UNL     1      -3.020  -2.514   2.500  0.00  0.00    -0.274 N 
ATOM     17  C   UNL     1      -3.787  -2.854   3.555  0.00  0.00    +0.269 C 
ATOM     18  O   UNL     1      -4.891  -3.330   3.375  0.00  0.00    -0.268 OA
ATOM     19  H   UNL     1      -2.139  -2.134   2.644  0.00  0.00    +0.156 HD
BRANCH  17  20
ATOM     20  C   UNL     1      -3.286  -2.649   4.929  0.00  0.00    +0.147 A 
ATOM     21  C   UNL     1      -3.968  -2.961   6.129  0.00  0.00    +0.054 A 
ATOM     22  C   UNL     1      -3.127  -2.602   7.127  0.00  0.00    +0.109 A 
ATOM     23  N   UNL     1      -2.010  -2.107   6.550  0.00  0.00    -0.268 N 
ATOM     24  N   UNL     1      -2.116  -2.147   5.271  0.00  0.00    -0.166 NA
BRANCH  23  25
ATOM     25  C   UNL     1      -0.844  -1.603   7.279  0.00  0.00    +0.101 C 
ATOM     26  C   UNL     1      -1.072  -0.138   7.655  0.00  0.00    +0.032 C 
ATOM     27  C   UNL     1      -0.641  -2.430   8.551  0.00  0.00    +0.032 C 
ENDBRANCH  23  25
ENDBRANCH  17  20
ENDBRANCH   5  16
BRANCH   1  28
ATOM     28  C   UNL     1      -1.497  -1.838   0.006  0.00  0.00    +0.342 C 
ATOM     29  O   UNL     1      -0.522  -2.566  -0.007  0.00  0.00    -0.245 OA
BRANCH  28  30
ATOM     30  O   UNL     1      -1.339  -0.499   0.012  0.00  0.00    -0.461 OA
BRANCH  30  32
ATOM     31  C   UNL     1      -0.019   1.526   0.010  0.00  0.00    +0.048 C 
ATOM     32  C   UNL     1       0.002  -0.004   0.002  0.00  0.00    +0.229 C 
ENDBRANCH  30  32
ENDBRANCH  28  30
ENDBRANCH   1  28
TORSDOF 6
