REMARK  Name = ZINC67161138
REMARK  9 active torsions:
REMARK  status: ('A' for Active; 'I' for Inactive)
REMARK    1  A    between atoms: C_1  and  C_2
REMARK    2  A    between atoms: C_2  and  C_3
REMARK    3  A    between atoms: C_2  and  C_4
REMARK    4  A    between atoms: C_9  and  N_12
REMARK    5  A    between atoms: C_13  and  C_15
REMARK    6  A    between atoms: C_15  and  C_16
REMARK    7  A    between atoms: C_16  and  C_17
REMARK    8  A    between atoms: C_17  and  C_18
REMARK    9  A    between atoms: C_18  and  C_19
REMARK                            x       y       z     vdW  Elec       q    Type
REMARK                         _______ _______ _______ _____ _____    ______ ____
ROOT
ATOM      1  N   UNL     1      -5.217   2.063  -2.598  0.00  0.00    -0.312 N 
ATOM      2  C   UNL     1      -6.431   1.820  -3.130  0.00  0.00    +0.213 C 
ATOM      3  O   UNL     1      -6.763   0.683  -3.392  0.00  0.00    -0.276 OA
ATOM      4  H   UNL     1      -4.952   2.972  -2.389  0.00  0.00    +0.149 HD
ENDROOT
BRANCH   1  10
ATOM      5  C   UNL     1      -1.384  -0.584   0.118  0.00  0.00    +0.218 C 
ATOM      6  O   UNL     1      -1.689  -1.234   1.096  0.00  0.00    -0.275 OA
ATOM      7  N   UNL     1      -2.284  -0.381  -0.864  0.00  0.00    -0.301 N 
ATOM      8  C   UNL     1      -1.896   0.303  -2.105  0.00  0.00    +0.109 C 
ATOM      9  C   UNL     1      -2.857   1.472  -2.345  0.00  0.00    +0.041 C 
ATOM     10  C   UNL     1      -4.297   0.953  -2.336  0.00  0.00    +0.076 C 
ATOM     11  C   UNL     1      -4.612   0.341  -0.970  0.00  0.00    +0.041 C 
ATOM     12  C   UNL     1      -3.670  -0.846  -0.717  0.00  0.00    +0.109 C 
BRANCH   5  14
ATOM     13  C   UNL     1      -0.014   1.453   0.469  0.00  0.00    +0.017 C 
ATOM     14  C   UNL     1       0.002  -0.004   0.002  0.00  0.00    +0.069 C 
ATOM     15  C   UNL     1       0.967  -0.809   0.875  0.00  0.00    +0.017 C 
ENDBRANCH   5  14
ENDBRANCH   1  10
BRANCH   2  16
ATOM     16  C   UNL     1      -7.378   2.962  -3.399  0.00  0.00    +0.096 C 
BRANCH  16  17
ATOM     17  C   UNL     1      -8.676   2.417  -3.998  0.00  0.00    +0.009 C 
BRANCH  17  18
ATOM     18  C   UNL     1      -9.637   3.576  -4.272  0.00  0.00    +0.002 C 
BRANCH  18  19
ATOM     19  C   UNL     1     -10.935   3.032  -4.871  0.00  0.00    +0.016 C 
BRANCH  19  20
ATOM     20  C   UNL     1     -11.896   4.191  -5.144  0.00  0.00    +0.069 C 
ATOM     21  C   UNL     1     -13.204   3.686  -5.791  0.00  0.00    +0.108 C 
ATOM     22  C   UNL     1     -14.459   4.398  -5.277  0.00  0.00    +0.105 C 
ATOM     23  C   UNL     1     -14.166   5.486  -4.221  0.00  0.00    +0.093 C 
ATOM     24  S   UNL     1     -12.524   4.917  -3.568  0.00  0.00    -0.154 S 
ATOM     25  N   UNL     1     -15.021   5.040  -6.475  0.00  0.00    -0.294 N 
ATOM     26  C   UNL     1     -14.239   4.763  -7.527  0.00  0.00    +0.300 C 
ATOM     27  O   UNL     1     -14.468   5.170  -8.650  0.00  0.00    -0.253 OA
ATOM     28  N   UNL     1     -13.185   4.006  -7.227  0.00  0.00    -0.294 N 
ATOM     29  H   UNL     1     -15.828   5.578  -6.500  0.00  0.00    +0.151 HD
ATOM     30  H   UNL     1     -12.512   3.711  -7.861  0.00  0.00    +0.151 HD
ENDBRANCH  19  20
ENDBRANCH  18  19
ENDBRANCH  17  18
ENDBRANCH  16  17
ENDBRANCH   2  16
TORSDOF 7
