REMARK  Name = ZINC22145499
REMARK  4 active torsions:
REMARK  status: ('A' for Active; 'I' for Inactive)
REMARK    1  A    between atoms: C_14  and  N_21
REMARK    2  A    between atoms: C_15  and  C_19
REMARK    3  A    between atoms: C_16  and  N_18
REMARK    4  A    between atoms: C_22  and  C_24
REMARK                            x       y       z     vdW  Elec       q    Type
REMARK                         _______ _______ _______ _____ _____    ______ ____
ROOT
ATOM      1  C   UNL     1       5.710   4.024  -0.735  0.00  0.00    +0.001 A 
ATOM      2  C   UNL     1       4.765   4.660  -1.538  0.00  0.00    +0.001 A 
ATOM      3  C   UNL     1       3.471   4.236  -1.568  0.00  0.00    +0.012 A 
ATOM      4  C   UNL     1       3.081   3.141  -0.779  0.00  0.00    +0.025 A 
ATOM      5  C   UNL     1       4.041   2.495   0.036  0.00  0.00    -0.014 A 
ATOM      6  C   UNL     1       5.367   2.960   0.041  0.00  0.00    +0.008 A 
ATOM      7  C   UNL     1       3.649   1.400   0.824  0.00  0.00    +0.009 A 
ATOM      8  C   UNL     1       2.358   0.973   0.796  0.00  0.00    +0.009 A 
ATOM      9  C   UNL     1       1.402   1.602  -0.003  0.00  0.00    +0.008 A 
ATOM     10  C   UNL     1       1.747   2.677  -0.787  0.00  0.00    +0.142 A 
ATOM     11  O   UNL     1       0.834   3.299  -1.568  0.00  0.00    -0.437 OA
ATOM     12  C   UNL     1      -0.303   2.661  -1.929  0.00  0.00    +0.228 A 
ATOM     13  C   UNL     1      -0.763   1.578  -1.198  0.00  0.00    +0.048 A 
ATOM     14  C   UNL     1      -1.935   0.936  -1.585  0.00  0.00    +0.055 A 
ATOM     15  C   UNL     1      -2.620   1.417  -2.720  0.00  0.00    +0.112 A 
ATOM     16  C   UNL     1      -2.087   2.519  -3.408  0.00  0.00    +0.139 A 
ATOM     17  N   UNL     1      -0.969   3.091  -2.997  0.00  0.00    -0.196 NA
ATOM     18  C   UNL     1      -0.013   1.086   0.008  0.00  0.00    +0.091 C 
ENDROOT
BRANCH  18  19
ATOM     19  C   UNL     1      -0.708   1.567   1.256  0.00  0.00    -0.017 A 
ATOM     20  C   UNL     1      -0.846   2.922   1.491  0.00  0.00    +0.006 A 
ATOM     21  C   UNL     1      -1.488   3.363   2.633  0.00  0.00    +0.000 A 
ATOM     22  C   UNL     1      -1.983   2.450   3.545  0.00  0.00    +0.001 A 
ATOM     23  C   UNL     1      -1.841   1.095   3.313  0.00  0.00    +0.020 A 
ATOM     24  C   UNL     1      -1.203   0.652   2.168  0.00  0.00    +0.045 A 
ATOM     25 CL   UNL     1      -1.025  -1.050   1.875  0.00  0.00    -0.083 Cl
ENDBRANCH  18  19
BRANCH  16  26
ATOM     26  N   UNL     1      -2.738   3.010  -4.527  0.00  0.00    -0.342 N 
ATOM     27  H   UNL     1      -2.325   3.873  -5.069  0.00  0.00    +0.144 HD
ATOM     28  H   UNL     1      -3.669   2.537  -4.873  0.00  0.00    +0.144 HD
ENDBRANCH  16  26
BRANCH  14  29
ATOM     29  N   UNL     1      -2.418  -0.150  -0.871  0.00  0.00    -0.357 N 
ATOM     30  H   UNL     1      -3.346  -0.647  -1.188  0.00  0.00    +0.142 HD
ATOM     31  H   UNL     1      -1.873  -0.514   0.013  0.00  0.00    +0.142 HD
ENDBRANCH  14  29
BRANCH  15  32
ATOM     32  C   UNL     1      -3.831   0.794  -3.161  0.00  0.00    +0.104 C 
ATOM     33  N   UNL     1      -4.793   0.300  -3.511  0.00  0.00    -0.191 NA
ENDBRANCH  15  32
TORSDOF 4
