REMARK  Name = ZINC34913114
REMARK  5 active torsions:
REMARK  status: ('A' for Active; 'I' for Inactive)
REMARK    1  A    between atoms: C_4  and  C_7
REMARK    2  A    between atoms: C_7  and  C_8
REMARK    3  A    between atoms: C_9  and  N_17
REMARK    4  A    between atoms: C_18  and  C_20
REMARK    5  A    between atoms: C_21  and  C_22
REMARK                            x       y       z     vdW  Elec       q    Type
REMARK                         _______ _______ _______ _____ _____    ______ ____
ROOT
ATOM      1  C   UNL     1       3.748  -0.665   1.749  0.00  0.00    +0.087 A 
ATOM      2  C   UNL     1       4.938  -0.128   2.123  0.00  0.00    +0.133 A 
ATOM      3  N   UNL     1       5.537  -1.025   2.966  0.00  0.00    -0.287 N 
ATOM      4  C   UNL     1       6.728  -1.012   3.636  0.00  0.00    +0.094 A 
ATOM      5  C   UNL     1       7.086  -2.050   4.420  0.00  0.00    +0.018 A 
ATOM      6  C   UNL     1       6.235  -3.160   4.560  0.00  0.00    +0.005 A 
ATOM      7  C   UNL     1       5.046  -3.188   3.900  0.00  0.00    +0.047 A 
ATOM      8  C   UNL     1       4.684  -2.097   3.083  0.00  0.00    +0.139 A 
ATOM      9  N   UNL     1       3.612  -1.854   2.345  0.00  0.00    -0.230 NA
ENDROOT
BRANCH   2  10
ATOM     10  N   UNL     1       5.454   1.109   1.722  0.00  0.00    -0.266 N 
ATOM     11  C   UNL     1       5.567   2.113   2.614  0.00  0.00    +0.242 C 
ATOM     12  O   UNL     1       5.306   1.917   3.787  0.00  0.00    -0.270 OA
ATOM     13  H   UNL     1       5.729   1.244   0.802  0.00  0.00    +0.157 HD
BRANCH  11  14
ATOM     14  C   UNL     1       6.005   3.438   2.172  0.00  0.00    +0.068 C 
ATOM     15  C   UNL     1       6.119   4.442   3.065  0.00  0.00    +0.013 C 
BRANCH  15  16
ATOM     16  C   UNL     1       6.558   5.775   2.621  0.00  0.00    -0.025 A 
ATOM     17  C   UNL     1       6.853   6.005   1.273  0.00  0.00    +0.008 A 
ATOM     18  C   UNL     1       7.264   7.256   0.865  0.00  0.00    +0.001 A 
ATOM     19  C   UNL     1       7.385   8.283   1.785  0.00  0.00    +0.000 A 
ATOM     20  C   UNL     1       7.095   8.063   3.120  0.00  0.00    +0.001 A 
ATOM     21  C   UNL     1       6.678   6.819   3.543  0.00  0.00    +0.008 A 
ENDBRANCH  15  16
ENDBRANCH  11  14
ENDBRANCH   2  10
BRANCH   1  22
ATOM     22  C   UNL     1       2.746  -0.026   0.822  0.00  0.00    +0.094 C 
BRANCH  22  26
ATOM     23  C   UNL     1       0.023   2.357   3.092  0.00  0.00    +0.000 A 
ATOM     24  C   UNL     1       1.186   2.918   2.598  0.00  0.00    +0.000 A 
ATOM     25  C   UNL     1       2.067   2.146   1.863  0.00  0.00    +0.004 A 
ATOM     26  C   UNL     1       1.786   0.814   1.624  0.00  0.00    -0.041 A 
ATOM     27  C   UNL     1       0.623   0.254   2.119  0.00  0.00    +0.004 A 
ATOM     28  C   UNL     1      -0.259   1.026   2.852  0.00  0.00    +0.000 A 
ENDBRANCH  22  26
ENDBRANCH   1  22
TORSDOF 5
