REMARK  Name = ZINC39708441
REMARK  10 active torsions:
REMARK  status: ('A' for Active; 'I' for Inactive)
REMARK    1  A    between atoms: C_1  and  C_2
REMARK    2  A    between atoms: C_5  and  C_38
REMARK    3  A    between atoms: C_6  and  N_8
REMARK    4  A    between atoms: C_9  and  C_24
REMARK    5  A    between atoms: C_12  and  S_13
REMARK    6  A    between atoms: S_13  and  C_14
REMARK    7  A    between atoms: C_14  and  C_15
REMARK    8  A    between atoms: C_18  and  N_21
REMARK    9  A    between atoms: C_24  and  N_25
REMARK   10  A    between atoms: C_26  and  C_28
REMARK                            x       y       z     vdW  Elec       q    Type
REMARK                         _______ _______ _______ _____ _____    ______ ____
ROOT
ATOM      1  N   UNL     1       0.052  -2.798   2.396  0.00  0.00    -0.273 N 
ATOM      2  C   UNL     1       1.152  -3.198   3.107  0.00  0.00    +0.156 A 
ATOM      3  N   UNL     1       0.722  -3.826   4.165  0.00  0.00    -0.132 NA
ATOM      4  N   UNL     1      -0.563  -3.852   4.173  0.00  0.00    -0.122 NA
ATOM      5  C   UNL     1      -1.029  -3.231   3.114  0.00  0.00    +0.196 A 
ENDROOT
BRANCH   1  11
ATOM      6  C   UNL     1      -0.018   1.503   0.010  0.00  0.00    +0.044 C 
ATOM      7  C   UNL     1       0.002  -0.004   0.002  0.00  0.00    -0.048 A 
ATOM      8  C   UNL     1       0.006  -0.688  -1.200  0.00  0.00    +0.004 A 
ATOM      9  C   UNL     1       0.025  -2.071  -1.211  0.00  0.00    +0.005 A 
ATOM     10  C   UNL     1       0.040  -2.772  -0.022  0.00  0.00    -0.026 A 
ATOM     11  C   UNL     1       0.036  -2.088   1.186  0.00  0.00    +0.053 A 
ATOM     12  C   UNL     1       0.023  -0.700   1.194  0.00  0.00    +0.030 A 
ATOM     13  C   UNL     1       0.060  -4.279  -0.035  0.00  0.00    +0.046 C 
ENDBRANCH   1  11
BRANCH   5  14
ATOM     14  S   UNL     1      -2.725  -3.002   2.696  0.00  0.00    -0.081 S 
BRANCH  14  15
ATOM     15  C   UNL     1      -3.624  -3.807   4.050  0.00  0.00    +0.112 C 
BRANCH  15  16
ATOM     16  C   UNL     1      -5.107  -3.683   3.813  0.00  0.00    -0.037 A 
ATOM     17  C   UNL     1      -5.796  -2.591   4.306  0.00  0.00    +0.007 A 
ATOM     18  C   UNL     1      -7.157  -2.476   4.089  0.00  0.00    +0.033 A 
ATOM     19  C   UNL     1      -7.828  -3.454   3.378  0.00  0.00    +0.126 A 
ATOM     20  C   UNL     1      -7.138  -4.545   2.884  0.00  0.00    +0.033 A 
ATOM     21  C   UNL     1      -5.777  -4.658   3.098  0.00  0.00    +0.007 A 
BRANCH  19  22
ATOM     22  N   UNL     1      -9.284  -3.332   3.146  0.00  0.00    +0.056 N 
ATOM     23  O   UNL     1      -9.888  -2.377   3.578  0.00  0.00    -0.126 OA
ATOM     24  O   UNL     1      -9.871  -4.187   2.524  0.00  0.00    -0.126 OA
ENDBRANCH  19  22
ENDBRANCH  15  16
ENDBRANCH  14  15
ENDBRANCH   5  14
BRANCH   2  25
ATOM     25  C   UNL     1       2.592  -2.956   2.736  0.00  0.00    +0.181 C 
BRANCH  25  26
ATOM     26  N   UNL     1       3.039  -1.686   3.314  0.00  0.00    -0.308 N 
ATOM     27  C   UNL     1       4.302  -1.261   3.112  0.00  0.00    +0.220 C 
ATOM     28  O   UNL     1       5.069  -1.930   2.451  0.00  0.00    -0.275 OA
ATOM     29  H   UNL     1       2.426  -1.152   3.842  0.00  0.00    +0.149 HD
BRANCH  27  30
ATOM     30  C   UNL     1       4.762   0.045   3.707  0.00  0.00    +0.048 C 
ATOM     31  C   UNL     1       3.897   1.185   3.165  0.00  0.00    +0.019 C 
ATOM     32  C   UNL     1       4.364   2.510   3.769  0.00  0.00    -0.009 C 
ATOM     33  C   UNL     1       5.826   2.756   3.392  0.00  0.00    +0.007 C 
ATOM     34  C   UNL     1       6.691   1.616   3.934  0.00  0.00    -0.009 C 
ATOM     35  C   UNL     1       6.224   0.290   3.329  0.00  0.00    +0.019 C 
ATOM     36  C   UNL     1       6.561   1.556   5.457  0.00  0.00    +0.007 C 
ATOM     37  C   UNL     1       5.098   1.311   5.834  0.00  0.00    -0.009 C 
ATOM     38  C   UNL     1       4.234   2.451   5.292  0.00  0.00    +0.007 C 
ATOM     39  C   UNL     1       4.631  -0.015   5.230  0.00  0.00    +0.019 C 
ENDBRANCH  27  30
ENDBRANCH  25  26
ENDBRANCH   2  25
TORSDOF 8
