REMARK  Name = ZINC39946571
REMARK  7 active torsions:
REMARK  status: ('A' for Active; 'I' for Inactive)
REMARK    1  A    between atoms: C_1  and  O_2
REMARK    2  A    between atoms: O_2  and  C_3
REMARK    3  A    between atoms: C_3  and  C_4
REMARK    4  A    between atoms: C_4  and  N_5
REMARK    5  A    between atoms: N_7  and  N_17
REMARK    6  A    between atoms: C_8  and  C_12
REMARK    7  A    between atoms: C_18  and  C_19
REMARK                            x       y       z     vdW  Elec       q    Type
REMARK                         _______ _______ _______ _____ _____    ______ ____
ROOT
ATOM      1  N   UNL     1       1.681  -2.603   0.049  0.00  0.00    -0.364 N 
ATOM      2  C   UNL     1       1.480  -3.783  -0.469  0.00  0.00    +0.151 C 
ATOM      3  N   UNL     1       1.941  -4.271  -1.676  0.00  0.00    -0.192 N 
ATOM      4  C   UNL     1       1.324  -5.454  -2.244  0.00  0.00    +0.176 C 
ATOM      5  C   UNL     1       0.205  -6.039  -1.351  0.00  0.00    +0.109 C 
ATOM      6  S   UNL     1       0.550  -5.143   0.224  0.00  0.00    -0.089 S 
ATOM      7  H   UNL     1       2.269  -1.973  -0.395  0.00  0.00    +0.161 HD
ENDROOT
BRANCH   4   8
ATOM      8  C   UNL     1       0.734  -5.097  -3.584  0.00  0.00    +0.128 A 
ATOM      9  C   UNL     1       0.762  -5.867  -4.687  0.00  0.00    +0.046 A 
ATOM     10  C   UNL     1       0.097  -5.148  -5.706  0.00  0.00    +0.041 A 
ATOM     11  C   UNL     1      -0.298  -3.982  -5.166  0.00  0.00    +0.195 A 
ATOM     12  O   UNL     1       0.085  -3.958  -3.879  0.00  0.00    -0.466 OA
ENDBRANCH   4   8
BRANCH   3  13
ATOM     13  N   UNL     1       2.993  -3.630  -2.344  0.00  0.00    -0.185 NA
ATOM     14  C   UNL     1       3.484  -4.148  -3.443  0.00  0.00    +0.136 C 
BRANCH  14  15
ATOM     15  C   UNL     1       4.452  -3.450  -4.175  0.00  0.00    +0.000 C 
ATOM     16  C   UNL     1       5.067  -3.854  -5.359  0.00  0.00    +0.005 A 
ATOM     17  C   UNL     1       4.933  -5.011  -6.157  0.00  0.00    +0.025 A 
ATOM     18  C   UNL     1       5.677  -5.141  -7.286  0.00  0.00    +0.019 A 
ATOM     19  C   UNL     1       6.582  -4.152  -7.684  0.00  0.00    +0.017 A 
ATOM     20  C   UNL     1       6.762  -3.017  -6.966  0.00  0.00    +0.027 A 
ATOM     21  C   UNL     1       6.019  -2.810  -5.774  0.00  0.00    +0.043 A 
ATOM     22  N   UNL     1       6.010  -1.811  -4.915  0.00  0.00    -0.380 N 
ATOM     23  C   UNL     1       5.045  -2.097  -3.850  0.00  0.00    +0.150 C 
ATOM     24 BR   UNL     1       5.486  -6.697  -8.343  0.00  0.00    -0.050 Br
ATOM     25  H   UNL     1       6.554  -1.011  -4.979  0.00  0.00    +0.160 HD
ENDBRANCH  14  15
ENDBRANCH   3  13
BRANCH   1  26
ATOM     26  C   UNL     1       1.018  -2.230   1.301  0.00  0.00    +0.142 C 
BRANCH  26  27
ATOM     27  C   UNL     1       1.422  -0.806   1.686  0.00  0.00    +0.180 C 
BRANCH  27  29
ATOM     28  C   UNL     1       1.249   1.477   0.976  0.00  0.00    +0.194 C 
ATOM     29  O   UNL     1       0.925   0.111   0.709  0.00  0.00    -0.381 OA
ENDBRANCH  27  29
ENDBRANCH  26  27
ENDBRANCH   1  26
TORSDOF 6
