REMARK  Name = ZINC39663440
REMARK  7 active torsions:
REMARK  status: ('A' for Active; 'I' for Inactive)
REMARK    1  A    between atoms: C_3  and  C_12
REMARK    2  A    between atoms: C_6  and  C_7
REMARK    3  A    between atoms: C_16  and  C_25
REMARK    4  A    between atoms: N_27  and  C_28
REMARK    5  A    between atoms: C_28  and  C_29
REMARK    6  A    between atoms: C_29  and  C_30
REMARK    7  A    between atoms: C_30  and  C_31
REMARK                            x       y       z     vdW  Elec       q    Type
REMARK                         _______ _______ _______ _____ _____    ______ ____
ROOT
ATOM      1  C   UNL     1       3.947   2.222   0.074  0.00  0.00    +0.249 C 
ATOM      2  O   UNL     1       5.050   1.722   0.175  0.00  0.00    -0.270 OA
ATOM      3  N   UNL     1       3.821   3.557  -0.056  0.00  0.00    -0.296 N 
ATOM      4  C   UNL     1       2.571   4.354  -0.084  0.00  0.00    +0.121 C 
ATOM      5  C   UNL     1       2.902   5.627   0.727  0.00  0.00    +0.100 C 
ATOM      6  C   UNL     1       4.432   5.759   0.644  0.00  0.00    -0.004 C 
ATOM      7  C   UNL     1       4.902   4.562  -0.196  0.00  0.00    +0.115 C 
ATOM      8  C   UNL     1       5.045   5.690   2.039  0.00  0.00    -0.010 C 
ATOM      9  C   UNL     1       6.560   5.881   1.936  0.00  0.00    -0.082 C 
ATOM     10  N   UNL     1       6.851   7.180   1.316  0.00  0.00    +0.379 N 
ATOM     11  C   UNL     1       6.338   7.204  -0.060  0.00  0.00    -0.082 C 
ATOM     12  C   UNL     1       4.813   7.068  -0.041  0.00  0.00    -0.010 C 
ATOM     13  H   UNL     1       6.409   7.912   1.850  0.00  0.00    -0.086 HD
ATOM     14  H   UNL     1       7.848   7.330   1.304  0.00  0.00    -0.086 HD
ENDROOT
BRANCH   1  17
ATOM     15  C   UNL     1       0.506   0.904  -0.649  0.00  0.00    +0.013 A 
ATOM     16  C   UNL     1       1.626   1.708  -0.670  0.00  0.00    +0.016 A 
ATOM     17  C   UNL     1       2.744   1.365   0.093  0.00  0.00    +0.072 A 
ATOM     18  C   UNL     1       2.719   0.206   0.875  0.00  0.00    +0.136 A 
ATOM     19  C   UNL     1       1.588  -0.590   0.886  0.00  0.00    +0.051 A 
ATOM     20  C   UNL     1       0.487  -0.242   0.127  0.00  0.00    +0.058 A 
ATOM     21  F   UNL     1       3.795  -0.135   1.617  0.00  0.00    -0.205 F 
BRANCH  20  22
ATOM     22  C   UNL     1      -0.742  -1.115   0.144  0.00  0.00    +0.418 C 
ATOM     23  F   UNL     1      -0.644  -2.079  -0.864  0.00  0.00    -0.166 F 
ATOM     24  F   UNL     1      -0.846  -1.748   1.387  0.00  0.00    -0.166 F 
ATOM     25  F   UNL     1      -1.877  -0.326  -0.074  0.00  0.00    -0.166 F 
ENDBRANCH  20  22
ENDBRANCH   1  17
BRANCH   5  26
ATOM     26  C   UNL     1       2.464   5.466   2.159  0.00  0.00    +0.218 C 
ATOM     27  O   UNL     1       2.452   4.365   2.670  0.00  0.00    -0.275 OA
ATOM     28  N   UNL     1       2.085   6.544   2.874  0.00  0.00    -0.315 N 
ATOM     29  H   UNL     1       2.094   7.424   2.466  0.00  0.00    +0.149 HD
BRANCH  28  30
ATOM     30  C   UNL     1       1.659   6.387   4.267  0.00  0.00    +0.104 C 
BRANCH  30  31
ATOM     31  C   UNL     1       1.284   7.754   4.843  0.00  0.00    +0.030 C 
BRANCH  31  32
ATOM     32  C   UNL     1       0.839   7.590   6.298  0.00  0.00    +0.126 C 
BRANCH  32  33
ATOM     33  C   UNL     1       0.470   8.936   6.865  0.00  0.00    +0.356 C 
ATOM     34  O   UNL     1       0.555   9.935   6.170  0.00  0.00    -0.246 OA
ATOM     35  O   UNL     1       0.087   9.027   8.019  0.00  0.00    -0.246 OA
ENDBRANCH  32  33
ENDBRANCH  31  32
ENDBRANCH  30  31
ENDBRANCH  28  30
ENDBRANCH   5  26
TORSDOF 7
