REMARK  Name = ZINC64392157
REMARK  4 active torsions:
REMARK  status: ('A' for Active; 'I' for Inactive)
REMARK    1  A    between atoms: C_3  and  C_8
REMARK    2  A    between atoms: C_10  and  C_14
REMARK    3  A    between atoms: N_24  and  C_27
REMARK    4  A    between atoms: C_27  and  C_28
REMARK                            x       y       z     vdW  Elec       q    Type
REMARK                         _______ _______ _______ _____ _____    ______ ____
ROOT
ATOM      1  C   UNL     1       6.286   3.267  -1.714  0.00  0.00    +0.006 A 
ATOM      2  C   UNL     1       5.422   3.294  -2.797  0.00  0.00    +0.009 A 
ATOM      3  C   UNL     1       5.854   3.754  -4.023  0.00  0.00    +0.016 A 
ATOM      4  C   UNL     1       7.168   4.192  -4.168  0.00  0.00    +0.063 A 
ATOM      5  C   UNL     1       8.043   4.164  -3.068  0.00  0.00    +0.056 A 
ATOM      6  C   UNL     1       7.590   3.704  -1.842  0.00  0.00    +0.034 A 
ATOM      7  N   UNL     1       9.347   4.607  -3.241  0.00  0.00    -0.307 N 
ATOM      8  H   UNL     1       9.962   4.593  -2.492  0.00  0.00    +0.170 HD
ATOM      9  C   UNL     1       9.765   5.055  -4.438  0.00  0.00    +0.330 A 
ATOM     10  O   UNL     1      10.915   5.434  -4.548  0.00  0.00    -0.246 OA
ATOM     11  N   UNL     1       8.967   5.102  -5.516  0.00  0.00    -0.256 N 
ATOM     12  C   UNL     1       7.681   4.694  -5.455  0.00  0.00    +0.265 A 
ATOM     13  O   UNL     1       6.965   4.739  -6.437  0.00  0.00    -0.267 OA
ENDROOT
BRANCH   1  16
ATOM     14  C   UNL     1       3.658   2.166  -0.022  0.00  0.00    +0.134 C 
ATOM     15  N   UNL     1       4.753   1.747  -0.575  0.00  0.00    -0.339 N 
ATOM     16  C   UNL     1       5.797   2.761  -0.381  0.00  0.00    +0.274 C 
ATOM     17  O   UNL     1       5.167   3.821   0.354  0.00  0.00    -0.243 OA
ATOM     18  N   UNL     1       3.826   3.403   0.550  0.00  0.00    -0.247 N 
ATOM     19  H   UNL     1       3.140   3.908   1.014  0.00  0.00    +0.196 HD
ATOM     20  H   UNL     1       4.865   0.902  -1.039  0.00  0.00    +0.164 HD
BRANCH  14  23
ATOM     21  C   UNL     1      -0.017   1.379   0.010  0.00  0.00    +0.003 A 
ATOM     22  C   UNL     1       1.167   2.088   0.002  0.00  0.00    +0.012 A 
ATOM     23  C   UNL     1       2.385   1.409  -0.013  0.00  0.00    +0.020 A 
ATOM     24  C   UNL     1       2.400   0.015  -0.021  0.00  0.00    +0.049 A 
ATOM     25  C   UNL     1       1.208  -0.686  -0.013  0.00  0.00    +0.124 A 
ATOM     26  C   UNL     1       0.002  -0.004   0.002  0.00  0.00    +0.038 A 
ATOM     27  F   UNL     1       1.220  -2.037  -0.020  0.00  0.00    -0.205 F 
ENDBRANCH  14  23
ENDBRANCH   1  16
BRANCH  11  28
ATOM     28  C   UNL     1       9.502   5.604  -6.784  0.00  0.00    +0.165 C 
BRANCH  28  29
ATOM     29  C   UNL     1      10.086   4.460  -7.572  0.00  0.00    -0.024 A 
ATOM     30  C   UNL     1      11.415   4.117  -7.407  0.00  0.00    +0.009 A 
ATOM     31  C   UNL     1      11.955   3.068  -8.127  0.00  0.00    +0.050 A 
ATOM     32  C   UNL     1      11.165   2.358  -9.017  0.00  0.00    +0.166 A 
ATOM     33  C   UNL     1       9.827   2.704  -9.183  0.00  0.00    +0.167 A 
ATOM     34  C   UNL     1       9.291   3.753  -8.454  0.00  0.00    +0.055 A 
ATOM     35  O   UNL     1       9.270   1.864 -10.104  0.00  0.00    -0.453 OA
ATOM     36  C   UNL     1      10.380   1.266 -10.799  0.00  0.00    +0.466 C 
ATOM     37  O   UNL     1      11.448   1.301  -9.834  0.00  0.00    -0.453 OA
ENDBRANCH  28  29
ENDBRANCH  11  28
TORSDOF 4
