REMARK  Name = ZINC16692974
REMARK  5 active torsions:
REMARK  status: ('A' for Active; 'I' for Inactive)
REMARK    1  A    between atoms: C_1  and  O_2
REMARK    2  A    between atoms: O_2  and  C_3
REMARK    3  A    between atoms: C_6  and  N_9
REMARK    4  A    between atoms: C_15  and  C_16
REMARK    5  A    between atoms: C_17  and  C_18
REMARK                            x       y       z     vdW  Elec       q    Type
REMARK                         _______ _______ _______ _____ _____    ______ ____
ROOT
ATOM      1  N   UNL     1      -4.864  -2.568   0.034  0.00  0.00    -0.226 NA
ATOM      2  C   UNL     1      -5.077  -3.584  -0.770  0.00  0.00    +0.166 C 
ATOM      3  N   UNL     1      -6.219  -4.343  -0.910  0.00  0.00    -0.260 N 
ATOM      4  C   UNL     1      -6.263  -5.341  -1.776  0.00  0.00    +0.256 C 
ATOM      5  O   UNL     1      -7.263  -6.021  -1.913  0.00  0.00    -0.269 OA
ATOM      6  C   UNL     1      -5.046  -5.593  -2.570  0.00  0.00    +0.077 C 
ATOM      7  C   UNL     1      -4.815  -6.543  -3.522  0.00  0.00    +0.020 C 
ATOM      8  S   UNL     1      -3.958  -4.316  -1.955  0.00  0.00    -0.049 S 
ATOM      9  H   UNL     1      -6.998  -4.143  -0.368  0.00  0.00    +0.157 HD
ENDROOT
BRANCH   1  13
ATOM     10  C   UNL     1      -1.201  -0.638   0.010  0.00  0.00    +0.120 A 
ATOM     11  C   UNL     1      -2.374   0.104   0.019  0.00  0.00    +0.048 A 
ATOM     12  C   UNL     1      -3.596  -0.534   0.027  0.00  0.00    +0.031 A 
ATOM     13  C   UNL     1      -3.653  -1.929   0.026  0.00  0.00    +0.067 A 
ATOM     14  C   UNL     1      -2.470  -2.672   0.016  0.00  0.00    +0.031 A 
ATOM     15  C   UNL     1      -1.252  -2.025   0.003  0.00  0.00    +0.048 A 
BRANCH  10  17
ATOM     16  C   UNL     1      -0.017   1.425   0.010  0.00  0.00    +0.277 C 
ATOM     17  O   UNL     1       0.002  -0.004   0.002  0.00  0.00    -0.495 OA
ENDBRANCH  10  17
ENDBRANCH   1  13
BRANCH   7  18
ATOM     18  C   UNL     1      -3.563  -6.606  -4.164  0.00  0.00    +0.002 C 
ATOM     19  C   UNL     1      -3.333  -7.548  -5.109  0.00  0.00    +0.008 C 
BRANCH  19  20
ATOM     20  C   UNL     1      -2.026  -7.614  -5.779  0.00  0.00    -0.025 A 
ATOM     21  C   UNL     1      -1.015  -6.709  -5.439  0.00  0.00    +0.008 A 
ATOM     22  C   UNL     1       0.208  -6.778  -6.072  0.00  0.00    +0.001 A 
ATOM     23  C   UNL     1       0.437  -7.740  -7.041  0.00  0.00    +0.000 A 
ATOM     24  C   UNL     1      -0.559  -8.638  -7.383  0.00  0.00    +0.001 A 
ATOM     25  C   UNL     1      -1.785  -8.586  -6.756  0.00  0.00    +0.008 A 
ENDBRANCH  19  20
ENDBRANCH   7  18
TORSDOF 4
