REMARK  Name = ZINC13371122
REMARK  10 active torsions:
REMARK  status: ('A' for Active; 'I' for Inactive)
REMARK    1  A    between atoms: C_1  and  C_2
REMARK    2  A    between atoms: C_4  and  C_27
REMARK    3  A    between atoms: C_6  and  C_19
REMARK    4  A    between atoms: C_9  and  C_10
REMARK    5  A    between atoms: C_9  and  O_18
REMARK    6  A    between atoms: C_11  and  C_12
REMARK    7  A    between atoms: C_22  and  O_25
REMARK    8  A    between atoms: O_25  and  C_26
REMARK    9  A    between atoms: C_30  and  O_33
REMARK   10  A    between atoms: O_33  and  C_34
REMARK                            x       y       z     vdW  Elec       q    Type
REMARK                         _______ _______ _______ _____ _____    ______ ____
ROOT
ATOM      1  C   UNL     1      -2.276   7.839   1.284  0.00  0.00    +0.010 C 
ATOM      2  C   UNL     1      -1.555   8.414   0.063  0.00  0.00    +0.020 C 
ATOM      3  C   UNL     1      -1.569   9.943   0.134  0.00  0.00    -0.034 C 
ATOM      4  C   UNL     1       0.537   9.964   1.332  0.00  0.00    -0.036 C 
ATOM      5  C   UNL     1       0.614   8.436   1.297  0.00  0.00    +0.037 C 
ATOM      6  C   UNL     1      -0.105   7.922   0.047  0.00  0.00    +0.127 C 
ATOM      7  N   UNL     1      -0.875  10.391   1.356  0.00  0.00    +0.388 N 
ATOM      8  H   UNL     1      -1.338   9.983   2.177  0.00  0.00    -0.084 HD
ATOM      9  H   UNL     1      -0.918  11.415   1.413  0.00  0.00    -0.084 HD
ENDROOT
BRANCH   4  10
ATOM     10  C   UNL     1       1.227  10.474   2.571  0.00  0.00    -0.061 A 
ATOM     11  C   UNL     1       0.567  10.453   3.786  0.00  0.00    +0.005 A 
ATOM     12  C   UNL     1       1.199  10.915   4.924  0.00  0.00    +0.046 A 
ATOM     13  C   UNL     1       2.493  11.410   4.846  0.00  0.00    +0.120 A 
ATOM     14  C   UNL     1       3.151  11.435   3.624  0.00  0.00    +0.046 A 
ATOM     15  C   UNL     1       2.516  10.966   2.490  0.00  0.00    +0.005 A 
BRANCH  13  16
ATOM     16  O   UNL     1       3.115  11.870   5.963  0.00  0.00    -0.495 OA
ATOM     17  C   UNL     1       2.377  11.814   7.186  0.00  0.00    +0.277 C 
ENDBRANCH  13  16
ENDBRANCH   4  10
BRANCH   3  18
ATOM     18  C   UNL     1      -2.995  10.431   0.170  0.00  0.00    -0.061 A 
ATOM     19  C   UNL     1      -3.705  10.398   1.356  0.00  0.00    +0.005 A 
ATOM     20  C   UNL     1      -5.010  10.850   1.393  0.00  0.00    +0.046 A 
ATOM     21  C   UNL     1      -5.611  11.327   0.237  0.00  0.00    +0.120 A 
ATOM     22  C   UNL     1      -4.898  11.353  -0.953  0.00  0.00    +0.046 A 
ATOM     23  C   UNL     1      -3.591  10.905  -0.984  0.00  0.00    +0.005 A 
BRANCH  21  24
ATOM     24  O   UNL     1      -6.897  11.767   0.269  0.00  0.00    -0.495 OA
ATOM     25  C   UNL     1      -7.570  11.710   1.529  0.00  0.00    +0.277 C 
ENDBRANCH  21  24
ENDBRANCH   3  18
BRANCH   6  26
ATOM     26  C   UNL     1      -0.086   6.450   0.038  0.00  0.00    -0.062 C 
ATOM     27  C   UNL     1      -0.070   5.277   0.032  0.00  0.00    -0.063 C 
BRANCH  27  28
ATOM     28  C   UNL     1      -0.050   3.845   0.023  0.00  0.00    +0.025 A 
ATOM     29  C   UNL     1       1.166   3.160   0.008  0.00  0.00    +0.017 A 
ATOM     30  C   UNL     1       1.178   1.781   0.000  0.00  0.00    +0.001 A 
ATOM     31  C   UNL     1      -0.013   1.076   0.008  0.00  0.00    +0.000 A 
ATOM     32  C   UNL     1      -1.222   1.748   0.017  0.00  0.00    +0.001 A 
ATOM     33  C   UNL     1      -1.247   3.128   0.031  0.00  0.00    +0.017 A 
ENDBRANCH  27  28
ENDBRANCH   6  26
BRANCH   6  34
ATOM     34  O   UNL     1       0.553   8.415  -1.121  0.00  0.00    -0.376 OA
ATOM     35  H   UNL     1       1.478   8.144  -1.196  0.00  0.00    +0.211 HD
ENDBRANCH   6  34
TORSDOF 7
