REMARK  Name = ZINC41583775
REMARK  7 active torsions:
REMARK  status: ('A' for Active; 'I' for Inactive)
REMARK    1  A    between atoms: C_1  and  C_2
REMARK    2  A    between atoms: C_6  and  C_8
REMARK    3  A    between atoms: C_15  and  O_30
REMARK    4  A    between atoms: C_16  and  C_19
REMARK    5  A    between atoms: C_19  and  N_20
REMARK    6  A    between atoms: C_22  and  C_29
REMARK    7  A    between atoms: C_25  and  C_28
REMARK                            x       y       z     vdW  Elec       q    Type
REMARK                         _______ _______ _______ _____ _____    ______ ____
ROOT
ATOM      1  C   UNL     1       0.052  -2.845   2.448  0.00  0.00    +0.058 C 
ATOM      2  C   UNL     1      -0.032  -4.199   2.437  0.00  0.00    +0.176 C 
ATOM      3  C   UNL     1      -0.034  -5.060   1.244  0.00  0.00    +0.231 C 
ATOM      4  O   UNL     1       0.038  -4.718   0.076  0.00  0.00    -0.283 OA
ATOM      5  C   UNL     1      -0.142  -6.430   1.778  0.00  0.00    +0.068 A 
ATOM      6  C   UNL     1      -0.194  -7.688   1.175  0.00  0.00    +0.019 A 
ATOM      7  C   UNL     1      -0.298  -8.809   1.948  0.00  0.00    +0.046 A 
ATOM      8  C   UNL     1      -0.351  -8.700   3.335  0.00  0.00    +0.122 A 
ATOM      9  C   UNL     1      -0.300  -7.458   3.947  0.00  0.00    +0.020 A 
ATOM     10  C   UNL     1      -0.194  -6.307   3.175  0.00  0.00    +0.144 A 
ATOM     11  O   UNL     1      -0.123  -5.003   3.522  0.00  0.00    -0.451 OA
ENDROOT
BRANCH   1  17
ATOM     12  C   UNL     1      -1.989  -2.205  -2.054  0.00  0.00    +0.044 C 
ATOM     13  C   UNL     1      -1.018  -1.779  -0.983  0.00  0.00    -0.050 A 
ATOM     14  C   UNL     1      -0.208  -0.675  -1.185  0.00  0.00    +0.003 A 
ATOM     15  C   UNL     1       0.686  -0.275  -0.207  0.00  0.00    +0.001 A 
ATOM     16  C   UNL     1       0.777  -0.975   0.977  0.00  0.00    +0.008 A 
ATOM     17  C   UNL     1      -0.038  -2.093   1.189  0.00  0.00    -0.021 A 
ATOM     18  C   UNL     1      -0.944  -2.487   0.197  0.00  0.00    +0.011 A 
ENDBRANCH   1  17
BRANCH   8  19
ATOM     19  O   UNL     1      -0.455  -9.820   4.095  0.00  0.00    -0.506 OA
ATOM     20  H   UNL     1       0.396 -10.200   4.354  0.00  0.00    +0.292 HD
ENDBRANCH   8  19
BRANCH   9  21
ATOM     21  C   UNL     1      -0.359  -7.355   5.449  0.00  0.00    -0.036 C 
BRANCH  21  22
ATOM     22  N   UNL     1       1.002  -7.408   5.998  0.00  0.00    +0.383 N 
ATOM     23  C   UNL     1       1.592  -8.722   5.714  0.00  0.00    -0.075 C 
ATOM     24  C   UNL     1       3.038  -8.754   6.212  0.00  0.00    -0.031 C 
ATOM     25  C   UNL     1       3.058  -8.500   7.721  0.00  0.00    +0.003 C 
ATOM     26  C   UNL     1       2.375  -7.161   8.013  0.00  0.00    -0.031 C 
ATOM     27  C   UNL     1       0.953  -7.188   7.448  0.00  0.00    -0.075 C 
ATOM     28  C   UNL     1       2.321  -6.934   9.525  0.00  0.00    +0.005 C 
ATOM     29  C   UNL     1       3.849  -7.670   5.499  0.00  0.00    +0.005 C 
ATOM     30  H   UNL     1       1.565  -6.689   5.569  0.00  0.00    -0.081 HD
ENDBRANCH  21  22
ENDBRANCH   9  21
TORSDOF 4
