REMARK  Name = ZINC01226705
REMARK  4 active torsions:
REMARK  status: ('A' for Active; 'I' for Inactive)
REMARK    1  A    between atoms: C_9  and  C_12
REMARK    2  A    between atoms: N_14  and  N_15
REMARK    3  A    between atoms: C_16  and  C_17
REMARK    4  A    between atoms: C_20  and  C_22
REMARK                            x       y       z     vdW  Elec       q    Type
REMARK                         _______ _______ _______ _____ _____    ______ ____
ROOT
ATOM      1  C   UNL     1      -5.827   2.752   0.040  0.00  0.00    +0.276 C 
ATOM      2  O   UNL     1      -5.579   3.939   0.046  0.00  0.00    -0.270 OA
ATOM      3  N   UNL     1      -4.822   1.854   0.031  0.00  0.00    -0.204 N 
ATOM      4  H   UNL     1      -5.020   0.904   0.027  0.00  0.00    +0.177 HD
ENDROOT
BRANCH   1  13
ATOM      5  C   UNL     1     -12.136   2.782  -0.655  0.00  0.00    +0.004 A 
ATOM      6  C   UNL     1     -11.736   3.898   0.056  0.00  0.00    +0.004 A 
ATOM      7  C   UNL     1     -10.398   4.103   0.331  0.00  0.00    +0.049 A 
ATOM      8  C   UNL     1      -9.451   3.188  -0.105  0.00  0.00    +0.163 A 
ATOM      9  C   UNL     1      -9.852   2.065  -0.818  0.00  0.00    +0.162 A 
ATOM     10  C   UNL     1     -11.197   1.866  -1.092  0.00  0.00    +0.049 A 
ATOM     11  O   UNL     1      -8.941   1.151  -1.250  0.00  0.00    -0.484 OA
ATOM     12  C   UNL     1      -7.572   1.573  -1.281  0.00  0.00    +0.283 C 
ATOM     13  C   UNL     1      -7.258   2.281   0.043  0.00  0.00    +0.297 C 
ATOM     14  O   UNL     1      -8.136   3.405   0.171  0.00  0.00    -0.472 OA
ENDBRANCH   1  13
BRANCH   3  15
ATOM     15  N   UNL     1      -3.491   2.292   0.029  0.00  0.00    -0.185 NA
ATOM     16  C   UNL     1      -2.520   1.425   0.020  0.00  0.00    +0.176 C 
BRANCH  16  17
ATOM     17  C   UNL     1      -1.129   1.882   0.017  0.00  0.00    +0.148 A 
ATOM     18  C   UNL     1      -0.013   1.076   0.008  0.00  0.00    +0.051 A 
ATOM     19  C   UNL     1       1.101   1.927   0.002  0.00  0.00    +0.050 A 
ATOM     20  C   UNL     1       0.627   3.205   0.013  0.00  0.00    +0.136 A 
ATOM     21  O   UNL     1      -0.719   3.167   0.025  0.00  0.00    -0.454 OA
BRANCH  20  22
ATOM     22  C   UNL     1       1.453   4.429   0.011  0.00  0.00    +0.017 A 
ATOM     23  C   UNL     1       2.847   4.334   0.003  0.00  0.00    +0.013 A 
ATOM     24  C   UNL     1       3.613   5.481  -0.004  0.00  0.00    +0.021 A 
ATOM     25  C   UNL     1       3.003   6.725   0.008  0.00  0.00    +0.041 A 
ATOM     26  C   UNL     1       1.622   6.825   0.021  0.00  0.00    +0.021 A 
ATOM     27  C   UNL     1       0.845   5.686   0.023  0.00  0.00    +0.013 A 
ATOM     28 CL   UNL     1       3.974   8.164   0.005  0.00  0.00    -0.084 Cl
ENDBRANCH  20  22
ENDBRANCH  16  17
ENDBRANCH   3  15
TORSDOF 4
