REMARK  Name = ZINC11427905
REMARK  4 active torsions:
REMARK  status: ('A' for Active; 'I' for Inactive)
REMARK    1  A    between atoms: C_1  and  C_2
REMARK    2  A    between atoms: C_12  and  C_14
REMARK    3  A    between atoms: C_14  and  C_15
REMARK    4  A    between atoms: C_15  and  C_16
REMARK                            x       y       z     vdW  Elec       q    Type
REMARK                         _______ _______ _______ _____ _____    ______ ____
ROOT
ATOM      1  C   UNL     1      -0.019   1.526   0.010  0.00  0.00    +0.008 C 
ATOM      2  C   UNL     1       0.002  -0.004   0.002  0.00  0.00    -0.009 C 
ATOM      3  C   UNL     1       0.724  -0.501  -1.254  0.00  0.00    +0.010 C 
ATOM      4  C   UNL     1       0.541  -2.012  -1.403  0.00  0.00    +0.056 C 
ATOM      5  C   UNL     1       0.951  -2.684  -0.100  0.00  0.00    +0.054 A 
ATOM      6  C   UNL     1       1.031  -1.968   1.051  0.00  0.00    +0.015 A 
ATOM      7  S   UNL     1       1.536  -3.189   2.230  0.00  0.00    -0.057 S 
ATOM      8  C   UNL     1       1.604  -4.500   1.174  0.00  0.00    +0.165 A 
ATOM      9  N   UNL     1       1.255  -3.974   0.021  0.00  0.00    -0.229 NA
ATOM     10  N   UNL     1       1.946  -5.818   1.454  0.00  0.00    -0.265 N 
ATOM     11  C   UNL     1       1.944  -6.738   0.469  0.00  0.00    +0.219 C 
ATOM     12  O   UNL     1       1.644  -6.416  -0.661  0.00  0.00    -0.275 OA
ATOM     13  C   UNL     1       0.751  -0.516   1.243  0.00  0.00    +0.047 C 
ATOM     14  H   UNL     1       2.186  -6.075   2.358  0.00  0.00    +0.157 HD
ENDROOT
BRANCH  11  15
ATOM     15  C   UNL     1       2.314  -8.167   0.772  0.00  0.00    +0.104 C 
BRANCH  15  16
ATOM     16  C   UNL     1       2.232  -8.998  -0.510  0.00  0.00    +0.083 C 
BRANCH  16  17
ATOM     17  C   UNL     1       2.603 -10.427  -0.206  0.00  0.00    +0.111 A 
ATOM     18  N   UNL     1       2.595 -11.325  -1.226  0.00  0.00    -0.310 N 
ATOM     19  H   UNL     1       2.354 -11.036  -2.119  0.00  0.00    +0.170 HD
ATOM     20  C   UNL     1       2.920 -12.621  -1.006  0.00  0.00    +0.259 A 
ATOM     21  O   UNL     1       2.918 -13.436  -1.909  0.00  0.00    -0.267 OA
ATOM     22  C   UNL     1       3.277 -13.005   0.368  0.00  0.00    +0.065 A 
ATOM     23  C   UNL     1       3.627 -14.312   0.701  0.00  0.00    +0.015 A 
ATOM     24  C   UNL     1       3.952 -14.617   2.005  0.00  0.00    +0.001 A 
ATOM     25  C   UNL     1       3.934 -13.633   2.985  0.00  0.00    +0.002 A 
ATOM     26  C   UNL     1       3.591 -12.336   2.678  0.00  0.00    +0.028 A 
ATOM     27  C   UNL     1       3.257 -12.002   1.363  0.00  0.00    +0.078 A 
ATOM     28  N   UNL     1       2.919 -10.736   1.015  0.00  0.00    -0.234 NA
ENDBRANCH  16  17
ENDBRANCH  15  16
ENDBRANCH  11  15
TORSDOF 3
