REMARK  Name = ZINC44737560
REMARK  8 active torsions:
REMARK  status: ('A' for Active; 'I' for Inactive)
REMARK    1  A    between atoms: C_1  and  C_2
REMARK    2  A    between atoms: C_9  and  C_11
REMARK    3  A    between atoms: C_11  and  C_13
REMARK    4  A    between atoms: C_11  and  N_14
REMARK    5  A    between atoms: C_15  and  C_17
REMARK    6  A    between atoms: C_28  and  C_30
REMARK    7  A    between atoms: C_31  and  C_41
REMARK    8  A    between atoms: C_34  and  C_35
REMARK                            x       y       z     vdW  Elec       q    Type
REMARK                         _______ _______ _______ _____ _____    ______ ____
ROOT
ATOM      1  C   UNL     1      -1.623  -8.782   1.003  0.00  0.00    +0.100 C 
ATOM      2  C   UNL     1      -0.558  -9.301   0.011  0.00  0.00    +0.121 C 
ATOM      3  N   UNL     1      -0.008 -10.516   0.655  0.00  0.00    -0.296 N 
ATOM      4  C   UNL     1      -1.187 -11.177   1.265  0.00  0.00    +0.115 C 
ATOM      5  C   UNL     1      -2.036 -10.017   1.821  0.00  0.00    -0.004 C 
ATOM      6  C   UNL     1      -1.726  -9.799   3.299  0.00  0.00    -0.010 C 
ATOM      7  C   UNL     1      -2.197 -11.017   4.099  0.00  0.00    -0.082 C 
ATOM      8  N   UNL     1      -3.639 -11.205   3.904  0.00  0.00    +0.379 N 
ATOM      9  C   UNL     1      -3.919 -11.505   2.495  0.00  0.00    -0.082 C 
ATOM     10  C   UNL     1      -3.521 -10.308   1.627  0.00  0.00    -0.010 C 
ATOM     11  C   UNL     1       1.275 -10.929   0.682  0.00  0.00    +0.252 C 
ATOM     12  O   UNL     1       1.571 -11.959   1.257  0.00  0.00    -0.270 OA
ATOM     13  H   UNL     1      -3.959 -11.970   4.479  0.00  0.00    -0.086 HD
ATOM     14  H   UNL     1      -4.126 -10.362   4.170  0.00  0.00    -0.086 HD
ENDROOT
BRANCH  11  15
ATOM     15  C   UNL     1       2.318 -10.132   0.014  0.00  0.00    +0.106 A 
ATOM     16  C   UNL     1       3.061  -9.133   0.572  0.00  0.00    +0.147 A 
ATOM     17  O   UNL     1       3.896  -8.662  -0.359  0.00  0.00    -0.359 OA
ATOM     18  N   UNL     1       3.701  -9.369  -1.568  0.00  0.00    -0.077 NA
ATOM     19  C   UNL     1       2.765 -10.264  -1.381  0.00  0.00    +0.126 A 
ATOM     20  C   UNL     1       2.958  -8.645   1.993  0.00  0.00    +0.090 C 
BRANCH  19  21
ATOM     21  C   UNL     1       2.251 -11.227  -2.386  0.00  0.00    +0.004 A 
ATOM     22  C   UNL     1       1.853 -12.503  -1.992  0.00  0.00    +0.010 A 
ATOM     23  C   UNL     1       1.374 -13.394  -2.931  0.00  0.00    +0.001 A 
ATOM     24  C   UNL     1       1.290 -13.023  -4.261  0.00  0.00    +0.000 A 
ATOM     25  C   UNL     1       1.684 -11.758  -4.657  0.00  0.00    +0.001 A 
ATOM     26  C   UNL     1       2.158 -10.856  -3.726  0.00  0.00    +0.010 A 
ENDBRANCH  19  21
ENDBRANCH  11  15
BRANCH   1  28
ATOM     27  N   UNL     1      -1.834  -6.820   2.495  0.00  0.00    -0.305 N 
ATOM     28  C   UNL     1      -1.032  -7.728   1.904  0.00  0.00    +0.219 C 
ATOM     29  O   UNL     1       0.164  -7.698   2.098  0.00  0.00    -0.275 OA
ATOM     30  H   UNL     1      -2.791  -6.844   2.340  0.00  0.00    +0.149 HD
BRANCH  27  31
ATOM     31  C   UNL     1      -1.260  -5.796   3.371  0.00  0.00    +0.136 C 
ATOM     32  C   UNL     1      -0.784  -4.611   2.528  0.00  0.00    +0.036 C 
BRANCH  31  41
ATOM     33  C   UNL     1      -5.384  -3.160   8.977  0.00  0.00    +0.044 C 
ATOM     34  C   UNL     1      -4.973  -3.767   7.660  0.00  0.00    -0.048 A 
ATOM     35  C   UNL     1      -5.943  -4.156   6.748  0.00  0.00    +0.005 A 
ATOM     36  C   UNL     1      -5.591  -4.707   5.549  0.00  0.00    +0.030 A 
ATOM     37  C   UNL     1      -4.241  -4.883   5.232  0.00  0.00    +0.089 A 
ATOM     38  C   UNL     1      -3.258  -4.488   6.156  0.00  0.00    +0.067 A 
ATOM     39  C   UNL     1      -3.635  -3.925   7.368  0.00  0.00    +0.031 A 
ATOM     40  N   UNL     1      -2.044  -4.783   5.569  0.00  0.00    -0.340 N 
ATOM     41  C   UNL     1      -2.306  -5.328   4.350  0.00  0.00    +0.128 A 
ATOM     42  N   UNL     1      -3.590  -5.387   4.153  0.00  0.00    -0.231 NA
ATOM     43  H   UNL     1      -1.167  -4.629   5.954  0.00  0.00    +0.167 HD
ENDBRANCH  31  41
ENDBRANCH  27  31
ENDBRANCH   1  28
TORSDOF 5
