REMARK  Name = ZINC13500579
REMARK  15 active torsions:
REMARK  status: ('A' for Active; 'I' for Inactive)
REMARK    1  A    between atoms: C_1  and  C_2
REMARK    2  A    between atoms: C_2  and  O_3
REMARK    3  A    between atoms: O_3  and  C_4
REMARK    4  A    between atoms: C_11  and  C_16
REMARK    5  A    between atoms: C_16  and  N_70
REMARK    6  A    between atoms: C_17  and  C_18
REMARK    7  A    between atoms: C_17  and  N_70
REMARK    8  A    between atoms: C_18  and  C_19
REMARK    9  A    between atoms: C_19  and  O_20
REMARK   10  A    between atoms: C_21  and  C_23
REMARK   11  A    between atoms: C_21  and  C_33
REMARK   12  A    between atoms: C_21  and  N_70
REMARK   13  A    between atoms: N_27  and  C_28
REMARK   14  A    between atoms: C_33  and  C_34
REMARK   15  A    between atoms: C_33  and  C_35
REMARK                            x       y       z     vdW  Elec       q    Type
REMARK                         _______ _______ _______ _____ _____    ______ ____
ROOT
ATOM      1  N   UNL     1      -2.804   4.430   1.789  0.00  0.00    +0.389 N 
ATOM      2  H   UNL     1      -2.767   3.667   2.476  0.00  0.00    -0.080 HD
ENDROOT
BRANCH   1   3
ATOM      3  C   UNL     1      -2.445   3.895   0.458  0.00  0.00    -0.037 C 
BRANCH   3  11
ATOM      4  C   UNL     1       0.535  -1.491   1.192  0.00  0.00    +0.121 A 
ATOM      5  C   UNL     1       1.820  -0.952   1.189  0.00  0.00    +0.047 A 
ATOM      6  C   UNL     1       2.013   0.404   1.046  0.00  0.00    +0.030 A 
ATOM      7  C   UNL     1       0.918   1.250   0.903  0.00  0.00    +0.049 A 
ATOM      8  C   UNL     1      -0.382   0.710   0.906  0.00  0.00    +0.002 A 
ATOM      9  C   UNL     1      -0.565  -0.669   1.052  0.00  0.00    +0.055 A 
ATOM     10  C   UNL     1      -1.526   1.613   0.761  0.00  0.00    +0.017 A 
ATOM     11  C   UNL     1      -1.290   2.940   0.617  0.00  0.00    +0.001 A 
ATOM     12  C   UNL     1       0.033   3.431   0.621  0.00  0.00    +0.251 A 
ATOM     13  O   UNL     1       0.222   4.629   0.496  0.00  0.00    -0.268 OA
ATOM     14  N   UNL     1       1.089   2.612   0.759  0.00  0.00    -0.322 N 
ATOM     15  H   UNL     1       1.986   2.983   0.757  0.00  0.00    +0.169 HD
BRANCH   4  16
ATOM     16  O   UNL     1       0.364  -2.832   1.334  0.00  0.00    -0.492 OA
BRANCH  16  18
ATOM     17  C   UNL     1       1.155  -5.097   1.622  0.00  0.00    +0.048 C 
ATOM     18  C   UNL     1       1.545  -3.625   1.475  0.00  0.00    +0.225 C 
ENDBRANCH  16  18
ENDBRANCH   4  16
ENDBRANCH   3  11
ENDBRANCH   1   3
BRANCH   1  19
ATOM     19  C   UNL     1      -1.843   5.481   2.186  0.00  0.00    -0.075 C 
BRANCH  19  20
ATOM     20  C   UNL     1      -2.186   5.957   3.599  0.00  0.00    +0.009 C 
BRANCH  20  21
ATOM     21  C   UNL     1      -1.111   6.933   4.083  0.00  0.00    +0.154 C 
BRANCH  21  22
ATOM     22  O   UNL     1      -1.432   7.378   5.403  0.00  0.00    -0.395 OA
ATOM     23  H   UNL     1      -0.792   8.000   5.774  0.00  0.00    +0.209 HD
ENDBRANCH  21  22
ENDBRANCH  20  21
ENDBRANCH  19  20
ENDBRANCH   1  19
BRANCH   1  24
ATOM     24  C   UNL     1      -4.174   4.983   1.759  0.00  0.00    +0.006 C 
BRANCH  24  25
ATOM     25  C   UNL     1      -4.329   5.947   0.611  0.00  0.00    +0.139 A 
ATOM     26  N   UNL     1      -4.054   5.714  -0.649  0.00  0.00    -0.115 NA
ATOM     27  N   UNL     1      -4.319   6.782  -1.319  0.00  0.00    -0.023 NA
ATOM     28  N   UNL     1      -4.757   7.691  -0.518  0.00  0.00    -0.044 NA
ATOM     29  N   UNL     1      -4.782   7.212   0.679  0.00  0.00    -0.228 N 
BRANCH  29  30
ATOM     30  C   UNL     1      -5.219   7.916   1.888  0.00  0.00    +0.111 C 
ATOM     31  C   UNL     1      -6.676   8.396   1.723  0.00  0.00    +0.027 C 
ATOM     32  C   UNL     1      -6.704   9.773   2.433  0.00  0.00    +0.002 C 
ATOM     33  C   UNL     1      -5.328  10.378   2.062  0.00  0.00    +0.002 C 
ATOM     34  C   UNL     1      -4.362   9.175   2.104  0.00  0.00    +0.027 C 
ENDBRANCH  29  30
ENDBRANCH  24  25
BRANCH  24  35
ATOM     35  C   UNL     1      -5.167   3.831   1.595  0.00  0.00    -0.024 C 
ATOM     36  C   UNL     1      -4.999   2.845   2.753  0.00  0.00    +0.006 C 
ATOM     37  C   UNL     1      -6.594   4.384   1.599  0.00  0.00    +0.006 C 
ENDBRANCH  24  35
ENDBRANCH   1  24
TORSDOF 12
