REMARK  Name = ZINC63492732
REMARK  5 active torsions:
REMARK  status: ('A' for Active; 'I' for Inactive)
REMARK    1  A    between atoms: C_1  and  N_2
REMARK    2  A    between atoms: C_3  and  C_12
REMARK    3  A    between atoms: N_8  and  C_11
REMARK    4  A    between atoms: C_12  and  N_13
REMARK    5  A    between atoms: C_14  and  C_16
REMARK                            x       y       z     vdW  Elec       q    Type
REMARK                         _______ _______ _______ _____ _____    ______ ____
ROOT
ATOM      1  N   UNL     1      -1.557   0.075   2.400  0.00  0.00    -0.312 N 
ATOM      2  C   UNL     1      -1.656  -0.028   3.740  0.00  0.00    +0.239 C 
ATOM      3  O   UNL     1      -1.688  -1.121   4.264  0.00  0.00    -0.273 OA
ATOM      4  H   UNL     1      -1.531   0.949   1.981  0.00  0.00    +0.149 HD
ENDROOT
BRANCH   2   5
ATOM      5  C   UNL     1      -1.726   1.216   4.588  0.00  0.00    +0.190 C 
ATOM      6  C   UNL     1      -0.458   2.025   4.433  0.00  0.00    +0.016 C 
ATOM      7  C   UNL     1       0.097   2.092   5.665  0.00  0.00    -0.004 A 
ATOM      8  C   UNL     1       1.319   2.727   6.172  0.00  0.00    +0.010 A 
ATOM      9  C   UNL     1       1.618   2.619   7.487  0.00  0.00    +0.001 A 
ATOM     10  C   UNL     1       0.791   1.918   8.375  0.00  0.00    +0.002 A 
ATOM     11  C   UNL     1      -0.349   1.309   7.984  0.00  0.00    +0.026 A 
ATOM     12  C   UNL     1      -0.760   1.358   6.624  0.00  0.00    +0.043 A 
ATOM     13  N   UNL     1      -1.805   0.856   6.008  0.00  0.00    -0.370 N 
ATOM     14  H   UNL     1      -2.511   0.335   6.422  0.00  0.00    +0.161 HD
ENDBRANCH   2   5
BRANCH   1  15
ATOM     15  C   UNL     1      -1.489  -1.135   1.576  0.00  0.00    +0.127 C 
BRANCH  15  18
ATOM     16  C   UNL     1      -0.006   1.470   0.037  0.00  0.00    +0.134 C 
ATOM     17  N   UNL     1       0.027   0.005   0.033  0.00  0.00    -0.283 N 
ATOM     18  C   UNL     1      -1.227  -0.745   0.120  0.00  0.00    +0.103 C 
ATOM     19  C   UNL     1      -1.126  -2.010  -0.736  0.00  0.00    +0.120 C 
ATOM     20  C   UNL     1       0.186  -2.697  -0.452  0.00  0.00    +0.225 C 
ATOM     21  O   UNL     1       0.256  -3.907  -0.478  0.00  0.00    -0.275 OA
ATOM     22  N   UNL     1       1.280  -1.966  -0.170  0.00  0.00    -0.229 N 
ATOM     23  C   UNL     1       1.207  -0.630  -0.055  0.00  0.00    +0.311 C 
ATOM     24  O   UNL     1       2.234   0.019  -0.025  0.00  0.00    -0.252 OA
ATOM     25  C   UNL     1       2.570  -2.637   0.008  0.00  0.00    +0.142 C 
ENDBRANCH  15  18
ENDBRANCH   1  15
TORSDOF 3
