REMARK  Name = ZINC08740760
REMARK  9 active torsions:
REMARK  status: ('A' for Active; 'I' for Inactive)
REMARK    1  A    between atoms: C_1  and  N_51
REMARK    2  A    between atoms: C_2  and  N_51
REMARK    3  A    between atoms: C_3  and  C_4
REMARK    4  A    between atoms: C_3  and  N_51
REMARK    5  A    between atoms: C_4  and  C_5
REMARK    6  A    between atoms: C_5  and  N_6
REMARK    7  A    between atoms: C_7  and  C_23
REMARK    8  A    between atoms: C_10  and  C_11
REMARK    9  A    between atoms: C_10  and  O_18
REMARK                            x       y       z     vdW  Elec       q    Type
REMARK                         _______ _______ _______ _____ _____    ______ ____
ROOT
ATOM      1  N   UNL     1       0.588  -1.231  -1.059  0.00  0.00    -0.284 N 
ATOM      2  C   UNL     1       0.017  -1.111  -2.403  0.00  0.00    +0.144 C 
ATOM      3  C   UNL     1       1.093  -1.548  -3.371  0.00  0.00    +0.071 C 
ATOM      4  C   UNL     1       1.001  -1.595  -4.747  0.00  0.00    +0.133 C 
ATOM      5  C   UNL     1       2.203  -1.901  -2.587  0.00  0.00    +0.249 C 
ATOM      6  O   UNL     1       3.271  -2.309  -3.005  0.00  0.00    -0.282 OA
ATOM      7  C   UNL     1       1.847  -1.689  -1.158  0.00  0.00    +0.288 C 
ATOM      8  O   UNL     1       2.587  -1.900  -0.218  0.00  0.00    -0.266 OA
ENDROOT
BRANCH   2   9
ATOM      9  C   UNL     1      -1.191  -2.003  -2.533  0.00  0.00    -0.021 A 
ATOM     10  C   UNL     1      -1.179  -3.267  -1.973  0.00  0.00    +0.007 A 
ATOM     11  C   UNL     1      -2.288  -4.084  -2.087  0.00  0.00    +0.022 A 
ATOM     12  C   UNL     1      -3.406  -3.642  -2.771  0.00  0.00    +0.059 A 
ATOM     13  C   UNL     1      -3.416  -2.378  -3.336  0.00  0.00    +0.060 A 
ATOM     14  C   UNL     1      -2.307  -1.559  -3.216  0.00  0.00    +0.027 A 
ATOM     15 CL   UNL     1      -4.818  -1.821  -4.194  0.00  0.00    -0.082 Cl
ATOM     16 CL   UNL     1      -4.796  -4.670  -2.921  0.00  0.00    -0.082 Cl
ENDBRANCH   2   9
BRANCH   4  17
ATOM     17  C   UNL     1       2.191  -1.911  -5.554  0.00  0.00    +0.017 A 
ATOM     18  C   UNL     1       3.382  -1.205  -5.356  0.00  0.00    +0.014 A 
ATOM     19  C   UNL     1       4.494  -1.509  -6.110  0.00  0.00    +0.039 A 
ATOM     20  C   UNL     1       4.431  -2.505  -7.073  0.00  0.00    +0.123 A 
ATOM     21  C   UNL     1       3.251  -3.205  -7.279  0.00  0.00    +0.039 A 
ATOM     22  C   UNL     1       2.134  -2.915  -6.527  0.00  0.00    +0.014 A 
ATOM     23  F   UNL     1       5.523  -2.795  -7.814  0.00  0.00    -0.205 F 
ENDBRANCH   4  17
BRANCH   4  24
ATOM     24  O   UNL     1      -0.181  -1.351  -5.354  0.00  0.00    -0.506 OA
ATOM     25  H   UNL     1      -0.068  -1.426  -6.345  0.00  0.00    +0.292 HD
ENDBRANCH   4  24
BRANCH   1  26
ATOM     26  C   UNL     1      -0.105  -0.910   0.192  0.00  0.00    +0.107 C 
BRANCH  26  27
ATOM     27  C   UNL     1       0.140   0.558   0.548  0.00  0.00    +0.000 C 
BRANCH  27  28
ATOM     28  C   UNL     1      -0.584   0.893   1.854  0.00  0.00    -0.078 C 
BRANCH  28  31
ATOM     29  C   UNL     1      -0.973   3.195   1.211  0.00  0.00    -0.097 C 
ATOM     30  C   UNL     1      -0.824   2.601   3.553  0.00  0.00    -0.097 C 
ATOM     31  N   UNL     1      -0.320   2.307   2.195  0.00  0.00    +0.376 N 
ATOM     32  H   UNL     1       0.693   2.472   2.172  0.00  0.00    -0.083 HD
ENDBRANCH  28  31
ENDBRANCH  27  28
ENDBRANCH  26  27
ENDBRANCH   1  26
TORSDOF 7
