REMARK  Name = ZINC58213738
REMARK  8 active torsions:
REMARK  status: ('A' for Active; 'I' for Inactive)
REMARK    1  A    between atoms: C_1  and  C_2
REMARK    2  A    between atoms: C_2  and  C_4
REMARK    3  A    between atoms: C_2  and  N_14
REMARK    4  A    between atoms: C_4  and  C_5
REMARK    5  A    between atoms: C_5  and  C_6
REMARK    6  A    between atoms: C_5  and  C_7
REMARK    7  A    between atoms: C_5  and  C_8
REMARK    8  A    between atoms: C_20  and  C_23
REMARK                            x       y       z     vdW  Elec       q    Type
REMARK                         _______ _______ _______ _____ _____    ______ ____
ROOT
ATOM      1  N   UNL     1       1.163  -0.341  -1.004  0.00  0.00    -0.297 N 
ATOM      2  C   UNL     1       0.548  -0.225  -2.198  0.00  0.00    +0.302 C 
ATOM      3  O   UNL     1      -0.574   0.240  -2.260  0.00  0.00    -0.253 OA
ATOM      4  N   UNL     1       1.176  -0.624  -3.321  0.00  0.00    -0.286 N 
ATOM      5  C   UNL     1       2.481  -1.294  -3.252  0.00  0.00    +0.110 C 
ATOM      6  C   UNL     1       3.468  -0.548  -4.155  0.00  0.00    +0.032 C 
ATOM      7  C   UNL     1       2.886  -0.450  -5.568  0.00  0.00    +0.078 C 
ATOM      8  C   UNL     1       1.575   0.339  -5.528  0.00  0.00    +0.032 C 
ATOM      9  C   UNL     1       0.565  -0.403  -4.639  0.00  0.00    +0.110 C 
ATOM     10  H   UNL     1       2.027  -0.779  -0.945  0.00  0.00    +0.151 HD
ENDROOT
BRANCH   7  11
ATOM     11  C   UNL     1       3.868   0.254  -6.468  0.00  0.00    +0.214 C 
ATOM     12  O   UNL     1       4.929   0.639  -6.024  0.00  0.00    -0.276 OA
ATOM     13  N   UNL     1       3.568   0.455  -7.766  0.00  0.00    -0.329 N 
ATOM     14  H   UNL     1       2.720   0.146  -8.121  0.00  0.00    +0.145 HD
ATOM     15  H   UNL     1       4.201   0.908  -8.346  0.00  0.00    +0.145 HD
ENDBRANCH   7  11
BRANCH   1  17
ATOM     16  C   UNL     1       0.864   1.680   0.340  0.00  0.00    +0.028 C 
ATOM     17  C   UNL     1       0.528   0.194   0.203  0.00  0.00    +0.072 C 
BRANCH  17  18
ATOM     18  C   UNL     1       1.046  -0.561   1.429  0.00  0.00    +0.033 C 
BRANCH  18  19
ATOM     19  C   UNL     1       0.575  -2.016   1.369  0.00  0.00    -0.008 C 
ATOM     20  C   UNL     1      -0.945  -2.053   1.200  0.00  0.00    +0.016 C 
ATOM     21  C   UNL     1       1.237  -2.717   0.181  0.00  0.00    +0.016 C 
BRANCH  19  22
ATOM     22  C   UNL     1       0.956  -2.720   2.645  0.00  0.00    -0.042 A 
ATOM     23  C   UNL     1       1.624  -2.033   3.641  0.00  0.00    +0.004 A 
ATOM     24  C   UNL     1       1.974  -2.679   4.812  0.00  0.00    +0.000 A 
ATOM     25  C   UNL     1       1.655  -4.013   4.987  0.00  0.00    +0.000 A 
ATOM     26  C   UNL     1       0.987  -4.700   3.991  0.00  0.00    +0.000 A 
ATOM     27  C   UNL     1       0.633  -4.053   2.822  0.00  0.00    +0.004 A 
ENDBRANCH  19  22
ENDBRANCH  18  19
ENDBRANCH  17  18
ENDBRANCH   1  17
TORSDOF 5
