REMARK  Name = ZINC59146928
REMARK  7 active torsions:
REMARK  status: ('A' for Active; 'I' for Inactive)
REMARK    1  A    between atoms: C_10  and  C_11
REMARK    2  A    between atoms: C_11  and  C_12
REMARK    3  A    between atoms: N_14  and  N_15
REMARK    4  A    between atoms: C_16  and  C_17
REMARK    5  A    between atoms: C_18  and  O_25
REMARK    6  A    between atoms: C_20  and  O_24
REMARK    7  A    between atoms: C_22  and  O_23
REMARK                            x       y       z     vdW  Elec       q    Type
REMARK                         _______ _______ _______ _____ _____    ______ ____
ROOT
ATOM      1  C   UNL     1       5.341   0.519   1.367  0.00  0.00    +0.237 C 
ATOM      2  O   UNL     1       4.633   0.178   2.292  0.00  0.00    -0.274 OA
ATOM      3  N   UNL     1       6.469   1.218   1.605  0.00  0.00    -0.207 N 
ATOM      4  H   UNL     1       7.035   1.490   0.866  0.00  0.00    +0.177 HD
ENDROOT
BRANCH   3   5
ATOM      5  N   UNL     1       6.823   1.550   2.919  0.00  0.00    -0.187 NA
ATOM      6  C   UNL     1       7.910   2.224   3.148  0.00  0.00    +0.145 C 
BRANCH   6   7
ATOM      7  C   UNL     1       8.282   2.573   4.528  0.00  0.00    +0.078 A 
ATOM      8  C   UNL     1       7.469   2.176   5.599  0.00  0.00    +0.132 A 
ATOM      9  C   UNL     1       7.826   2.508   6.894  0.00  0.00    +0.091 A 
ATOM     10  C   UNL     1       8.985   3.233   7.134  0.00  0.00    +0.124 A 
ATOM     11  C   UNL     1       9.795   3.630   6.079  0.00  0.00    +0.091 A 
ATOM     12  C   UNL     1       9.455   3.300   4.779  0.00  0.00    +0.132 A 
BRANCH  12  13
ATOM     13  O   UNL     1      10.251   3.685   3.748  0.00  0.00    -0.506 OA
ATOM     14  H   UNL     1      10.028   4.551   3.381  0.00  0.00    +0.292 HD
ENDBRANCH  12  13
BRANCH  10  15
ATOM     15  O   UNL     1       9.329   3.556   8.408  0.00  0.00    -0.507 OA
ATOM     16  H   UNL     1       9.885   2.896   8.845  0.00  0.00    +0.292 HD
ENDBRANCH  10  15
BRANCH   8  17
ATOM     17  O   UNL     1       6.334   1.468   5.366  0.00  0.00    -0.506 OA
ATOM     18  H   UNL     1       6.462   0.509   5.366  0.00  0.00    +0.292 HD
ENDBRANCH   8  17
ENDBRANCH   6   7
ENDBRANCH   3   5
BRANCH   1  19
ATOM     19  C   UNL     1       4.960   0.161  -0.046  0.00  0.00    +0.133 C 
BRANCH  19  29
ATOM     20  C   UNL     1      -0.016   1.357   0.009  0.00  0.00    +0.001 A 
ATOM     21  C   UNL     1       1.169   2.091   0.002  0.00  0.00    +0.001 A 
ATOM     22  C   UNL     1       2.378   1.468  -0.013  0.00  0.00    +0.009 A 
ATOM     23  C   UNL     1       2.438   0.064  -0.021  0.00  0.00    -0.014 A 
ATOM     24  C   UNL     1       1.233  -0.683  -0.013  0.00  0.00    -0.018 A 
ATOM     25  C   UNL     1       0.002  -0.004   0.002  0.00  0.00    +0.008 A 
ATOM     26  C   UNL     1       1.292  -2.087  -0.021  0.00  0.00    +0.008 A 
ATOM     27  C   UNL     1       2.502  -2.709  -0.036  0.00  0.00    +0.001 A 
ATOM     28  C   UNL     1       3.687  -1.976  -0.043  0.00  0.00    +0.005 A 
ATOM     29  C   UNL     1       3.668  -0.615  -0.037  0.00  0.00    -0.031 A 
ENDBRANCH  19  29
ENDBRANCH   1  19
TORSDOF 7
