REMARK  Name = ZINC63908207
REMARK  2 active torsions:
REMARK  status: ('A' for Active; 'I' for Inactive)
REMARK    1  A    between atoms: C_12  and  C_13
REMARK    2  A    between atoms: N_15  and  C_16
REMARK                            x       y       z     vdW  Elec       q    Type
REMARK                         _______ _______ _______ _____ _____    ______ ____
ROOT
ATOM      1  C   UNL     1      -1.275  -0.751   0.015  0.00  0.00    +0.248 C 
ATOM      2  O   UNL     1      -1.269  -1.967   0.005  0.00  0.00    -0.270 OA
ATOM      3  N   UNL     1      -2.446  -0.084   0.025  0.00  0.00    -0.280 N 
ATOM      4  H   UNL     1      -2.452   0.884   0.100  0.00  0.00    +0.155 HD
ENDROOT
BRANCH   1  16
ATOM      5  C   UNL     1      -0.017   1.456   0.031  0.00  0.00    +0.015 A 
ATOM      6  C   UNL     1       1.119   2.183   0.033  0.00  0.00    +0.026 A 
ATOM      7  C   UNL     1       2.383   1.544   0.023  0.00  0.00    +0.055 A 
ATOM      8  N   UNL     1       3.494   2.255   0.026  0.00  0.00    -0.276 N 
ATOM      9  C   UNL     1       4.690   1.636   0.017  0.00  0.00    +0.304 C 
ATOM     10  O   UNL     1       5.715   2.287   0.019  0.00  0.00    -0.265 OA
ATOM     11  C   UNL     1       4.747   0.141   0.003  0.00  0.00    +0.304 C 
ATOM     12  O   UNL     1       5.817  -0.430  -0.005  0.00  0.00    -0.265 OA
ATOM     13  N   UNL     1       3.596  -0.567   0.001  0.00  0.00    -0.276 N 
ATOM     14  C   UNL     1       2.440   0.060   0.010  0.00  0.00    +0.056 A 
ATOM     15  C   UNL     1       1.183  -0.691   0.008  0.00  0.00    +0.038 A 
ATOM     16  C   UNL     1       0.002  -0.005   0.018  0.00  0.00    +0.039 A 
ATOM     17  H   UNL     1       3.623  -1.537  -0.008  0.00  0.00    +0.155 HD
ATOM     18  H   UNL     1       3.450   3.224   0.034  0.00  0.00    +0.155 HD
ENDBRANCH   1  16
BRANCH   3  19
ATOM     19  C   UNL     1      -3.652  -0.785  -0.073  0.00  0.00    +0.051 A 
ATOM     20  C   UNL     1      -3.777  -2.038   0.513  0.00  0.00    +0.073 A 
ATOM     21  C   UNL     1      -4.972  -2.732   0.418  0.00  0.00    +0.164 A 
ATOM     22  C   UNL     1      -6.047  -2.172  -0.265  0.00  0.00    +0.163 A 
ATOM     23  C   UNL     1      -5.919  -0.921  -0.851  0.00  0.00    +0.066 A 
ATOM     24  C   UNL     1      -4.729  -0.226  -0.752  0.00  0.00    +0.043 A 
ATOM     25 BR   UNL     1      -4.562   1.482  -1.545  0.00  0.00    -0.048 Br
ATOM     26  O   UNL     1      -7.232  -2.836  -0.363  0.00  0.00    -0.485 OA
ATOM     27  C   UNL     1      -7.207  -4.241  -0.086  0.00  0.00    +0.270 C 
ATOM     28  C   UNL     1      -6.402  -4.463   1.201  0.00  0.00    +0.270 C 
ATOM     29  O   UNL     1      -5.078  -3.961   0.994  0.00  0.00    -0.485 OA
ENDBRANCH   3  19
TORSDOF 2
