REMARK  Name = ZINC09925966
REMARK  13 active torsions:
REMARK  status: ('A' for Active; 'I' for Inactive)
REMARK    1  A    between atoms: C_1  and  C_2
REMARK    2  A    between atoms: C_4  and  C_31
REMARK    3  A    between atoms: C_6  and  C_30
REMARK    4  A    between atoms: C_7  and  C_8
REMARK    5  A    between atoms: C_8  and  C_10
REMARK    6  A    between atoms: C_10  and  C_11
REMARK    7  A    between atoms: C_11  and  O_29
REMARK    8  A    between atoms: N_18  and  C_21
REMARK    9  A    between atoms: C_21  and  N_72
REMARK   10  A    between atoms: C_26  and  C_28
REMARK   11  A    between atoms: C_31  and  C_32
REMARK   12  A    between atoms: C_31  and  C_33
REMARK   13  A    between atoms: C_31  and  C_34
REMARK                            x       y       z     vdW  Elec       q    Type
REMARK                         _______ _______ _______ _____ _____    ______ ____
ROOT
ATOM      1  C   UNL     1      -2.502   3.741   1.225  0.00  0.00    +0.175 C 
ATOM      2  C   UNL     1      -1.025   3.425   1.197  0.00  0.00    +0.014 A 
ATOM      3  C   UNL     1       0.098   4.173   1.472  0.00  0.00    +0.009 A 
ATOM      4  C   UNL     1       1.353   3.601   1.358  0.00  0.00    +0.000 A 
ATOM      5  C   UNL     1       1.474   2.280   0.967  0.00  0.00    +0.002 A 
ATOM      6  C   UNL     1       0.351   1.528   0.690  0.00  0.00    +0.024 A 
ATOM      7  C   UNL     1      -0.916   2.099   0.798  0.00  0.00    +0.041 A 
ATOM      8  N   UNL     1      -2.182   1.558   0.572  0.00  0.00    -0.285 N 
ATOM      9  C   UNL     1      -3.163   2.450   0.790  0.00  0.00    +0.255 C 
ATOM     10  O   UNL     1      -4.354   2.254   0.672  0.00  0.00    -0.272 OA
ENDROOT
BRANCH   1  11
ATOM     11  O   UNL     1      -2.911   4.108   2.544  0.00  0.00    -0.374 OA
ATOM     12  H   UNL     1      -3.851   4.321   2.619  0.00  0.00    +0.211 HD
ENDBRANCH   1  11
BRANCH   1  13
ATOM     13  C   UNL     1      -2.831   4.856   0.230  0.00  0.00    +0.129 C 
BRANCH  13  14
ATOM     14  C   UNL     1      -4.308   5.152   0.277  0.00  0.00    +0.167 C 
ATOM     15  O   UNL     1      -5.022   4.550   1.050  0.00  0.00    -0.292 OA
BRANCH  14  22
ATOM     16  C   UNL     1      -5.440   4.351  -2.263  0.00  0.00    +0.044 C 
ATOM     17  C   UNL     1      -5.433   5.799  -1.845  0.00  0.00    -0.039 A 
ATOM     18  C   UNL     1      -5.974   6.759  -2.674  0.00  0.00    +0.008 A 
ATOM     19  C   UNL     1      -5.964   8.090  -2.295  0.00  0.00    -0.041 A 
ATOM     20  C   UNL     1      -5.416   8.468  -1.081  0.00  0.00    +0.008 A 
ATOM     21  C   UNL     1      -4.876   7.518  -0.239  0.00  0.00    -0.039 A 
ATOM     22  C   UNL     1      -4.883   6.171  -0.615  0.00  0.00    +0.023 A 
ATOM     23  C   UNL     1      -4.281   7.931   1.082  0.00  0.00    +0.044 C 
BRANCH  19  24
ATOM     24  C   UNL     1      -6.552   9.134  -3.209  0.00  0.00    -0.013 C 
ATOM     25  C   UNL     1      -5.471  10.148  -3.588  0.00  0.00    +0.015 C 
ATOM     26  C   UNL     1      -7.086   8.461  -4.475  0.00  0.00    +0.015 C 
ATOM     27  C   UNL     1      -7.697   9.853  -2.492  0.00  0.00    +0.015 C 
ENDBRANCH  19  24
ENDBRANCH  14  22
ENDBRANCH  13  14
ENDBRANCH   1  13
BRANCH   8  28
ATOM     28  C   UNL     1      -2.415   0.176   0.144  0.00  0.00    +0.039 C 
BRANCH  28  35
ATOM     29  C   UNL     1      -3.935  -0.649   1.837  0.00  0.00    -0.076 C 
ATOM     30  C   UNL     1      -4.014  -1.438   3.146  0.00  0.00    -0.019 C 
ATOM     31  C   UNL     1      -3.582  -2.884   2.892  0.00  0.00    -0.003 C 
ATOM     32  C   UNL     1      -2.164  -2.891   2.314  0.00  0.00    -0.016 C 
ATOM     33  C   UNL     1      -2.139  -2.060   1.029  0.00  0.00    -0.070 C 
ATOM     34  C   UNL     1      -0.719  -2.047   0.459  0.00  0.00    -0.013 C 
ATOM     35  N   UNL     1      -2.541  -0.673   1.346  0.00  0.00    +0.392 N 
ATOM     36  H   UNL     1      -1.923  -0.307   2.079  0.00  0.00    -0.079 HD
ENDBRANCH  28  35
ENDBRANCH   8  28
TORSDOF 7
