REMARK  Name = ZINC08790784
REMARK  6 active torsions:
REMARK  status: ('A' for Active; 'I' for Inactive)
REMARK    1  A    between atoms: C_4  and  C_7
REMARK    2  A    between atoms: C_7  and  C_8
REMARK    3  A    between atoms: C_8  and  N_9
REMARK    4  A    between atoms: C_14  and  C_31
REMARK    5  A    between atoms: C_31  and  C_32
REMARK    6  A    between atoms: C_32  and  C_33
REMARK                            x       y       z     vdW  Elec       q    Type
REMARK                         _______ _______ _______ _____ _____    ______ ____
ROOT
ATOM      1  N   UNL     1       5.116   4.232   2.259  0.00  0.00    -0.241 N 
ATOM      2  C   UNL     1       6.128   3.942   1.434  0.00  0.00    +0.224 C 
ATOM      3  O   UNL     1       7.151   4.583   1.327  0.00  0.00    -0.275 OA
ATOM      4  C   UNL     1       5.801   2.672   0.650  0.00  0.00    +0.073 C 
ATOM      5  C   UNL     1       5.572   3.034  -0.833  0.00  0.00    -0.057 C 
ATOM      6  C   UNL     1       3.463   2.440  -0.021  0.00  0.00    +0.050 C 
ATOM      7  C   UNL     1       4.393   2.294   1.189  0.00  0.00    +0.088 C 
ATOM      8  C   UNL     1       4.090   3.375   2.202  0.00  0.00    +0.225 C 
ATOM      9  O   UNL     1       3.074   3.453   2.860  0.00  0.00    -0.275 OA
ATOM     10  C   UNL     1       2.382   1.395  -0.015  0.00  0.00    -0.026 A 
ATOM     11  C   UNL     1       2.396   0.018  -0.021  0.00  0.00    +0.004 A 
ATOM     12  C   UNL     1       1.205  -0.686  -0.013  0.00  0.00    +0.002 A 
ATOM     13  C   UNL     1       0.002  -0.004   0.002  0.00  0.00    +0.022 A 
ATOM     14  C   UNL     1      -0.017   1.376   0.010  0.00  0.00    +0.062 A 
ATOM     15  C   UNL     1       1.179   2.093   0.002  0.00  0.00    +0.054 A 
ATOM     16  N   UNL     1       1.418   3.470   0.010  0.00  0.00    -0.285 N 
ATOM     17  C   UNL     1       2.735   3.756  -0.001  0.00  0.00    +0.211 C 
ATOM     18  O   UNL     1       3.235   4.860   0.005  0.00  0.00    -0.277 OA
ATOM     19 CL   UNL     1      -1.533   2.221   0.021  0.00  0.00    -0.082 Cl
ATOM     20  H   UNL     1       0.718   4.141   0.021  0.00  0.00    +0.155 HD
ATOM     21  N   UNL     1       4.332   2.336  -1.180  0.00  0.00    +0.394 N 
ATOM     22  H   UNL     1       4.527   1.350  -1.390  0.00  0.00    -0.083 HD
ATOM     23  H   UNL     1       3.891   2.778  -1.995  0.00  0.00    -0.083 HD
ENDROOT
BRANCH   1  24
ATOM     24  C   UNL     1       5.130   5.392   3.153  0.00  0.00    +0.121 C 
BRANCH  24  25
ATOM     25  C   UNL     1       5.747   4.995   4.495  0.00  0.00    +0.054 C 
BRANCH  25  29
ATOM     26  C   UNL     1       5.788   8.379   7.102  0.00  0.00    +0.000 A 
ATOM     27  C   UNL     1       4.697   7.530   7.088  0.00  0.00    +0.000 A 
ATOM     28  C   UNL     1       4.684   6.435   6.245  0.00  0.00    +0.004 A 
ATOM     29  C   UNL     1       5.761   6.189   5.415  0.00  0.00    -0.046 A 
ATOM     30  C   UNL     1       6.854   7.035   5.432  0.00  0.00    +0.004 A 
ATOM     31  C   UNL     1       6.866   8.133   6.272  0.00  0.00    +0.000 A 
ENDBRANCH  25  29
ENDBRANCH  24  25
ENDBRANCH   1  24
BRANCH   5  32
ATOM     32  C   UNL     1       6.746   2.551  -1.687  0.00  0.00    -0.004 C 
BRANCH  32  33
ATOM     33  C   UNL     1       6.558   3.028  -3.128  0.00  0.00    +0.123 C 
BRANCH  33  34
ATOM     34  C   UNL     1       7.715   2.552  -3.969  0.00  0.00    +0.356 C 
ATOM     35  O   UNL     1       8.598   1.899  -3.467  0.00  0.00    -0.246 OA
ATOM     36  O   UNL     1       7.763   2.855  -5.276  0.00  0.00    -0.246 OA
ENDBRANCH  33  34
ENDBRANCH  32  33
ENDBRANCH   5  32
TORSDOF 6
