REMARK  Name = ZINC13879852
REMARK  4 active torsions:
REMARK  status: ('A' for Active; 'I' for Inactive)
REMARK    1  A    between atoms: C_1  and  N_2
REMARK    2  A    between atoms: C_6  and  C_20
REMARK    3  A    between atoms: N_10  and  C_11
REMARK    4  A    between atoms: N_22  and  C_23
REMARK                            x       y       z     vdW  Elec       q    Type
REMARK                         _______ _______ _______ _____ _____    ______ ____
ROOT
ATOM      1  C   UNL     1      -2.545  12.262  -0.194  0.00  0.00    +0.140 C 
ATOM      2  N   UNL     1      -2.191  10.848  -0.044  0.00  0.00    -0.254 N 
ATOM      3  C   UNL     1      -2.651   9.993  -0.948  0.00  0.00    +0.223 C 
ATOM      4  O   UNL     1      -3.265  10.469  -1.878  0.00  0.00    -0.275 OA
ATOM      5  C   UNL     1      -2.496   8.508  -0.946  0.00  0.00    +0.120 C 
ATOM      6  C   UNL     1      -1.265   8.060  -0.158  0.00  0.00    +0.149 C 
ATOM      7  S   UNL     1      -1.342   8.788   1.504  0.00  0.00    -0.077 S 
ATOM      8  C   UNL     1      -1.400  10.491   1.030  0.00  0.00    +0.164 C 
ATOM      9  N   UNL     1      -0.704  11.391   1.682  0.00  0.00    -0.226 NA
ENDROOT
BRANCH   9  10
ATOM     10  C   UNL     1       0.076  11.017   2.745  0.00  0.00    +0.070 A 
ATOM     11  C   UNL     1      -0.430  10.146   3.712  0.00  0.00    +0.031 A 
ATOM     12  C   UNL     1       0.358   9.766   4.779  0.00  0.00    +0.051 A 
ATOM     13  C   UNL     1       1.650  10.256   4.901  0.00  0.00    +0.166 A 
ATOM     14  C   UNL     1       2.159  11.131   3.943  0.00  0.00    +0.168 A 
ATOM     15  C   UNL     1       1.375  11.511   2.868  0.00  0.00    +0.077 A 
ATOM     16  O   UNL     1       3.437  11.463   4.291  0.00  0.00    -0.453 OA
ATOM     17  C   UNL     1       3.562  11.109   5.681  0.00  0.00    +0.466 C 
ATOM     18  O   UNL     1       2.611  10.041   5.849  0.00  0.00    -0.453 OA
ENDBRANCH   9  10
BRANCH   6  19
ATOM     19  C   UNL     1      -1.251   6.557  -0.053  0.00  0.00    +0.231 C 
ATOM     20  O   UNL     1      -2.295   5.940  -0.046  0.00  0.00    -0.274 OA
ATOM     21  N   UNL     1      -0.078   5.898   0.034  0.00  0.00    -0.285 N 
ATOM     22  H   UNL     1       0.753   6.394   0.106  0.00  0.00    +0.155 HD
BRANCH  21  23
ATOM     23  C   UNL     1      -0.059   4.499   0.021  0.00  0.00    +0.034 A 
ATOM     24  C   UNL     1      -0.998   3.797  -0.724  0.00  0.00    +0.025 A 
ATOM     25  C   UNL     1      -0.976   2.417  -0.736  0.00  0.00    +0.022 A 
ATOM     26  C   UNL     1      -0.020   1.732  -0.006  0.00  0.00    +0.041 A 
ATOM     27  C   UNL     1       0.913   2.429   0.741  0.00  0.00    +0.022 A 
ATOM     28  C   UNL     1       0.900   3.809   0.751  0.00  0.00    +0.025 A 
ATOM     29 CL   UNL     1       0.004  -0.004  -0.023  0.00  0.00    -0.084 Cl
ENDBRANCH  21  23
ENDBRANCH   6  19
TORSDOF 3
