REMARK  Name = ZINC47204620
REMARK  2 active torsions:
REMARK  status: ('A' for Active; 'I' for Inactive)
REMARK    1  A    between atoms: C_6  and  C_7
REMARK    2  A    between atoms: C_9  and  N_14
REMARK                            x       y       z     vdW  Elec       q    Type
REMARK                         _______ _______ _______ _____ _____    ______ ____
ROOT
ATOM      1  C   UNL     1      -1.272  -0.766   0.011  0.00  0.00    +0.000 A 
ATOM      2  C   UNL     1      -1.607  -1.574   1.119  0.00  0.00    +0.048 A 
ATOM      3  C   UNL     1      -2.781  -2.263   1.105  0.00  0.00    +0.191 A 
ATOM      4  C   UNL     1      -3.633  -2.157  -0.009  0.00  0.00    +0.279 A 
ATOM      5  N   UNL     1      -3.290  -1.380  -1.053  0.00  0.00    -0.327 N 
ATOM      6  C   UNL     1      -2.127  -0.684  -1.050  0.00  0.00    +0.094 A 
ATOM      7  O   UNL     1      -4.687  -2.772  -0.029  0.00  0.00    -0.265 OA
ATOM      8  H   UNL     1      -3.885  -1.314  -1.816  0.00  0.00    +0.168 HD
ENDROOT
BRANCH   1  14
ATOM      9  C   UNL     1      -0.017   1.389   0.010  0.00  0.00    +0.011 A 
ATOM     10  C   UNL     1       1.170   2.093   0.002  0.00  0.00    +0.039 A 
ATOM     11  C   UNL     1       2.379   1.417  -0.013  0.00  0.00    +0.123 A 
ATOM     12  C   UNL     1       2.402   0.032  -0.021  0.00  0.00    +0.039 A 
ATOM     13  C   UNL     1       1.220  -0.680  -0.014  0.00  0.00    +0.011 A 
ATOM     14  C   UNL     1       0.002  -0.004   0.002  0.00  0.00    -0.016 A 
ATOM     15  F   UNL     1       3.538   2.110  -0.021  0.00  0.00    -0.205 F 
ENDBRANCH   1  14
BRANCH   3  16
ATOM     16  N   UNL     1      -3.158  -3.118   2.254  0.00  0.00    +0.062 N 
ATOM     17  O   UNL     1      -2.421  -3.207   3.208  0.00  0.00    -0.126 OA
ATOM     18  O   UNL     1      -4.201  -3.729   2.236  0.00  0.00    -0.126 OA
ENDBRANCH   3  16
TORSDOF 2
