REMARK  Name = ZINC16910475
REMARK  7 active torsions:
REMARK  status: ('A' for Active; 'I' for Inactive)
REMARK    1  A    between atoms: C_1  and  C_2
REMARK    2  A    between atoms: C_2  and  C_4
REMARK    3  A    between atoms: C_2  and  O_7
REMARK    4  A    between atoms: O_7  and  C_8
REMARK    5  A    between atoms: C_13  and  C_14
REMARK    6  A    between atoms: N_18  and  N_22
REMARK    7  A    between atoms: C_23  and  C_25
REMARK                            x       y       z     vdW  Elec       q    Type
REMARK                         _______ _______ _______ _____ _____    ______ ____
ROOT
ATOM      1  C   UNL     1      -4.322   5.528   3.762  0.00  0.00    +0.032 C 
ATOM      2  C   UNL     1      -3.032   5.336   3.385  0.00  0.00    +0.079 C 
ATOM      3  C   UNL     1      -2.431   5.367   2.037  0.00  0.00    +0.275 C 
ATOM      4  O   UNL     1      -3.099   5.590   1.044  0.00  0.00    -0.267 OA
ATOM      5  N   UNL     1      -1.131   5.138   1.962  0.00  0.00    -0.170 N 
ATOM      6  C   UNL     1      -0.393   4.897   3.065  0.00  0.00    +0.138 C 
ATOM      7  S   UNL     1       1.287   4.588   3.173  0.00  0.00    -0.026 S 
ATOM      8  S   UNL     1      -1.593   4.981   4.384  0.00  0.00    -0.059 S 
ENDROOT
BRANCH   1  14
ATOM      9  C   UNL     1      -6.365   6.635   2.866  0.00  0.00    +0.129 A 
ATOM     10  C   UNL     1      -7.353   6.737   1.899  0.00  0.00    +0.046 A 
ATOM     11  C   UNL     1      -7.362   5.870   0.823  0.00  0.00    +0.004 A 
ATOM     12  C   UNL     1      -6.387   4.894   0.700  0.00  0.00    +0.001 A 
ATOM     13  C   UNL     1      -5.393   4.780   1.647  0.00  0.00    +0.011 A 
ATOM     14  C   UNL     1      -5.374   5.647   2.745  0.00  0.00    +0.018 A 
BRANCH   9  15
ATOM     15  O   UNL     1      -6.355   7.485   3.924  0.00  0.00    -0.477 OA
BRANCH  15  17
ATOM     16  C   UNL     1      -8.656   8.009   4.445  0.00  0.00    +0.064 C 
ATOM     17  C   UNL     1      -7.321   8.539   3.918  0.00  0.00    +0.282 C 
BRANCH  17  18
ATOM     18  C   UNL     1      -6.843   9.663   4.800  0.00  0.00    +0.395 C 
ATOM     19  O   UNL     1      -5.784   9.572   5.374  0.00  0.00    -0.242 OA
ATOM     20  O   UNL     1      -7.593  10.766   4.947  0.00  0.00    -0.242 OA
ENDBRANCH  17  18
ENDBRANCH  15  17
ENDBRANCH   9  15
ENDBRANCH   1  14
BRANCH   5  21
ATOM     21  N   UNL     1      -0.504   5.150   0.709  0.00  0.00    -0.226 N 
ATOM     22  C   UNL     1      -0.136   3.991   0.128  0.00  0.00    +0.233 C 
ATOM     23  O   UNL     1      -0.346   2.937   0.691  0.00  0.00    -0.274 OA
ATOM     24  H   UNL     1      -0.314   6.106   0.198  0.00  0.00    +0.173 HD
BRANCH  22  25
ATOM     25  C   UNL     1       0.538   4.004  -1.220  0.00  0.00    +0.076 C 
ATOM     26  C   UNL     1       1.839   4.804  -1.132  0.00  0.00    +0.013 C 
ATOM     27  C   UNL     1       2.523   4.817  -2.500  0.00  0.00    +0.001 C 
ATOM     28  C   UNL     1       2.835   3.382  -2.929  0.00  0.00    +0.000 C 
ATOM     29  C   UNL     1       1.534   2.582  -3.017  0.00  0.00    +0.001 C 
ATOM     30  C   UNL     1       0.850   2.569  -1.648  0.00  0.00    +0.013 C 
ENDBRANCH  22  25
ENDBRANCH   5  21
TORSDOF 6
