REMARK  Name = ZINC25588781
REMARK  10 active torsions:
REMARK  status: ('A' for Active; 'I' for Inactive)
REMARK    1  A    between atoms: C_1  and  C_2
REMARK    2  A    between atoms: C_2  and  C_3
REMARK    3  A    between atoms: C_4  and  C_22
REMARK    4  A    between atoms: C_5  and  N_21
REMARK    5  A    between atoms: C_7  and  S_9
REMARK    6  A    between atoms: S_9  and  C_10
REMARK    7  A    between atoms: C_10  and  C_11
REMARK    8  A    between atoms: C_11  and  C_13
REMARK    9  A    between atoms: C_16  and  O_20
REMARK   10  A    between atoms: C_17  and  O_19
REMARK                            x       y       z     vdW  Elec       q    Type
REMARK                         _______ _______ _______ _____ _____    ______ ____
ROOT
ATOM      1  C   UNL     1      -8.828   2.765   0.101  0.00  0.00    +0.055 A 
ATOM      2  C   UNL     1      -8.608   1.389   0.091  0.00  0.00    +0.043 A 
ATOM      3  C   UNL     1      -7.279   0.926   0.076  0.00  0.00    +0.129 A 
ATOM      4  N   UNL     1      -6.292   1.813   0.067  0.00  0.00    -0.207 NA
ATOM      5  C   UNL     1      -6.548   3.114   0.082  0.00  0.00    +0.191 A 
ATOM      6  N   UNL     1      -7.788   3.583   0.096  0.00  0.00    -0.226 NA
ENDROOT
BRANCH   2   7
ATOM      7  C   UNL     1      -9.745   0.437   0.097  0.00  0.00    -0.013 A 
ATOM      8  C   UNL     1     -10.595   0.369   1.200  0.00  0.00    +0.010 A 
ATOM      9  C   UNL     1     -11.654  -0.515   1.198  0.00  0.00    +0.020 A 
ATOM     10  C   UNL     1     -11.869  -1.340   0.108  0.00  0.00    +0.041 A 
ATOM     11  C   UNL     1     -11.025  -1.280  -0.988  0.00  0.00    +0.020 A 
ATOM     12  C   UNL     1      -9.965  -0.396  -0.999  0.00  0.00    +0.010 A 
ATOM     13 CL   UNL     1     -13.200  -2.454   0.114  0.00  0.00    -0.084 Cl
ENDBRANCH   2   7
BRANCH   3  14
ATOM     14  N   UNL     1      -7.007  -0.430   0.066  0.00  0.00    -0.343 N 
ATOM     15  H   UNL     1      -5.965  -0.782   0.054  0.00  0.00    +0.144 HD
ATOM     16  H   UNL     1      -7.833  -1.157   0.070  0.00  0.00    +0.144 HD
ENDBRANCH   3  14
BRANCH   1  18
ATOM     17  C   UNL     1     -10.720   3.509  -1.319  0.00  0.00    +0.010 C 
ATOM     18  C   UNL     1     -10.231   3.314   0.118  0.00  0.00    +0.053 C 
ENDBRANCH   1  18
BRANCH   5  19
ATOM     19  S   UNL     1      -5.203   4.251   0.075  0.00  0.00    -0.078 S 
BRANCH  19  20
ATOM     20  C   UNL     1      -3.812   3.093   0.056  0.00  0.00    +0.157 C 
BRANCH  20  21
ATOM     21  C   UNL     1      -2.517   3.864   0.047  0.00  0.00    +0.173 C 
ATOM     22  O   UNL     1      -2.533   5.076   0.054  0.00  0.00    -0.291 OA
BRANCH  21  23
ATOM     23  C   UNL     1      -1.236   3.146   0.031  0.00  0.00    +0.022 A 
ATOM     24  C   UNL     1      -1.215   1.746   0.017  0.00  0.00    +0.015 A 
ATOM     25  C   UNL     1      -0.013   1.076   0.008  0.00  0.00    +0.050 A 
ATOM     26  C   UNL     1       1.182   1.785   0.000  0.00  0.00    +0.158 A 
ATOM     27  C   UNL     1       1.170   3.180   0.008  0.00  0.00    +0.159 A 
ATOM     28  C   UNL     1      -0.031   3.860   0.024  0.00  0.00    +0.060 A 
BRANCH  27  29
ATOM     29  O   UNL     1       2.342   3.870   0.001  0.00  0.00    -0.503 OA
ATOM     30  H   UNL     1       2.333   4.970   0.006  0.00  0.00    +0.292 HD
ENDBRANCH  27  29
BRANCH  26  31
ATOM     31  O   UNL     1       2.365   1.118  -0.015  0.00  0.00    -0.503 OA
ATOM     32  H   UNL     1       3.311   1.678  -0.021  0.00  0.00    +0.292 HD
ENDBRANCH  26  31
ENDBRANCH  21  23
ENDBRANCH  20  21
ENDBRANCH  19  20
ENDBRANCH   5  19
TORSDOF 9
