REMARK  Name = ZINC11369355
REMARK  7 active torsions:
REMARK  status: ('A' for Active; 'I' for Inactive)
REMARK    1  A    between atoms: C_1  and  C_2
REMARK    2  A    between atoms: C_2  and  C_25
REMARK    3  A    between atoms: N_5  and  C_9
REMARK    4  A    between atoms: C_9  and  C_10
REMARK    5  A    between atoms: N_12  and  C_13
REMARK    6  A    between atoms: C_13  and  C_14
REMARK    7  A    between atoms: C_14  and  C_15
REMARK                            x       y       z     vdW  Elec       q    Type
REMARK                         _______ _______ _______ _____ _____    ______ ____
ROOT
ATOM      1  C   UNL     1       7.295  -2.743  -2.715  0.00  0.00    +0.213 C 
ENDROOT
BRANCH   1   6
ATOM      2  C   UNL     1       8.027  -1.880  -7.274  0.00  0.00    +0.047 C 
ATOM      3  C   UNL     1       8.628  -2.768  -6.182  0.00  0.00    +0.135 C 
ATOM      4  C   UNL     1       8.463  -2.122  -4.820  0.00  0.00    +0.251 C 
ATOM      5  O   UNL     1       8.919  -1.060  -4.453  0.00  0.00    -0.272 OA
ATOM      6  N   UNL     1       7.704  -2.974  -4.103  0.00  0.00    -0.215 N 
ATOM      7  C   UNL     1       7.373  -4.059  -4.813  0.00  0.00    +0.310 C 
ATOM      8  O   UNL     1       6.697  -4.970  -4.379  0.00  0.00    -0.252 OA
ATOM      9  N   UNL     1       7.871  -4.026  -6.062  0.00  0.00    -0.281 N 
ATOM     10  H   UNL     1       7.758  -4.701  -6.749  0.00  0.00    +0.152 HD
BRANCH   3  11
ATOM     11  C   UNL     1      10.081  -3.047  -6.463  0.00  0.00    -0.015 A 
ATOM     12  C   UNL     1      11.059  -2.232  -5.925  0.00  0.00    +0.007 A 
ATOM     13  C   UNL     1      12.393  -2.492  -6.178  0.00  0.00    +0.020 A 
ATOM     14  C   UNL     1      12.749  -3.561  -6.980  0.00  0.00    +0.041 A 
ATOM     15  C   UNL     1      11.770  -4.374  -7.524  0.00  0.00    +0.020 A 
ATOM     16  C   UNL     1      10.437  -4.116  -7.265  0.00  0.00    +0.007 A 
ATOM     17 CL   UNL     1      14.424  -3.883  -7.305  0.00  0.00    -0.084 Cl
ENDBRANCH   3  11
ENDBRANCH   1   6
BRANCH   1  18
ATOM     18  C   UNL     1       5.983  -2.002  -2.694  0.00  0.00    +0.231 C 
ATOM     19  O   UNL     1       5.442  -1.697  -3.736  0.00  0.00    -0.274 OA
ATOM     20  N   UNL     1       5.411  -1.679  -1.517  0.00  0.00    -0.314 N 
ATOM     21  H   UNL     1       5.844  -1.923  -0.684  0.00  0.00    +0.149 HD
BRANCH  20  22
ATOM     22  C   UNL     1       4.136  -0.958  -1.497  0.00  0.00    +0.109 C 
BRANCH  22  23
ATOM     23  C   UNL     1       3.709  -0.717  -0.047  0.00  0.00    +0.054 C 
BRANCH  23  24
ATOM     24  C   UNL     1       2.397   0.024  -0.026  0.00  0.00    -0.042 A 
ATOM     25  C   UNL     1       1.207  -0.680  -0.016  0.00  0.00    +0.007 A 
ATOM     26  C   UNL     1       0.002  -0.004   0.002  0.00  0.00    +0.050 A 
ATOM     27  C   UNL     1      -0.017   1.383   0.010  0.00  0.00    +0.162 A 
ATOM     28  C   UNL     1       1.179   2.090   0.002  0.00  0.00    +0.162 A 
ATOM     29  C   UNL     1       2.386   1.406  -0.017  0.00  0.00    +0.053 A 
ATOM     30  O   UNL     1       1.184   3.451   0.018  0.00  0.00    -0.485 OA
ATOM     31  C   UNL     1      -0.040   4.103  -0.340  0.00  0.00    +0.270 C 
ATOM     32  C   UNL     1      -1.189   3.413   0.408  0.00  0.00    +0.270 C 
ATOM     33  O   UNL     1      -1.212   2.035   0.019  0.00  0.00    -0.485 OA
ENDBRANCH  23  24
ENDBRANCH  22  23
ENDBRANCH  20  22
ENDBRANCH   1  18
TORSDOF 6
