REMARK  Name = ZINC12324056
REMARK  9 active torsions:
REMARK  status: ('A' for Active; 'I' for Inactive)
REMARK    1  A    between atoms: C_1  and  O_2
REMARK    2  A    between atoms: O_2  and  C_3
REMARK    3  A    between atoms: C_6  and  C_9
REMARK    4  A    between atoms: C_12  and  C_34
REMARK    5  A    between atoms: N_19  and  C_20
REMARK    6  A    between atoms: C_20  and  C_21
REMARK    7  A    between atoms: C_21  and  C_22
REMARK    8  A    between atoms: C_29  and  O_32
REMARK    9  A    between atoms: O_32  and  C_33
REMARK                            x       y       z     vdW  Elec       q    Type
REMARK                         _______ _______ _______ _____ _____    ______ ____
ROOT
ATOM      1  C   UNL     1      -1.463   1.790   0.031  0.00  0.00    +0.141 C 
ATOM      2  C   UNL     1      -0.017   1.377   0.010  0.00  0.00    +0.038 A 
ATOM      3  C   UNL     1       1.326   1.777  -0.001  0.00  0.00    +0.133 A 
ATOM      4  N   UNL     1       2.063   0.682  -0.014  0.00  0.00    -0.170 NA
ATOM      5  N   UNL     1       1.319  -0.367  -0.013  0.00  0.00    -0.272 N 
ATOM      6  H   UNL     1       1.655  -1.309  -0.021  0.00  0.00    +0.189 HD
ATOM      7  C   UNL     1       0.002  -0.004   0.002  0.00  0.00    +0.126 A 
ATOM      8  C   UNL     1      -1.383  -0.490   0.013  0.00  0.00    +0.265 C 
ATOM      9  O   UNL     1      -1.707  -1.662   0.009  0.00  0.00    -0.268 OA
ATOM     10  N   UNL     1      -2.242   0.545   0.026  0.00  0.00    -0.285 N 
ENDROOT
BRANCH   1  14
ATOM     11  C   UNL     1      -2.385   4.093  -3.450  0.00  0.00    +0.120 A 
ATOM     12  C   UNL     1      -2.170   4.726  -2.234  0.00  0.00    +0.046 A 
ATOM     13  C   UNL     1      -1.872   3.980  -1.111  0.00  0.00    +0.009 A 
ATOM     14  C   UNL     1      -1.788   2.602  -1.197  0.00  0.00    -0.022 A 
ATOM     15  C   UNL     1      -1.996   1.969  -2.408  0.00  0.00    +0.009 A 
ATOM     16  C   UNL     1      -2.300   2.710  -3.533  0.00  0.00    +0.046 A 
BRANCH  11  18
ATOM     17  C   UNL     1      -2.887   4.106  -5.773  0.00  0.00    +0.277 C 
ATOM     18  O   UNL     1      -2.678   4.825  -4.556  0.00  0.00    -0.495 OA
ENDBRANCH  11  18
ENDBRANCH   1  14
BRANCH   3  19
ATOM     19  C   UNL     1       1.825   3.169   0.001  0.00  0.00    +0.155 A 
ATOM     20  C   UNL     1       2.946   3.613   0.628  0.00  0.00    +0.051 A 
ATOM     21  C   UNL     1       3.038   4.995   0.365  0.00  0.00    +0.042 A 
ATOM     22  C   UNL     1       1.976   5.323  -0.396  0.00  0.00    +0.196 A 
ATOM     23  O   UNL     1       1.245   4.218  -0.614  0.00  0.00    -0.461 OA
ENDBRANCH   3  19
BRANCH  10  24
ATOM     24  C   UNL     1      -3.703   0.447   0.039  0.00  0.00    +0.114 C 
BRANCH  24  25
ATOM     25  C   UNL     1      -4.199   0.406   1.486  0.00  0.00    +0.056 C 
BRANCH  25  26
ATOM     26  C   UNL     1      -5.703   0.305   1.499  0.00  0.00    -0.021 A 
ATOM     27  C   UNL     1      -6.570   1.323   1.612  0.00  0.00    +0.087 A 
ATOM     28  N   UNL     1      -7.853   0.849   1.583  0.00  0.00    -0.360 N 
ATOM     29  H   UNL     1      -8.651   1.397   1.646  0.00  0.00    +0.165 HD
ATOM     30  C   UNL     1      -7.842  -0.524   1.455  0.00  0.00    +0.047 A 
ATOM     31  C   UNL     1      -6.495  -0.923   1.397  0.00  0.00    +0.006 A 
ATOM     32  C   UNL     1      -6.172  -2.276   1.267  0.00  0.00    +0.056 A 
ATOM     33  C   UNL     1      -7.183  -3.214   1.196  0.00  0.00    +0.121 A 
ATOM     34  C   UNL     1      -8.516  -2.815   1.253  0.00  0.00    +0.047 A 
ATOM     35  C   UNL     1      -8.845  -1.484   1.382  0.00  0.00    +0.030 A 
BRANCH  33  36
ATOM     36  O   UNL     1      -6.875  -4.533   1.069  0.00  0.00    -0.495 OA
ATOM     37  C   UNL     1      -7.969  -5.450   1.001  0.00  0.00    +0.277 C 
ENDBRANCH  33  36
ENDBRANCH  25  26
ENDBRANCH  24  25
ENDBRANCH  10  24
TORSDOF 7
