REMARK  Name = ZINC54726221
REMARK  7 active torsions:
REMARK  status: ('A' for Active; 'I' for Inactive)
REMARK    1  A    between atoms: C_1  and  C_2
REMARK    2  A    between atoms: C_4  and  C_26
REMARK    3  A    between atoms: N_6  and  C_8
REMARK    4  A    between atoms: C_8  and  C_9
REMARK    5  A    between atoms: C_8  and  C_10
REMARK    6  A    between atoms: C_8  and  C_11
REMARK    7  A    between atoms: C_11  and  N_12
REMARK                            x       y       z     vdW  Elec       q    Type
REMARK                         _______ _______ _______ _____ _____    ______ ____
ROOT
ATOM      1  N   UNL     1      -0.750  -2.465   3.615  0.00  0.00    -0.301 N 
ATOM      2  C   UNL     1      -1.628  -2.151   4.588  0.00  0.00    +0.302 C 
ATOM      3  O   UNL     1      -1.258  -1.527   5.563  0.00  0.00    -0.253 OA
ATOM      4  N   UNL     1      -2.917  -2.529   4.479  0.00  0.00    -0.283 N 
ATOM      5  C   UNL     1      -3.910  -2.095   5.472  0.00  0.00    +0.128 C 
ATOM      6  C   UNL     1      -5.061  -1.393   4.740  0.00  0.00    +0.126 C 
ATOM      7  N   UNL     1      -5.499  -2.247   3.627  0.00  0.00    -0.307 N 
ATOM      8  C   UNL     1      -4.506  -2.681   2.634  0.00  0.00    +0.126 C 
ATOM      9  C   UNL     1      -3.357  -3.378   3.363  0.00  0.00    +0.128 C 
ATOM     10  C   UNL     1      -6.825  -2.635   3.515  0.00  0.00    +0.161 A 
ATOM     11  N   UNL     1      -7.834  -2.336   4.305  0.00  0.00    -0.233 NA
ATOM     12  C   UNL     1      -9.050  -2.790   4.059  0.00  0.00    +0.120 A 
ATOM     13  C   UNL     1      -9.206  -3.572   2.964  0.00  0.00    +0.068 A 
ATOM     14  S   UNL     1      -7.536  -3.599   2.333  0.00  0.00    -0.061 S 
ATOM     15  H   UNL     1      -1.027  -3.025   2.873  0.00  0.00    +0.150 HD
ENDROOT
BRANCH   1  16
ATOM     16  C   UNL     1       0.624  -1.960   3.678  0.00  0.00    +0.093 C 
BRANCH  16  17
ATOM     17  C   UNL     1       1.407  -2.460   2.462  0.00  0.00    -0.055 C 
ATOM     18  C   UNL     1       1.425  -3.990   2.460  0.00  0.00    -0.008 C 
ATOM     19  C   UNL     1       2.842  -1.933   2.528  0.00  0.00    -0.008 C 
BRANCH  17  25
ATOM     20  C   UNL     1      -0.025   1.529   0.011  0.00  0.00    +0.005 C 
ATOM     21  C   UNL     1      -0.003  -0.001   0.002  0.00  0.00    -0.031 C 
ATOM     22  C   UNL     1       0.719  -0.494  -1.256  0.00  0.00    +0.003 C 
ATOM     23  C   UNL     1       0.804  -2.023  -1.216  0.00  0.00    -0.031 C 
ATOM     24  C   UNL     1       1.516  -2.456   0.068  0.00  0.00    -0.075 C 
ATOM     25  N   UNL     1       0.763  -1.976   1.233  0.00  0.00    +0.384 N 
ATOM     26  C   UNL     1       0.739  -0.508   1.241  0.00  0.00    -0.075 C 
ATOM     27  C   UNL     1       1.592  -2.522  -2.430  0.00  0.00    +0.005 C 
ATOM     28  H   UNL     1      -0.182  -2.327   1.190  0.00  0.00    -0.081 HD
ENDBRANCH  17  25
ENDBRANCH  16  17
ENDBRANCH   1  16
TORSDOF 3
