REMARK  Name = ZINC04776447
REMARK  6 active torsions:
REMARK  status: ('A' for Active; 'I' for Inactive)
REMARK    1  A    between atoms: C_1  and  C_2
REMARK    2  A    between atoms: C_2  and  C_3
REMARK    3  A    between atoms: C_2  and  N_4
REMARK    4  A    between atoms: C_10  and  C_17
REMARK    5  A    between atoms: N_15  and  C_16
REMARK    6  A    between atoms: C_21  and  N_23
REMARK                            x       y       z     vdW  Elec       q    Type
REMARK                         _______ _______ _______ _____ _____    ______ ____
ROOT
ATOM      1  N   UNL     1      -0.266   6.224  -3.620  0.00  0.00    -0.290 N 
ATOM      2  C   UNL     1      -1.442   6.914  -3.069  0.00  0.00    +0.159 C 
ATOM      3  C   UNL     1      -1.420   6.598  -1.590  0.00  0.00    +0.042 C 
ATOM      4  C   UNL     1      -0.340   5.819  -1.384  0.00  0.00    +0.058 C 
ATOM      5  C   UNL     1       0.345   5.599  -2.597  0.00  0.00    +0.247 C 
ATOM      6  O   UNL     1       1.357   4.931  -2.704  0.00  0.00    -0.270 OA
ATOM      7  C   UNL     1      -0.070   5.347   0.031  0.00  0.00    +0.142 C 
ATOM      8  N   UNL     1      -1.018   5.783   1.070  0.00  0.00    -0.288 N 
ATOM      9  C   UNL     1      -2.055   6.563   0.707  0.00  0.00    +0.307 C 
ATOM     10  O   UNL     1      -2.843   6.928   1.558  0.00  0.00    -0.252 OA
ATOM     11  N   UNL     1      -2.245   6.951  -0.560  0.00  0.00    -0.260 N 
ATOM     12  C   UNL     1      -3.401   7.800  -0.859  0.00  0.00    +0.139 C 
ATOM     13  H   UNL     1      -0.899   5.514   1.994  0.00  0.00    +0.151 HD
ENDROOT
BRANCH   7  14
ATOM     14  C   UNL     1      -0.050   3.840   0.022  0.00  0.00    -0.020 A 
ATOM     15  C   UNL     1      -1.238   3.133   0.029  0.00  0.00    +0.006 A 
ATOM     16  C   UNL     1      -1.219   1.751   0.017  0.00  0.00    +0.003 A 
ATOM     17  C   UNL     1      -0.013   1.076   0.008  0.00  0.00    +0.033 A 
ATOM     18  C   UNL     1       1.175   1.783   0.000  0.00  0.00    +0.127 A 
ATOM     19  C   UNL     1       1.156   3.166   0.008  0.00  0.00    +0.038 A 
BRANCH  18  20
ATOM     20  N   UNL     1       2.467   1.060  -0.015  0.00  0.00    +0.056 N 
ATOM     21  O   UNL     1       2.483  -0.157  -0.022  0.00  0.00    -0.126 OA
ATOM     22  O   UNL     1       3.513   1.684  -0.022  0.00  0.00    -0.126 OA
ENDBRANCH  18  20
ENDBRANCH   7  14
BRANCH   1  24
ATOM     23  C   UNL     1       1.566   6.816  -5.128  0.00  0.00    +0.028 C 
ATOM     24  C   UNL     1       0.162   6.218  -5.021  0.00  0.00    +0.071 C 
ATOM     25  C   UNL     1       0.178   4.780  -5.544  0.00  0.00    +0.028 C 
ENDBRANCH   1  24
TORSDOF 3
