REMARK  Name = ZINC43475163
REMARK  9 active torsions:
REMARK  status: ('A' for Active; 'I' for Inactive)
REMARK    1  A    between atoms: C_1  and  C_2
REMARK    2  A    between atoms: C_2  and  C_3
REMARK    3  A    between atoms: C_3  and  C_5
REMARK    4  A    between atoms: C_3  and  N_23
REMARK    5  A    between atoms: C_5  and  C_7
REMARK    6  A    between atoms: C_5  and  O_14
REMARK    7  A    between atoms: O_14  and  C_15
REMARK    8  A    between atoms: C_19  and  C_21
REMARK    9  A    between atoms: C_21  and  O_22
REMARK                            x       y       z     vdW  Elec       q    Type
REMARK                         _______ _______ _______ _____ _____    ______ ____
ROOT
ATOM      1  C   UNL     1       0.672  -2.100   1.295  0.00  0.00    +0.190 C 
ENDROOT
BRANCH   1   2
ATOM      2  C   UNL     1       1.413  -2.789   2.413  0.00  0.00    +0.005 A 
ATOM      3  C   UNL     1       0.742  -3.155   3.564  0.00  0.00    +0.008 A 
ATOM      4  C   UNL     1       1.421  -3.787   4.589  0.00  0.00    +0.000 A 
ATOM      5  C   UNL     1       2.772  -4.053   4.462  0.00  0.00    +0.001 A 
ATOM      6  C   UNL     1       3.443  -3.688   3.311  0.00  0.00    +0.015 A 
ATOM      7  C   UNL     1       2.763  -3.060   2.283  0.00  0.00    +0.024 A 
ATOM      8 BR   UNL     1       3.680  -2.566   0.705  0.00  0.00    -0.050 Br
ENDBRANCH   1   2
BRANCH   1   9
ATOM      9  C   UNL     1       0.839  -0.586   1.430  0.00  0.00    -0.029 C 
BRANCH   9  10
ATOM     10  N   UNL     1       2.266  -0.242   1.356  0.00  0.00    +0.383 N 
ATOM     11  H   UNL     1       2.376   0.757   1.445  0.00  0.00    -0.089 HD
ATOM     12  H   UNL     1       2.762  -0.703   2.104  0.00  0.00    -0.089 HD
ATOM     13  H   UNL     1       2.639  -0.544   0.469  0.00  0.00    -0.089 HD
ENDBRANCH   9  10
BRANCH   9  15
ATOM     14  C   UNL     1       0.150   1.629   0.500  0.00  0.00    +0.002 C 
ATOM     15  C   UNL     1       0.087   0.114   0.296  0.00  0.00    -0.016 C 
ENDBRANCH   9  15
ENDBRANCH   1   9
BRANCH   1  16
ATOM     16  O   UNL     1      -0.716  -2.434   1.367  0.00  0.00    -0.486 OA
BRANCH  16  17
ATOM     17  C   UNL     1      -1.385  -2.547   0.189  0.00  0.00    +0.122 A 
ATOM     18  C   UNL     1      -0.709  -2.388  -1.012  0.00  0.00    +0.046 A 
ATOM     19  C   UNL     1      -1.391  -2.503  -2.208  0.00  0.00    +0.004 A 
ATOM     20  C   UNL     1      -2.747  -2.777  -2.208  0.00  0.00    +0.006 A 
ATOM     21  C   UNL     1      -3.422  -2.935  -1.012  0.00  0.00    -0.019 A 
ATOM     22  C   UNL     1      -2.743  -2.826   0.186  0.00  0.00    +0.051 A 
BRANCH  21  23
ATOM     23  C   UNL     1      -4.900  -3.233  -1.016  0.00  0.00    +0.191 C 
BRANCH  23  24
ATOM     24  O   UNL     1      -5.100  -4.647  -1.042  0.00  0.00    -0.390 OA
ATOM     25  H   UNL     1      -6.030  -4.913  -1.046  0.00  0.00    +0.210 HD
ENDBRANCH  23  24
ENDBRANCH  21  23
ENDBRANCH  16  17
ENDBRANCH   1  16
TORSDOF 8
