REMARK  Name = ZINC06168009
REMARK  9 active torsions:
REMARK  status: ('A' for Active; 'I' for Inactive)
REMARK    1  A    between atoms: C_1  and  C_2
REMARK    2  A    between atoms: C_2  and  O_3
REMARK    3  A    between atoms: O_3  and  C_4
REMARK    4  A    between atoms: C_9  and  C_10
REMARK    5  A    between atoms: C_12  and  C_21
REMARK    6  A    between atoms: C_13  and  C_20
REMARK    7  A    between atoms: C_21  and  O_23
REMARK    8  A    between atoms: O_23  and  C_24
REMARK    9  A    between atoms: C_24  and  C_25
REMARK                            x       y       z     vdW  Elec       q    Type
REMARK                         _______ _______ _______ _____ _____    ______ ____
ROOT
ATOM      1  C   UNL     1       2.088  -1.339  -3.472  0.00  0.00    +0.184 C 
ATOM      2  C   UNL     1       1.406  -1.459  -4.809  0.00  0.00    +0.082 C 
ATOM      3  C   UNL     1       1.942  -2.118  -5.848  0.00  0.00    +0.020 C 
ATOM      4  N   UNL     1       3.170  -2.728  -5.776  0.00  0.00    -0.286 N 
ATOM      5  C   UNL     1       3.965  -2.430  -4.678  0.00  0.00    +0.240 A 
ATOM      6  N   UNL     1       3.473  -1.776  -3.594  0.00  0.00    -0.201 N 
ATOM      7  N   UNL     1       4.546  -1.651  -2.713  0.00  0.00    -0.042 NA
ATOM      8  N   UNL     1       5.561  -2.212  -3.289  0.00  0.00    -0.021 NA
ATOM      9  N   UNL     1       5.223  -2.674  -4.445  0.00  0.00    -0.092 NA
ATOM     10  C   UNL     1       1.169  -2.190  -7.140  0.00  0.00    +0.061 C 
ATOM     11  H   UNL     1       3.469  -3.342  -6.464  0.00  0.00    +0.155 HD
ENDROOT
BRANCH   1  17
ATOM     12  C   UNL     1       0.815  -1.631  -1.331  0.00  0.00    +0.126 A 
ATOM     13  C   UNL     1       0.154  -2.428  -0.408  0.00  0.00    +0.046 A 
ATOM     14  C   UNL     1       0.060  -3.791  -0.616  0.00  0.00    +0.004 A 
ATOM     15  C   UNL     1       0.624  -4.359  -1.743  0.00  0.00    +0.001 A 
ATOM     16  C   UNL     1       1.283  -3.567  -2.665  0.00  0.00    +0.009 A 
ATOM     17  C   UNL     1       1.375  -2.203  -2.464  0.00  0.00    +0.023 A 
BRANCH  12  18
ATOM     18  O   UNL     1       0.909  -0.290  -1.129  0.00  0.00    -0.492 OA
BRANCH  18  20
ATOM     19  C   UNL     1       0.515   1.745   0.114  0.00  0.00    +0.048 C 
ATOM     20  C   UNL     1       0.309   0.230   0.060  0.00  0.00    +0.225 C 
ENDBRANCH  18  20
ENDBRANCH  12  18
ENDBRANCH   1  17
BRANCH   2  21
ATOM     21  C   UNL     1       0.142  -0.851  -4.977  0.00  0.00    +0.339 C 
ATOM     22  O   UNL     1       0.066   0.342  -5.208  0.00  0.00    -0.245 OA
BRANCH  21  23
ATOM     23  O   UNL     1      -0.982  -1.592  -4.881  0.00  0.00    -0.457 OA
BRANCH  23  24
ATOM     24  C   UNL     1      -2.225  -0.912  -5.062  0.00  0.00    +0.268 C 
BRANCH  24  25
ATOM     25  C   UNL     1      -3.360  -1.893  -4.921  0.00  0.00    -0.010 A 
ATOM     26  C   UNL     1      -3.829  -2.572  -6.030  0.00  0.00    +0.007 A 
ATOM     27  C   UNL     1      -4.870  -3.473  -5.901  0.00  0.00    +0.000 A 
ATOM     28  C   UNL     1      -5.442  -3.694  -4.662  0.00  0.00    +0.000 A 
ATOM     29  C   UNL     1      -4.973  -3.016  -3.553  0.00  0.00    +0.000 A 
ATOM     30  C   UNL     1      -3.929  -2.119  -3.682  0.00  0.00    +0.007 A 
ENDBRANCH  24  25
ENDBRANCH  23  24
ENDBRANCH  21  23
ENDBRANCH   2  21
TORSDOF 7
