REMARK  Name = ZINC09238276
REMARK  6 active torsions:
REMARK  status: ('A' for Active; 'I' for Inactive)
REMARK    1  A    between atoms: C_1  and  O_2
REMARK    2  A    between atoms: O_2  and  C_3
REMARK    3  A    between atoms: C_8  and  N_9
REMARK    4  A    between atoms: C_10  and  C_12
REMARK    5  A    between atoms: C_14  and  C_29
REMARK    6  A    between atoms: C_18  and  C_23
REMARK                            x       y       z     vdW  Elec       q    Type
REMARK                         _______ _______ _______ _____ _____    ______ ____
ROOT
ATOM      1  C   UNL     1      -2.578   1.052  -0.021  0.00  0.00    +0.166 C 
ATOM      2  C   UNL     1      -3.556   1.874  -0.871  0.00  0.00    +0.140 C 
ATOM      3  N   UNL     1      -3.518   3.283  -0.476  0.00  0.00    -0.272 N 
ATOM      4  N   UNL     1      -3.843   3.495   0.825  0.00  0.00    -0.221 N 
ATOM      5  C   UNL     1      -4.290   4.660   1.399  0.00  0.00    +0.182 A 
ATOM      6  N   UNL     1      -4.462   4.419   2.679  0.00  0.00    -0.127 NA
ATOM      7  N   UNL     1      -4.161   3.194   2.942  0.00  0.00    -0.121 NA
ATOM      8  C   UNL     1      -3.784   2.589   1.847  0.00  0.00    +0.210 A 
ATOM      9  S   UNL     1      -3.277   0.909   1.651  0.00  0.00    -0.069 S 
ATOM     10  H   UNL     1      -2.624   3.696  -0.697  0.00  0.00    +0.167 HD
ENDROOT
BRANCH   5  11
ATOM     11  C   UNL     1      -4.532   5.944   0.706  0.00  0.00    +0.021 A 
ATOM     12  C   UNL     1      -4.605   5.986  -0.687  0.00  0.00    +0.011 A 
ATOM     13  C   UNL     1      -4.836   7.186  -1.327  0.00  0.00    +0.001 A 
ATOM     14  C   UNL     1      -4.984   8.348  -0.591  0.00  0.00    +0.000 A 
ATOM     15  C   UNL     1      -4.907   8.315   0.790  0.00  0.00    +0.001 A 
ATOM     16  C   UNL     1      -4.682   7.120   1.443  0.00  0.00    +0.011 A 
ENDBRANCH   5  11
BRANCH   2  17
ATOM     17  C   UNL     1      -3.177   1.754  -2.325  0.00  0.00    -0.024 A 
ATOM     18  C   UNL     1      -2.147   2.521  -2.836  0.00  0.00    +0.005 A 
ATOM     19  C   UNL     1      -1.796   2.408  -4.168  0.00  0.00    +0.000 A 
ATOM     20  C   UNL     1      -2.481   1.533  -4.991  0.00  0.00    +0.000 A 
ATOM     21  C   UNL     1      -3.514   0.769  -4.481  0.00  0.00    +0.000 A 
ATOM     22  C   UNL     1      -3.862   0.880  -3.148  0.00  0.00    +0.005 A 
ENDBRANCH   2  17
BRANCH   1  24
ATOM     23  N   UNL     1      -0.964   2.577   1.068  0.00  0.00    -0.282 N 
ATOM     24  C   UNL     1      -1.245   1.751   0.041  0.00  0.00    +0.233 C 
ATOM     25  O   UNL     1      -0.424   1.571  -0.834  0.00  0.00    -0.274 OA
ATOM     26  H   UNL     1      -1.585   2.658   1.809  0.00  0.00    +0.155 HD
BRANCH  23  32
ATOM     27  C   UNL     1       0.728   3.832   2.262  0.00  0.00    +0.141 A 
ATOM     28  C   UNL     1       1.907   4.559   2.257  0.00  0.00    +0.047 A 
ATOM     29  C   UNL     1       2.585   4.769   1.071  0.00  0.00    +0.004 A 
ATOM     30  C   UNL     1       2.090   4.254  -0.113  0.00  0.00    +0.002 A 
ATOM     31  C   UNL     1       0.917   3.524  -0.116  0.00  0.00    +0.027 A 
ATOM     32  C   UNL     1       0.228   3.314   1.069  0.00  0.00    +0.076 A 
BRANCH  27  34
ATOM     33  C   UNL     1       0.631   4.185   4.612  0.00  0.00    +0.277 C 
ATOM     34  O   UNL     1       0.059   3.625   3.428  0.00  0.00    -0.493 OA
ENDBRANCH  27  34
ENDBRANCH  23  32
ENDBRANCH   1  24
TORSDOF 5
