REMARK  Name = ZINC09610540
REMARK  6 active torsions:
REMARK  status: ('A' for Active; 'I' for Inactive)
REMARK    1  A    between atoms: C_4  and  C_7
REMARK    2  A    between atoms: C_7  and  C_9
REMARK    3  A    between atoms: C_7  and  N_19
REMARK    4  A    between atoms: N_11  and  C_12
REMARK    5  A    between atoms: N_19  and  S_20
REMARK    6  A    between atoms: S_20  and  C_23
REMARK                            x       y       z     vdW  Elec       q    Type
REMARK                         _______ _______ _______ _____ _____    ______ ____
ROOT
ATOM      1  C   UNL     1       3.039   7.973   2.039  0.00  0.00    +0.192 C 
ENDROOT
BRANCH   1   5
ATOM      2  C   UNL     1       5.549  11.338   1.249  0.00  0.00    +0.000 A 
ATOM      3  C   UNL     1       6.016  10.057   1.017  0.00  0.00    +0.000 A 
ATOM      4  C   UNL     1       5.204   8.969   1.272  0.00  0.00    +0.006 A 
ATOM      5  C   UNL     1       3.925   9.160   1.761  0.00  0.00    -0.020 A 
ATOM      6  C   UNL     1       3.456  10.440   1.988  0.00  0.00    +0.006 A 
ATOM      7  C   UNL     1       4.270  11.529   1.737  0.00  0.00    +0.000 A 
ENDBRANCH   1   5
BRANCH   1   8
ATOM      8  C   UNL     1       3.055   7.670   3.516  0.00  0.00    +0.236 C 
ATOM      9  O   UNL     1       2.024   7.703   4.153  0.00  0.00    -0.274 OA
ATOM     10  N   UNL     1       4.216   7.361   4.128  0.00  0.00    -0.311 N 
ATOM     11  H   UNL     1       5.041   7.334   3.618  0.00  0.00    +0.149 HD
BRANCH  10  12
ATOM     12  C   UNL     1       4.232   7.066   5.562  0.00  0.00    +0.073 C 
ATOM     13  C   UNL     1       4.299   8.394   6.344  0.00  0.00    +0.022 C 
ATOM     14  C   UNL     1       3.808   8.148   7.746  0.00  0.00    +0.002 C 
ATOM     15  C   UNL     1       4.957   7.846   8.727  0.00  0.00    +0.000 C 
ATOM     16  C   UNL     1       6.022   6.907   8.127  0.00  0.00    +0.000 C 
ATOM     17  C   UNL     1       5.417   5.779   7.337  0.00  0.00    +0.002 C 
ATOM     18  C   UNL     1       5.362   6.196   5.853  0.00  0.00    +0.022 C 
ENDBRANCH  10  12
ENDBRANCH   1   8
BRANCH   1  19
ATOM     19  N   UNL     1       1.669   8.276   1.618  0.00  0.00    -0.174 NA
ATOM     20  H   UNL     1       1.070   8.746   2.219  0.00  0.00    +0.149 HD
BRANCH  19  21
ATOM     21  S   UNL     1       1.144   7.815   0.117  0.00  0.00    +0.059 S 
ATOM     22  O   UNL     1       2.135   8.240  -0.808  0.00  0.00    -0.153 OA
ATOM     23  O   UNL     1      -0.214   8.222   0.019  0.00  0.00    -0.153 OA
BRANCH  21  24
ATOM     24  C   UNL     1       1.145   6.053   0.082  0.00  0.00    +0.106 A 
ATOM     25  C   UNL     1       2.276   5.372  -0.330  0.00  0.00    +0.030 A 
ATOM     26  C   UNL     1       2.281   3.992  -0.359  0.00  0.00    +0.025 A 
ATOM     27  C   UNL     1       1.148   3.288   0.027  0.00  0.00    +0.037 A 
ATOM     28  C   UNL     1       0.014   3.974   0.441  0.00  0.00    -0.024 A 
ATOM     29  C   UNL     1       0.015   5.355   0.467  0.00  0.00    +0.034 A 
ATOM     30  C   UNL     1      -1.214   3.210   0.860  0.00  0.00    +0.046 C 
ATOM     31  C   UNL     1      -1.333   1.935   0.019  0.00  0.00    +0.101 C 
ATOM     32  C   UNL     1      -0.014   1.209   0.009  0.00  0.00    +0.218 C 
ATOM     33  O   UNL     1       0.002  -0.004   0.002  0.00  0.00    -0.275 OA
ATOM     34  N   UNL     1       1.146   1.889   0.001  0.00  0.00    -0.285 N 
ATOM     35  H   UNL     1       1.988   1.407  -0.022  0.00  0.00    +0.155 HD
ENDBRANCH  21  24
ENDBRANCH  19  21
ENDBRANCH   1  19
TORSDOF 6
