REMARK  Name = ZINC43630081
REMARK  9 active torsions:
REMARK  status: ('A' for Active; 'I' for Inactive)
REMARK    1  A    between atoms: C_1  and  O_2
REMARK    2  A    between atoms: O_2  and  C_3
REMARK    3  A    between atoms: C_3  and  C_5
REMARK    4  A    between atoms: N_7  and  C_10
REMARK    5  A    between atoms: C_13  and  C_23
REMARK    6  A    between atoms: N_15  and  C_17
REMARK    7  A    between atoms: C_17  and  C_18
REMARK    8  A    between atoms: N_25  and  C_26
REMARK    9  A    between atoms: C_26  and  C_27
REMARK                            x       y       z     vdW  Elec       q    Type
REMARK                         _______ _______ _______ _____ _____    ______ ____
ROOT
ATOM      1  C   UNL     1       1.530  -5.252  -2.590  0.00  0.00    +0.091 C 
ATOM      2  C   UNL     1       1.526  -4.924  -4.106  0.00  0.00    +0.019 C 
ATOM      3  C   UNL     1       2.608  -5.896  -4.639  0.00  0.00    +0.022 C 
ATOM      4  N   UNL     1       3.642  -5.926  -3.583  0.00  0.00    +0.391 N 
ATOM      5  C   UNL     1       3.015  -5.553  -2.299  0.00  0.00    -0.050 C 
ATOM      6  H   UNL     1       4.376  -5.270  -3.808  0.00  0.00    -0.080 HD
ENDROOT
BRANCH   1   9
ATOM      7  C   UNL     1       0.659  -2.073  -1.122  0.00  0.00    +0.189 A 
ATOM      8  C   UNL     1       1.238  -2.800  -2.124  0.00  0.00    +0.145 A 
ATOM      9  N   UNL     1       1.073  -4.099  -1.809  0.00  0.00    -0.250 N 
ATOM     10  N   UNL     1       0.378  -4.137  -0.592  0.00  0.00    -0.065 NA
ATOM     11  N   UNL     1       0.155  -2.927  -0.214  0.00  0.00    -0.123 NA
BRANCH   7  12
ATOM     12  C   UNL     1       0.601  -0.602  -1.047  0.00  0.00    +0.361 C 
ATOM     13  O   UNL     1       1.093   0.071  -1.931  0.00  0.00    -0.243 OA
BRANCH  12  15
ATOM     14  C   UNL     1      -0.017   1.425   0.010  0.00  0.00    +0.280 C 
ATOM     15  O   UNL     1       0.002  -0.004   0.002  0.00  0.00    -0.463 OA
ENDBRANCH  12  15
ENDBRANCH   7  12
ENDBRANCH   1   9
BRANCH   3  16
ATOM     16  C   UNL     1       3.188  -5.379  -5.931  0.00  0.00    +0.200 C 
ATOM     17  O   UNL     1       4.369  -5.112  -6.001  0.00  0.00    -0.278 OA
ATOM     18  N   UNL     1       2.393  -5.213  -7.007  0.00  0.00    -0.316 N 
ATOM     19  H   UNL     1       1.449  -5.426  -6.950  0.00  0.00    +0.149 HD
BRANCH  18  20
ATOM     20  C   UNL     1       2.957  -4.710  -8.262  0.00  0.00    +0.106 C 
BRANCH  20  21
ATOM     21  C   UNL     1       1.851  -4.616  -9.316  0.00  0.00    -0.008 C 
ATOM     22  C   UNL     1       1.332  -6.018  -9.635  0.00  0.00    +0.002 C 
ATOM     23  C   UNL     1       0.271  -5.910 -10.736  0.00  0.00    -0.018 C 
ATOM     24  C   UNL     1       0.897  -5.242 -11.959  0.00  0.00    -0.078 C 
ATOM     25  N   UNL     1       1.370  -3.893 -11.614  0.00  0.00    +0.382 N 
ATOM     26  C   UNL     1       2.413  -3.971 -10.587  0.00  0.00    -0.064 C 
ATOM     27  C   UNL     1       2.904  -2.563 -10.231  0.00  0.00    -0.015 C 
ATOM     28  C   UNL     1       3.455  -1.875 -11.481  0.00  0.00    -0.003 C 
ATOM     29  C   UNL     1       2.355  -1.843 -12.548  0.00  0.00    -0.019 C 
ATOM     30  C   UNL     1       1.905  -3.272 -12.835  0.00  0.00    -0.078 C 
ATOM     31  H   UNL     1       0.597  -3.344 -11.269  0.00  0.00    -0.081 HD
ENDBRANCH  20  21
ENDBRANCH  18  20
ENDBRANCH   3  16
BRANCH   4  32
ATOM     32  C   UNL     1       4.205  -7.279  -3.481  0.00  0.00    -0.041 C 
BRANCH  32  33
ATOM     33  C   UNL     1       5.342  -7.276  -2.491  0.00  0.00    -0.057 A 
ATOM     34  C   UNL     1       6.635  -7.019  -2.908  0.00  0.00    +0.009 A 
ATOM     35  C   UNL     1       7.634  -7.024  -1.993  0.00  0.00    +0.045 A 
ATOM     36  S   UNL     1       6.753  -7.401  -0.487  0.00  0.00    -0.105 S 
ATOM     37  C   UNL     1       5.112  -7.521  -1.178  0.00  0.00    +0.047 A 
ENDBRANCH  32  33
ENDBRANCH   4  32
TORSDOF 8
