REMARK  Name = ZINC12310107
REMARK  6 active torsions:
REMARK  status: ('A' for Active; 'I' for Inactive)
REMARK    1  A    between atoms: C_1  and  N_2
REMARK    2  A    between atoms: N_6  and  O_7
REMARK    3  A    between atoms: O_7  and  C_8
REMARK    4  A    between atoms: C_8  and  C_9
REMARK    5  A    between atoms: C_13  and  C_15
REMARK    6  A    between atoms: N_25  and  C_28
REMARK                            x       y       z     vdW  Elec       q    Type
REMARK                         _______ _______ _______ _____ _____    ______ ____
ROOT
ATOM      1  C   UNL     1       0.014  -2.675  -2.536  0.00  0.00    +0.155 C 
ATOM      2  N   UNL     1       0.019  -2.006  -1.233  0.00  0.00    -0.282 N 
ATOM      3  C   UNL     1       0.044  -2.752  -0.083  0.00  0.00    +0.130 A 
ATOM      4  C   UNL     1       0.043  -2.091   1.143  0.00  0.00    +0.109 A 
ATOM      5  C   UNL     1       0.059  -2.901   2.377  0.00  0.00    +0.120 A 
ATOM      6  N   UNL     1       0.294  -2.362   3.552  0.00  0.00    -0.084 NA
ATOM      7  C   UNL     1      -0.202  -4.346   2.223  0.00  0.00    +0.049 A 
ATOM      8  C   UNL     1      -0.185  -4.873   0.989  0.00  0.00    +0.086 A 
ATOM      9  N   UNL     1       0.071  -4.111  -0.119  0.00  0.00    -0.347 N 
ATOM     10  H   UNL     1       0.279  -4.554  -0.957  0.00  0.00    +0.167 HD
ATOM     11  C   UNL     1       0.022  -0.678   1.173  0.00  0.00    +0.268 A 
ATOM     12  O   UNL     1       0.024  -0.079   2.233  0.00  0.00    -0.267 OA
ATOM     13  N   UNL     1       0.002  -0.004   0.002  0.00  0.00    -0.263 N 
ATOM     14  C   UNL     1      -0.006  -0.662  -1.170  0.00  0.00    +0.333 A 
ATOM     15  O   UNL     1      -0.031  -0.024  -2.204  0.00  0.00    -0.246 OA
ATOM     16  C   UNL     1      -0.018   1.461   0.010  0.00  0.00    +0.157 C 
ENDROOT
BRANCH   6  17
ATOM     17  O   UNL     1       0.301  -3.173   4.713  0.00  0.00    -0.389 OA
BRANCH  17  18
ATOM     18  C   UNL     1       0.570  -2.457   5.920  0.00  0.00    +0.298 C 
BRANCH  18  19
ATOM     19  C   UNL     1       0.553  -3.412   7.085  0.00  0.00    -0.007 A 
ATOM     20  C   UNL     1      -0.626  -3.649   7.768  0.00  0.00    +0.007 A 
ATOM     21  C   UNL     1      -0.642  -4.529   8.833  0.00  0.00    +0.001 A 
ATOM     22  C   UNL     1       0.522  -5.164   9.224  0.00  0.00    +0.012 A 
ATOM     23  C   UNL     1       1.702  -4.923   8.545  0.00  0.00    +0.055 A 
ATOM     24  C   UNL     1       1.717  -4.046   7.475  0.00  0.00    +0.019 A 
BRANCH  23  25
ATOM     25  C   UNL     1       2.971  -5.614   8.970  0.00  0.00    +0.417 C 
ATOM     26  F   UNL     1       3.632  -4.831   9.923  0.00  0.00    -0.166 F 
ATOM     27  F   UNL     1       2.660  -6.860   9.526  0.00  0.00    -0.166 F 
ATOM     28  F   UNL     1       3.800  -5.794   7.858  0.00  0.00    -0.166 F 
ENDBRANCH  23  25
ENDBRANCH  18  19
ENDBRANCH  17  18
ENDBRANCH   6  17
TORSDOF 4
