REMARK  Name = ZINC20230859
REMARK  8 active torsions:
REMARK  status: ('A' for Active; 'I' for Inactive)
REMARK    1  A    between atoms: C_1  and  C_2
REMARK    2  A    between atoms: C_16  and  O_17
REMARK    3  A    between atoms: C_24  and  O_25
REMARK    4  A    between atoms: N_26  and  C_27
REMARK    5  A    between atoms: C_27  and  C_28
REMARK    6  A    between atoms: C_28  and  N_29
REMARK    7  A    between atoms: N_29  and  C_30
REMARK    8  A    between atoms: C_30  and  C_31
REMARK                            x       y       z     vdW  Elec       q    Type
REMARK                         _______ _______ _______ _____ _____    ______ ____
ROOT
ATOM      1  C   UNL     1      12.645  -4.789  -7.486  0.00  0.00    +0.044 C 
ATOM      2  C   UNL     1      12.976  -4.391  -6.070  0.00  0.00    -0.047 A 
ATOM      3  C   UNL     1      14.289  -4.418  -5.637  0.00  0.00    +0.005 A 
ATOM      4  C   UNL     1      14.599  -4.054  -4.340  0.00  0.00    +0.032 A 
ATOM      5  C   UNL     1      13.591  -3.661  -3.472  0.00  0.00    +0.107 A 
ATOM      6  C   UNL     1      12.267  -3.634  -3.908  0.00  0.00    +0.154 A 
ATOM      7  C   UNL     1      11.966  -4.001  -5.210  0.00  0.00    +0.051 A 
ATOM      8  O   UNL     1      11.274  -3.252  -3.065  0.00  0.00    -0.452 OA
ATOM      9  C   UNL     1      11.544  -2.888  -1.786  0.00  0.00    +0.156 A 
ATOM     10  C   UNL     1      10.513  -2.509  -0.951  0.00  0.00    +0.074 A 
ATOM     11  C   UNL     1      10.771  -2.126   0.365  0.00  0.00    +0.050 A 
ATOM     12  C   UNL     1      12.084  -2.135   0.855  0.00  0.00    +0.053 A 
ATOM     13  C   UNL     1      13.144  -2.529   0.004  0.00  0.00    +0.059 A 
ATOM     14  C   UNL     1      12.869  -2.903  -1.312  0.00  0.00    +0.118 A 
ATOM     15  N   UNL     1      13.897  -3.291  -2.158  0.00  0.00    -0.240 NA
ATOM     16  C   UNL     1      14.525  -2.543   0.507  0.00  0.00    +0.135 A 
ATOM     17  C   UNL     1      14.803  -2.145   1.902  0.00  0.00    +0.028 A 
ATOM     18  C   UNL     1      16.108  -2.155   2.389  0.00  0.00    +0.012 A 
ATOM     19  C   UNL     1      16.358  -1.781   3.696  0.00  0.00    +0.001 A 
ATOM     20  C   UNL     1      15.320  -1.396   4.527  0.00  0.00    +0.001 A 
ATOM     21  C   UNL     1      14.019  -1.380   4.061  0.00  0.00    +0.012 A 
ATOM     22  C   UNL     1      13.748  -1.754   2.746  0.00  0.00    +0.028 A 
ATOM     23  C   UNL     1      12.361  -1.739   2.239  0.00  0.00    +0.134 A 
ATOM     24  N   UNL     1       9.727  -1.742   1.192  0.00  0.00    -0.386 N 
ATOM     25  H   UNL     1       9.916  -1.532   2.255  0.00  0.00    +0.160 HD
ENDROOT
BRANCH  16  26
ATOM     26  O   UNL     1      15.437  -2.882  -0.223  0.00  0.00    -0.505 OA
ATOM     27  H   UNL     1      16.470  -2.891   0.155  0.00  0.00    +0.292 HD
ENDBRANCH  16  26
BRANCH  23  28
ATOM     28  O   UNL     1      11.448  -1.400   2.970  0.00  0.00    -0.505 OA
ATOM     29  H   UNL     1      11.657  -1.103   4.008  0.00  0.00    +0.292 HD
ENDBRANCH  23  28
BRANCH  24  30
ATOM     30  C   UNL     1       8.372  -1.614   0.649  0.00  0.00    +0.094 C 
BRANCH  30  31
ATOM     31  C   UNL     1       7.416  -1.180   1.762  0.00  0.00    -0.061 C 
BRANCH  31  32
ATOM     32  N   UNL     1       6.058  -1.052   1.218  0.00  0.00    +0.383 N 
ATOM     33  H   UNL     1       6.053  -0.299   0.417  0.00  0.00    -0.085 HD
ATOM     34  H   UNL     1       5.732  -2.021   0.812  0.00  0.00    -0.085 HD
BRANCH  32  35
ATOM     35  C   UNL     1       5.110  -0.636   2.261  0.00  0.00    -0.047 C 
BRANCH  35  36
ATOM     36  C   UNL     1       3.730  -0.516   1.667  0.00  0.00    -0.061 A 
ATOM     37  C   UNL     1       2.885  -1.609   1.659  0.00  0.00    +0.005 A 
ATOM     38  C   UNL     1       1.619  -1.504   1.115  0.00  0.00    +0.050 A 
ATOM     39  C   UNL     1       1.194  -0.301   0.576  0.00  0.00    +0.166 A 
ATOM     40  C   UNL     1       2.045   0.801   0.584  0.00  0.00    +0.166 A 
ATOM     41  C   UNL     1       3.313   0.688   1.131  0.00  0.00    +0.051 A 
ATOM     42  O   UNL     1       1.401   1.855   0.002  0.00  0.00    -0.453 OA
ATOM     43  C   UNL     1       0.005   1.502   0.007  0.00  0.00    +0.466 C 
ATOM     44  O   UNL     1       0.016   0.062  -0.011  0.00  0.00    -0.453 OA
ENDBRANCH  35  36
ENDBRANCH  32  35
ENDBRANCH  31  32
ENDBRANCH  30  31
ENDBRANCH  24  30
TORSDOF 7
