REMARK  Name = ZINC67479596
REMARK  7 active torsions:
REMARK  status: ('A' for Active; 'I' for Inactive)
REMARK    1  A    between atoms: C_4  and  C_7
REMARK    2  A    between atoms: C_7  and  N_8
REMARK    3  A    between atoms: C_12  and  C_14
REMARK    4  A    between atoms: C_14  and  N_15
REMARK    5  A    between atoms: N_18  and  C_19
REMARK    6  A    between atoms: N_22  and  C_25
REMARK    7  A    between atoms: C_25  and  C_26
REMARK                            x       y       z     vdW  Elec       q    Type
REMARK                         _______ _______ _______ _____ _____    ______ ____
ROOT
ATOM      1  N   UNL     1       3.828  -1.899  -6.158  0.00  0.00    -0.301 N 
ATOM      2  C   UNL     1       4.145  -1.024  -7.133  0.00  0.00    +0.300 C 
ATOM      3  O   UNL     1       4.183   0.167  -6.892  0.00  0.00    -0.253 OA
ATOM      4  N   UNL     1       4.421  -1.470  -8.374  0.00  0.00    -0.297 N 
ATOM      5  H   UNL     1       3.798  -2.849  -6.350  0.00  0.00    +0.150 HD
ATOM      6  H   UNL     1       4.391  -2.420  -8.566  0.00  0.00    +0.151 HD
ENDROOT
BRANCH   4   7
ATOM      7  C   UNL     1       4.766  -0.519  -9.434  0.00  0.00    +0.071 C 
ATOM      8  C   UNL     1       3.484   0.015 -10.080  0.00  0.00    +0.004 C 
ATOM      9  C   UNL     1       3.853   0.946 -11.237  0.00  0.00    -0.077 C 
ATOM     10  N   UNL     1       4.633   0.206 -12.236  0.00  0.00    +0.383 N 
ATOM     11  C   UNL     1       5.897  -0.248 -11.643  0.00  0.00    -0.077 C 
ATOM     12  C   UNL     1       5.608  -1.225 -10.502  0.00  0.00    +0.004 C 
ATOM     13  H   UNL     1       4.104  -0.593 -12.550  0.00  0.00    -0.082 HD
BRANCH  10  14
ATOM     14  C   UNL     1       4.918   1.082 -13.380  0.00  0.00    -0.006 C 
BRANCH  14  15
ATOM     15  C   UNL     1       3.614   1.402 -14.114  0.00  0.00    +0.325 C 
ATOM     16  F   UNL     1       2.958   0.210 -14.442  0.00  0.00    -0.211 F 
ATOM     17  F   UNL     1       2.791   2.174 -13.287  0.00  0.00    -0.211 F 
ENDBRANCH  14  15
ENDBRANCH  10  14
ENDBRANCH   4   7
BRANCH   1  18
ATOM     18  C   UNL     1       3.528  -1.414  -4.808  0.00  0.00    +0.090 C 
BRANCH  18  23
ATOM     19  N   UNL     1       2.924  -2.132  -2.534  0.00  0.00    +0.383 N 
ATOM     20  C   UNL     1       3.952  -2.551  -1.558  0.00  0.00    -0.078 C 
ATOM     21  C   UNL     1       4.636  -3.781  -2.207  0.00  0.00    -0.020 C 
ATOM     22  C   UNL     1       4.652  -3.376  -3.705  0.00  0.00    -0.016 C 
ATOM     23  C   UNL     1       3.325  -2.607  -3.872  0.00  0.00    -0.051 C 
ATOM     24  H   UNL     1       2.035  -2.537  -2.283  0.00  0.00    -0.081 HD
BRANCH  19  25
ATOM     25  C   UNL     1       2.817  -0.667  -2.542  0.00  0.00    -0.075 C 
BRANCH  25  29
ATOM     26  C   UNL     1       0.415   1.319   0.461  0.00  0.00    +0.000 C 
ATOM     27  C   UNL     1       1.839   1.827   0.224  0.00  0.00    +0.000 C 
ATOM     28  C   UNL     1       2.332   1.345  -1.142  0.00  0.00    +0.002 C 
ATOM     29  C   UNL     1       2.324  -0.185  -1.176  0.00  0.00    -0.028 C 
ATOM     30  C   UNL     1       0.901  -0.693  -0.939  0.00  0.00    +0.002 C 
ATOM     31  C   UNL     1       0.407  -0.211   0.426  0.00  0.00    +0.000 C 
ENDBRANCH  25  29
ENDBRANCH  19  25
ENDBRANCH  18  23
ENDBRANCH   1  18
TORSDOF 7
