REMARK  Name = ZINC11165743
REMARK  6 active torsions:
REMARK  status: ('A' for Active; 'I' for Inactive)
REMARK    1  A    between atoms: C_1  and  C_2
REMARK    2  A    between atoms: C_2  and  N_3
REMARK    3  A    between atoms: N_14  and  N_15
REMARK    4  A    between atoms: C_16  and  C_18
REMARK    5  A    between atoms: C_20  and  C_29
REMARK    6  A    between atoms: N_22  and  C_23
REMARK                            x       y       z     vdW  Elec       q    Type
REMARK                         _______ _______ _______ _____ _____    ______ ____
ROOT
ATOM      1  N   UNL     1      -3.588  -1.995   0.986  0.00  0.00    -0.229 N 
ATOM      2  C   UNL     1      -4.755  -2.657   0.863  0.00  0.00    +0.279 C 
ATOM      3  O   UNL     1      -4.791  -3.862   1.022  0.00  0.00    -0.267 OA
ATOM      4  H   UNL     1      -3.571  -1.027   0.931  0.00  0.00    +0.173 HD
ENDROOT
BRANCH   1  16
ATOM      5  N   UNL     1      -0.105  -2.753   1.711  0.00  0.00    -0.280 N 
ATOM      6  C   UNL     1       1.072  -2.130   1.952  0.00  0.00    +0.263 A 
ATOM      7  O   UNL     1       2.081  -2.762   2.204  0.00  0.00    -0.267 OA
ATOM      8  C   UNL     1       1.087  -0.661   1.899  0.00  0.00    +0.065 A 
ATOM      9  C   UNL     1       2.248   0.073   2.133  0.00  0.00    +0.015 A 
ATOM     10  C   UNL     1       2.205   1.439   2.071  0.00  0.00    +0.001 A 
ATOM     11  C   UNL     1       1.019   2.099   1.779  0.00  0.00    +0.002 A 
ATOM     12  C   UNL     1      -0.134   1.404   1.546  0.00  0.00    +0.028 A 
ATOM     13  C   UNL     1      -0.122   0.007   1.601  0.00  0.00    +0.080 A 
ATOM     14  N   UNL     1      -1.241  -0.721   1.377  0.00  0.00    -0.214 NA
ATOM     15  C   UNL     1      -1.228  -2.030   1.431  0.00  0.00    +0.216 A 
ATOM     16  N   UNL     1      -2.398  -2.705   1.194  0.00  0.00    -0.233 N 
ATOM     17  H   UNL     1      -2.402  -3.675   1.171  0.00  0.00    +0.173 HD
BRANCH   5  19
ATOM     18  C   UNL     1      -0.515  -4.671   3.171  0.00  0.00    +0.027 C 
ATOM     19  C   UNL     1      -0.174  -4.215   1.751  0.00  0.00    +0.125 C 
ENDBRANCH   5  19
ENDBRANCH   1  16
BRANCH   2  20
ATOM     20  C   UNL     1      -5.987  -1.921   0.534  0.00  0.00    +0.131 A 
ATOM     21  C   UNL     1      -6.119  -0.554   0.433  0.00  0.00    +0.066 A 
ATOM     22  C   UNL     1      -7.456  -0.279   0.103  0.00  0.00    +0.129 A 
ATOM     23  N   UNL     1      -8.107  -1.423   0.007  0.00  0.00    -0.163 NA
ATOM     24  N   UNL     1      -7.213  -2.470   0.265  0.00  0.00    -0.227 N 
BRANCH  24  25
ATOM     25  C   UNL     1      -7.520  -3.835   0.254  0.00  0.00    +0.066 A 
ATOM     26  C   UNL     1      -6.664  -4.736  -0.367  0.00  0.00    +0.028 A 
ATOM     27  C   UNL     1      -6.967  -6.083  -0.372  0.00  0.00    +0.002 A 
ATOM     28  C   UNL     1      -8.126  -6.535   0.232  0.00  0.00    +0.000 A 
ATOM     29  C   UNL     1      -8.983  -5.641   0.847  0.00  0.00    +0.002 A 
ATOM     30  C   UNL     1      -8.683  -4.293   0.860  0.00  0.00    +0.028 A 
ENDBRANCH  24  25
BRANCH  22  31
ATOM     31  C   UNL     1      -8.037   1.065  -0.102  0.00  0.00    +0.155 A 
ATOM     32  C   UNL     1      -9.329   1.334  -0.427  0.00  0.00    +0.051 A 
ATOM     33  C   UNL     1      -9.441   2.737  -0.518  0.00  0.00    +0.042 A 
ATOM     34  C   UNL     1      -8.223   3.248  -0.256  0.00  0.00    +0.196 A 
ATOM     35  O   UNL     1      -7.377   2.235  -0.005  0.00  0.00    -0.461 OA
ENDBRANCH  22  31
ENDBRANCH   2  20
TORSDOF 5
