REMARK  Name = ZINC11087399
REMARK  5 active torsions:
REMARK  status: ('A' for Active; 'I' for Inactive)
REMARK    1  A    between atoms: C_1  and  C_2
REMARK    2  A    between atoms: C_16  and  C_17
REMARK    3  A    between atoms: C_16  and  N_58
REMARK    4  A    between atoms: N_22  and  C_23
REMARK    5  A    between atoms: C_23  and  C_24
REMARK                            x       y       z     vdW  Elec       q    Type
REMARK                         _______ _______ _______ _____ _____    ______ ____
ROOT
ATOM      1  C   UNL     1      -3.083  -2.089   1.800  0.00  0.00    -0.008 C 
ATOM      2  C   UNL     1      -2.432  -2.803   0.614  0.00  0.00    -0.040 C 
ATOM      3  C   UNL     1      -1.141  -2.111   0.265  0.00  0.00    -0.054 A 
ATOM      4  C   UNL     1      -1.112  -0.724   0.269  0.00  0.00    +0.051 A 
ATOM      5  C   UNL     1       0.051  -0.043  -0.050  0.00  0.00    +0.162 A 
ATOM      6  C   UNL     1       1.198  -0.758  -0.377  0.00  0.00    +0.162 A 
ATOM      7  C   UNL     1       1.164  -2.142  -0.381  0.00  0.00    +0.053 A 
ATOM      8  C   UNL     1      -0.002  -2.819  -0.059  0.00  0.00    -0.038 A 
ATOM      9  C   UNL     1       0.011  -4.324  -0.067  0.00  0.00    -0.019 C 
ATOM     10  C   UNL     1       0.783  -4.829  -1.300  0.00  0.00    +0.010 C 
ATOM     11  C   UNL     1       2.216  -5.085  -0.769  0.00  0.00    +0.001 C 
ATOM     12  C   UNL     1       1.960  -5.657   0.648  0.00  0.00    +0.001 C 
ATOM     13  C   UNL     1       0.756  -4.846   1.171  0.00  0.00    +0.010 C 
ATOM     14  C   UNL     1      -1.413  -4.873  -0.089  0.00  0.00    -0.066 C 
ATOM     15  O   UNL     1       2.351  -0.113  -0.684  0.00  0.00    -0.485 OA
ATOM     16  C   UNL     1       2.315   1.279  -0.958  0.00  0.00    +0.270 C 
ATOM     17  C   UNL     1       1.301   1.999  -0.083  0.00  0.00    +0.270 C 
ATOM     18  O   UNL     1       0.059   1.312  -0.044  0.00  0.00    -0.485 OA
ATOM     19  N   UNL     1      -2.172  -4.203   0.989  0.00  0.00    +0.390 N 
ATOM     20  H   UNL     1      -1.617  -4.222   1.852  0.00  0.00    -0.080 HD
ENDROOT
BRANCH  19  21
ATOM     21  C   UNL     1      -3.450  -4.910   1.224  0.00  0.00    +0.020 C 
BRANCH  21  22
ATOM     22  C   UNL     1      -3.167  -6.198   1.955  0.00  0.00    +0.204 C 
ATOM     23  O   UNL     1      -2.040  -6.450   2.324  0.00  0.00    -0.277 OA
ATOM     24  N   UNL     1      -4.166  -7.069   2.198  0.00  0.00    -0.242 N 
ATOM     25  C   UNL     1      -3.913  -8.220   2.851  0.00  0.00    +0.306 C 
ATOM     26  O   UNL     1      -2.783  -8.473   3.221  0.00  0.00    -0.252 OA
ATOM     27  N   UNL     1      -4.912  -9.091   3.094  0.00  0.00    -0.296 N 
ATOM     28  H   UNL     1      -5.068  -6.867   1.903  0.00  0.00    +0.159 HD
ATOM     29  H   UNL     1      -5.814  -8.889   2.799  0.00  0.00    +0.151 HD
BRANCH  27  30
ATOM     30  C   UNL     1      -4.637 -10.342   3.804  0.00  0.00    +0.132 C 
BRANCH  30  31
ATOM     31  C   UNL     1      -5.913 -11.131   3.946  0.00  0.00    -0.016 C 
ATOM     32  C   UNL     1      -5.973 -12.365   3.510  0.00  0.00    +0.005 C 
ENDBRANCH  30  31
ENDBRANCH  27  30
ENDBRANCH  21  22
ENDBRANCH  19  21
TORSDOF 4
