REMARK  Name = ZINC08600836
REMARK  9 active torsions:
REMARK  status: ('A' for Active; 'I' for Inactive)
REMARK    1  A    between atoms: C_1  and  C_2
REMARK    2  A    between atoms: C_2  and  C_3
REMARK    3  A    between atoms: C_2  and  C_4
REMARK    4  A    between atoms: C_4  and  C_5
REMARK    5  A    between atoms: C_5  and  N_6
REMARK    6  A    between atoms: C_7  and  C_9
REMARK    7  A    between atoms: N_12  and  S_15
REMARK    8  A    between atoms: S_15  and  C_18
REMARK    9  A    between atoms: C_28  and  C_30
REMARK                            x       y       z     vdW  Elec       q    Type
REMARK                         _______ _______ _______ _____ _____    ______ ____
ROOT
ATOM      1  S   UNL     1       0.595  -3.434   9.815  0.00  0.00    +0.061 S 
ATOM      2  O   UNL     1      -0.532  -3.034  10.582  0.00  0.00    -0.153 OA
ATOM      3  O   UNL     1       0.592  -4.605   9.009  0.00  0.00    -0.153 OA
ENDROOT
BRANCH   1   4
ATOM      4  C   UNL     1       1.938  -3.604  10.943  0.00  0.00    +0.106 A 
ATOM      5  C   UNL     1       3.007  -4.422  10.626  0.00  0.00    +0.030 A 
ATOM      6  C   UNL     1       4.058  -4.556  11.511  0.00  0.00    +0.026 A 
ATOM      7  C   UNL     1       4.041  -3.868  12.719  0.00  0.00    +0.040 A 
ATOM      8  C   UNL     1       2.972  -3.046  13.036  0.00  0.00    -0.024 A 
ATOM      9  C   UNL     1       1.923  -2.915  12.140  0.00  0.00    +0.034 A 
ATOM     10  C   UNL     1       2.925  -2.278  14.330  0.00  0.00    +0.038 C 
ATOM     11  C   UNL     1       3.861  -2.908  15.361  0.00  0.00    +0.024 C 
ATOM     12  C   UNL     1       5.249  -3.083  14.729  0.00  0.00    +0.114 C 
ATOM     13  N   UNL     1       5.116  -4.021  13.606  0.00  0.00    -0.271 N 
ATOM     14  C   UNL     1       6.012  -5.013  13.433  0.00  0.00    +0.217 C 
ATOM     15  O   UNL     1       5.833  -5.848  12.571  0.00  0.00    -0.276 OA
ATOM     16  C   UNL     1       7.236  -5.084  14.308  0.00  0.00    +0.109 C 
ENDBRANCH   1   4
BRANCH   1  20
ATOM     17  C   UNL     1       0.603  -0.315   6.703  0.00  0.00    +0.077 C 
ATOM     18  C   UNL     1       0.892  -1.787   6.400  0.00  0.00    +0.030 C 
ATOM     19  C   UNL     1       1.692  -2.395   7.557  0.00  0.00    +0.110 C 
ATOM     20  N   UNL     1       0.958  -2.169   8.809  0.00  0.00    -0.177 NA
ATOM     21  C   UNL     1       0.551  -0.800   9.153  0.00  0.00    +0.110 C 
ATOM     22  C   UNL     1      -0.236  -0.210   7.978  0.00  0.00    +0.030 C 
BRANCH  17  24
ATOM     23  N   UNL     1       0.393   0.316   4.320  0.00  0.00    -0.315 N 
ATOM     24  C   UNL     1      -0.154   0.295   5.552  0.00  0.00    +0.216 C 
ATOM     25  O   UNL     1      -1.257   0.767   5.733  0.00  0.00    -0.276 OA
ATOM     26  H   UNL     1       1.275  -0.062   4.175  0.00  0.00    +0.149 HD
BRANCH  23  27
ATOM     27  C   UNL     1      -0.343   0.908   3.201  0.00  0.00    +0.104 C 
BRANCH  27  28
ATOM     28  C   UNL     1       0.496   0.804   1.926  0.00  0.00    +0.022 C 
BRANCH  28  30
ATOM     29  C   UNL     1      -0.452   2.923   1.002  0.00  0.00    +0.007 C 
ATOM     30  C   UNL     1      -0.273   1.423   0.757  0.00  0.00    -0.016 C 
ATOM     31  C   UNL     1       0.509   1.208  -0.539  0.00  0.00    +0.007 C 
ENDBRANCH  28  30
ENDBRANCH  27  28
ENDBRANCH  23  27
ENDBRANCH  17  24
ENDBRANCH   1  20
TORSDOF 6
