REMARK  Name = ZINC15358678
REMARK  13 active torsions:
REMARK  status: ('A' for Active; 'I' for Inactive)
REMARK    1  A    between atoms: C_1  and  C_2
REMARK    2  A    between atoms: C_2  and  O_3
REMARK    3  A    between atoms: O_3  and  C_4
REMARK    4  A    between atoms: C_4  and  C_6
REMARK    5  A    between atoms: C_7  and  C_33
REMARK    6  A    between atoms: C_8  and  C_29
REMARK    7  A    between atoms: C_10  and  N_11
REMARK    8  A    between atoms: C_12  and  C_14
REMARK    9  A    between atoms: C_14  and  N_56
REMARK   10  A    between atoms: C_15  and  C_17
REMARK   11  A    between atoms: C_15  and  C_24
REMARK   12  A    between atoms: C_15  and  N_56
REMARK   13  A    between atoms: N_31  and  C_32
REMARK                            x       y       z     vdW  Elec       q    Type
REMARK                         _______ _______ _______ _____ _____    ______ ____
ROOT
ATOM      1  N   UNL     1       0.002  -0.004   0.002  0.00  0.00    -0.281 N 
ATOM      2  C   UNL     1      -1.156  -0.694   0.009  0.00  0.00    +0.201 C 
ATOM      3  O   UNL     1      -2.214  -0.102   0.023  0.00  0.00    -0.278 OA
ATOM      4  H   UNL     1       0.849  -0.478  -0.009  0.00  0.00    +0.155 HD
ENDROOT
BRANCH   1   9
ATOM      5  C   UNL     1       1.065   2.264   0.004  0.00  0.00    +0.091 A 
ATOM      6  C   UNL     1       0.786   3.622   0.013  0.00  0.00    -0.015 A 
ATOM      7  C   UNL     1      -0.528   4.001   0.028  0.00  0.00    +0.079 A 
ATOM      8  S   UNL     1      -1.387   2.439   0.021  0.00  0.00    -0.068 S 
ATOM      9  C   UNL     1      -0.017   1.377   0.010  0.00  0.00    +0.087 A 
ATOM     10  C   UNL     1       1.893   4.645   0.009  0.00  0.00    +0.046 C 
BRANCH   7  11
ATOM     11  C   UNL     1      -1.090   5.353   0.040  0.00  0.00    +0.251 C 
ATOM     12  O   UNL     1      -0.350   6.320   0.038  0.00  0.00    -0.270 OA
ATOM     13  N   UNL     1      -2.426   5.527   0.053  0.00  0.00    -0.314 N 
ATOM     14  C   UNL     1      -2.989   6.880   0.065  0.00  0.00    +0.128 C 
ATOM     15  H   UNL     1      -3.016   4.757   0.055  0.00  0.00    +0.149 HD
ENDBRANCH   7  11
BRANCH   5  16
ATOM     16  C   UNL     1       2.448   1.773  -0.011  0.00  0.00    +0.342 C 
ATOM     17  O   UNL     1       3.012   1.575  -1.070  0.00  0.00    -0.245 OA
BRANCH  16  18
ATOM     18  O   UNL     1       3.094   1.542   1.150  0.00  0.00    -0.461 OA
BRANCH  18  20
ATOM     19  C   UNL     1       5.023   0.854   2.467  0.00  0.00    +0.048 C 
ATOM     20  C   UNL     1       4.460   1.057   1.059  0.00  0.00    +0.229 C 
ENDBRANCH  18  20
ENDBRANCH  16  18
ENDBRANCH   5  16
ENDBRANCH   1   9
BRANCH   2  21
ATOM     21  C   UNL     1      -1.135  -2.201   0.001  0.00  0.00    +0.016 C 
BRANCH  21  22
ATOM     22  N   UNL     1      -2.522  -2.703   0.012  0.00  0.00    +0.392 N 
ATOM     23  H   UNL     1      -3.014  -2.356  -0.820  0.00  0.00    -0.084 HD
ATOM     24  H   UNL     1      -2.998  -2.365   0.856  0.00  0.00    -0.084 HD
BRANCH  22  25
ATOM     25  C   UNL     1      -2.533  -4.178   0.004  0.00  0.00    -0.003 C 
BRANCH  25  26
ATOM     26  C   UNL     1      -3.821  -4.667   0.614  0.00  0.00    -0.056 A 
ATOM     27  C   UNL     1      -5.007  -4.011   0.340  0.00  0.00    +0.005 A 
ATOM     28  C   UNL     1      -6.190  -4.462   0.895  0.00  0.00    +0.038 A 
ATOM     29  C   UNL     1      -6.185  -5.563   1.734  0.00  0.00    +0.123 A 
ATOM     30  C   UNL     1      -4.996  -6.215   2.012  0.00  0.00    +0.038 A 
ATOM     31  C   UNL     1      -3.815  -5.766   1.452  0.00  0.00    +0.005 A 
ATOM     32  F   UNL     1      -7.340  -6.001   2.281  0.00  0.00    -0.205 F 
ENDBRANCH  25  26
BRANCH  25  33
ATOM     33  C   UNL     1      -2.429  -4.674  -1.415  0.00  0.00    -0.020 A 
ATOM     34  C   UNL     1      -1.726  -5.726  -1.903  0.00  0.00    +0.010 A 
ATOM     35  C   UNL     1      -1.780  -5.999  -3.257  0.00  0.00    +0.008 A 
ATOM     36  C   UNL     1      -2.534  -5.206  -4.057  0.00  0.00    +0.045 A 
ATOM     37  S   UNL     1      -3.206  -4.034  -2.890  0.00  0.00    -0.103 S 
ENDBRANCH  25  33
ENDBRANCH  22  25
ENDBRANCH  21  22
ENDBRANCH   2  21
TORSDOF 10
