REMARK  Name = ZINC11067769
REMARK  9 active torsions:
REMARK  status: ('A' for Active; 'I' for Inactive)
REMARK    1  A    between atoms: C_1  and  C_2
REMARK    2  A    between atoms: C_6  and  S_13
REMARK    3  A    between atoms: N_7  and  C_10
REMARK    4  A    between atoms: C_10  and  C_11
REMARK    5  A    between atoms: S_13  and  C_14
REMARK    6  A    between atoms: C_14  and  C_16
REMARK    7  A    between atoms: C_14  and  C_17
REMARK    8  A    between atoms: N_22  and  C_23
REMARK    9  A    between atoms: C_27  and  C_28
REMARK                            x       y       z     vdW  Elec       q    Type
REMARK                         _______ _______ _______ _____ _____    ______ ____
ROOT
ATOM      1  C   UNL     1      -1.899   3.166  -4.994  0.00  0.00    +0.046 C 
ATOM      2  C   UNL     1      -2.846   2.043  -4.659  0.00  0.00    -0.021 A 
ATOM      3  C   UNL     1      -2.847   1.484  -3.370  0.00  0.00    +0.076 A 
ATOM      4  C   UNL     1      -3.769   0.437  -3.159  0.00  0.00    +0.117 A 
ATOM      5  N   UNL     1      -3.880  -0.181  -1.992  0.00  0.00    -0.216 NA
ATOM      6  C   UNL     1      -3.122   0.162  -0.969  0.00  0.00    +0.174 A 
ATOM      7  N   UNL     1      -2.202   1.163  -1.084  0.00  0.00    -0.283 N 
ATOM      8  C   UNL     1      -2.042   1.836  -2.238  0.00  0.00    +0.263 A 
ATOM      9  O   UNL     1      -1.219   2.731  -2.321  0.00  0.00    -0.267 OA
ATOM     10  S   UNL     1      -4.576   0.282  -4.733  0.00  0.00    -0.068 S 
ATOM     11  C   UNL     1      -3.698   1.568  -5.602  0.00  0.00    +0.025 A 
ENDROOT
BRANCH  11  12
ATOM     12  C   UNL     1      -3.858   2.008  -7.004  0.00  0.00    -0.011 A 
ATOM     13  C   UNL     1      -5.132   2.248  -7.522  0.00  0.00    +0.009 A 
ATOM     14  C   UNL     1      -5.274   2.663  -8.830  0.00  0.00    +0.001 A 
ATOM     15  C   UNL     1      -4.159   2.832  -9.631  0.00  0.00    +0.000 A 
ATOM     16  C   UNL     1      -2.894   2.591  -9.125  0.00  0.00    +0.001 A 
ATOM     17  C   UNL     1      -2.737   2.181  -7.817  0.00  0.00    +0.009 A 
ENDBRANCH  11  12
BRANCH   7  18
ATOM     18  C   UNL     1      -1.377   1.517   0.074  0.00  0.00    +0.154 C 
BRANCH  18  19
ATOM     19  C   UNL     1      -0.116   0.693   0.062  0.00  0.00    -0.013 C 
ATOM     20  C   UNL     1       1.053   1.284   0.097  0.00  0.00    +0.005 C 
ENDBRANCH  18  19
ENDBRANCH   7  18
BRANCH   6  21
ATOM     21  S   UNL     1      -3.298  -0.685   0.566  0.00  0.00    -0.075 S 
BRANCH  21  22
ATOM     22  C   UNL     1      -4.609  -1.855   0.132  0.00  0.00    +0.137 C 
ATOM     23  C   UNL     1      -4.094  -2.826  -0.932  0.00  0.00    +0.029 C 
BRANCH  22  24
ATOM     24  C   UNL     1      -5.021  -2.626   1.359  0.00  0.00    +0.233 C 
ATOM     25  O   UNL     1      -4.277  -2.689   2.314  0.00  0.00    -0.274 OA
ATOM     26  N   UNL     1      -6.217  -3.247   1.395  0.00  0.00    -0.239 N 
ATOM     27  C   UNL     1      -6.586  -3.937   2.492  0.00  0.00    +0.306 C 
ATOM     28  O   UNL     1      -5.840  -3.999   3.450  0.00  0.00    -0.252 OA
ATOM     29  N   UNL     1      -7.782  -4.557   2.528  0.00  0.00    -0.296 N 
ATOM     30  H   UNL     1      -6.813  -3.197   0.631  0.00  0.00    +0.159 HD
ATOM     31  H   UNL     1      -8.377  -4.507   1.764  0.00  0.00    +0.151 HD
BRANCH  29  32
ATOM     32  C   UNL     1      -8.182  -5.307   3.721  0.00  0.00    +0.075 C 
ATOM     33  C   UNL     1      -8.834  -6.675   3.510  0.00  0.00    +0.024 C 
ATOM     34  C   UNL     1      -9.681  -5.487   3.972  0.00  0.00    +0.024 C 
ENDBRANCH  29  32
ENDBRANCH  22  24
ENDBRANCH  21  22
ENDBRANCH   6  21
TORSDOF 7
