REMARK  Name = ZINC28049824
REMARK  4 active torsions:
REMARK  status: ('A' for Active; 'I' for Inactive)
REMARK    1  A    between atoms: N_11  and  N_12
REMARK    2  A    between atoms: C_16  and  C_19
REMARK    3  A    between atoms: C_19  and  C_20
REMARK    4  A    between atoms: N_22  and  C_23
REMARK                            x       y       z     vdW  Elec       q    Type
REMARK                         _______ _______ _______ _____ _____    ______ ____
ROOT
ATOM      1  N   UNL     1       2.406   3.230   0.007  0.00  0.00    -0.126 NA
ATOM      2  C   UNL     1       1.740   2.088   0.003  0.00  0.00    +0.183 C 
ATOM      3  N   UNL     1       2.232   0.830  -0.016  0.00  0.00    -0.263 N 
ATOM      4  C   UNL     1       1.509  -0.225  -0.019  0.00  0.00    +0.233 C 
ATOM      5  C   UNL     1       0.003  -0.002   0.000  0.00  0.00    +0.149 C 
ATOM      6  S   UNL     1      -0.031   1.836   0.020  0.00  0.00    -0.075 S 
ATOM      7  O   UNL     1       2.047  -1.458  -0.038  0.00  0.00    -0.274 OA
ATOM      8  H   UNL     1       3.320   0.665  -0.030  0.00  0.00    +0.157 HD
ENDROOT
BRANCH   1  19
ATOM      9  C   UNL     1       8.594   4.402  -0.057  0.00  0.00    +0.000 A 
ATOM     10  C   UNL     1       7.923   3.214   0.182  0.00  0.00    +0.001 A 
ATOM     11  C   UNL     1       6.544   3.194   0.202  0.00  0.00    +0.010 A 
ATOM     12  C   UNL     1       5.830   4.375  -0.020  0.00  0.00    +0.001 A 
ATOM     13  C   UNL     1       6.509   5.572  -0.256  0.00  0.00    -0.038 A 
ATOM     14  C   UNL     1       7.891   5.572  -0.275  0.00  0.00    +0.004 A 
ATOM     15  C   UNL     1       5.773   6.864  -0.485  0.00  0.00    +0.036 C 
ATOM     16  C   UNL     1       4.348   6.611  -0.971  0.00  0.00    +0.011 C 
ATOM     17  C   UNL     1       3.631   5.683   0.012  0.00  0.00    +0.058 C 
ATOM     18  C   UNL     1       4.355   4.352  -0.004  0.00  0.00    +0.071 C 
ATOM     19  N   UNL     1       3.696   3.224  -0.007  0.00  0.00    -0.151 NA
ENDBRANCH   1  19
BRANCH   5  20
ATOM     20  C   UNL     1      -0.660  -0.559  -1.261  0.00  0.00    +0.120 C 
BRANCH  20  21
ATOM     21  C   UNL     1      -2.133  -0.241  -1.236  0.00  0.00    +0.219 C 
ATOM     22  O   UNL     1      -2.606   0.371  -0.302  0.00  0.00    -0.275 OA
ATOM     23  N   UNL     1      -2.925  -0.636  -2.253  0.00  0.00    -0.285 N 
ATOM     24  H   UNL     1      -2.485  -1.123  -3.135  0.00  0.00    +0.155 HD
BRANCH  23  25
ATOM     25  C   UNL     1      -4.307  -0.427  -2.185  0.00  0.00    +0.033 A 
ATOM     26  C   UNL     1      -5.179  -1.355  -2.739  0.00  0.00    +0.025 A 
ATOM     27  C   UNL     1      -6.543  -1.148  -2.667  0.00  0.00    +0.022 A 
ATOM     28  C   UNL     1      -7.040  -0.012  -2.053  0.00  0.00    +0.041 A 
ATOM     29  C   UNL     1      -6.173   0.916  -1.504  0.00  0.00    +0.022 A 
ATOM     30  C   UNL     1      -4.809   0.712  -1.569  0.00  0.00    +0.025 A 
ATOM     31 CL   UNL     1      -8.755   0.248  -1.970  0.00  0.00    -0.084 Cl
ENDBRANCH  23  25
ENDBRANCH  20  21
ENDBRANCH   5  20
TORSDOF 4
