REMARK  Name = ZINC59890411
REMARK  17 active torsions:
REMARK  status: ('A' for Active; 'I' for Inactive)
REMARK    1  A    between atoms: C_1  and  C_2
REMARK    2  A    between atoms: C_2  and  C_3
REMARK    3  A    between atoms: C_3  and  C_4
REMARK    4  A    between atoms: C_4  and  N_5
REMARK    5  A    between atoms: N_14  and  C_34
REMARK    6  A    between atoms: C_15  and  C_17
REMARK    7  A    between atoms: C_17  and  C_18
REMARK    8  A    between atoms: C_18  and  C_19
REMARK    9  A    between atoms: N_21  and  C_22
REMARK   10  A    between atoms: C_22  and  C_23
REMARK   11  A    between atoms: C_23  and  N_31
REMARK   12  A    between atoms: C_27  and  C_30
REMARK   13  A    between atoms: N_31  and  C_32
REMARK   14  A    between atoms: N_31  and  C_33
REMARK   15  A    between atoms: C_34  and  C_35
REMARK   16  A    between atoms: C_35  and  C_36
REMARK   17  A    between atoms: C_35  and  C_37
REMARK                            x       y       z     vdW  Elec       q    Type
REMARK                         _______ _______ _______ _____ _____    ______ ____
ROOT
ATOM      1  N   UNL     1       1.033  -2.916   2.159  0.00  0.00    -0.277 N 
ATOM      2  C   UNL     1       2.411  -3.062   2.146  0.00  0.00    +0.168 A 
ATOM      3  C   UNL     1       3.050  -3.493   3.301  0.00  0.00    +0.151 A 
ATOM      4  C   UNL     1       2.280  -3.770   4.451  0.00  0.00    +0.280 A 
ATOM      5  O   UNL     1       2.818  -4.149   5.476  0.00  0.00    -0.265 OA
ATOM      6  N   UNL     1       0.941  -3.610   4.402  0.00  0.00    -0.273 N 
ATOM      7  H   UNL     1       0.408  -3.799   5.190  0.00  0.00    +0.173 HD
ATOM      8  C   UNL     1       0.336  -3.186   3.279  0.00  0.00    +0.331 A 
ATOM      9  O   UNL     1      -0.872  -3.047   3.273  0.00  0.00    -0.246 OA
ATOM     10  N   UNL     1       4.397  -3.546   3.001  0.00  0.00    -0.322 N 
ATOM     11  C   UNL     1       4.529  -3.158   1.717  0.00  0.00    +0.113 A 
ATOM     12  N   UNL     1       3.353  -2.874   1.218  0.00  0.00    -0.214 NA
ENDROOT
BRANCH   1  13
ATOM     13  C   UNL     1       0.334  -2.463   0.954  0.00  0.00    +0.128 C 
BRANCH  13  14
ATOM     14  C   UNL     1       0.245  -0.935   0.960  0.00  0.00    +0.021 C 
BRANCH  14  16
ATOM     15  C   UNL     1      -0.574   1.066  -0.292  0.00  0.00    +0.004 C 
ATOM     16  C   UNL     1      -0.485  -0.462  -0.298  0.00  0.00    -0.002 C 
ENDBRANCH  14  16
ENDBRANCH  13  14
ENDBRANCH   1  13
BRANCH  11  17
ATOM     17  C   UNL     1       5.834  -3.064   0.969  0.00  0.00    +0.083 C 
BRANCH  17  18
ATOM     18  C   UNL     1       6.128  -4.402   0.287  0.00  0.00    +0.103 C 
BRANCH  18  19
ATOM     19  C   UNL     1       7.433  -4.308  -0.461  0.00  0.00    +0.213 C 
ATOM     20  O   UNL     1       8.066  -3.273  -0.449  0.00  0.00    -0.276 OA
ATOM     21  N   UNL     1       7.897  -5.374  -1.142  0.00  0.00    -0.317 N 
ATOM     22  H   UNL     1       7.391  -6.202  -1.151  0.00  0.00    +0.149 HD
BRANCH  21  23
ATOM     23  C   UNL     1       9.165  -5.283  -1.869  0.00  0.00    +0.092 C 
BRANCH  23  24
ATOM     24  C   UNL     1       9.531  -6.659  -2.432  0.00  0.00    -0.050 C 
ATOM     25  C   UNL     1       8.496  -7.071  -3.481  0.00  0.00    -0.010 C 
ATOM     26  C   UNL     1       8.482  -6.044  -4.615  0.00  0.00    -0.001 C 
ATOM     27  C   UNL     1       9.867  -5.979  -5.262  0.00  0.00    +0.003 C 
ATOM     28  C   UNL     1      10.901  -5.566  -4.213  0.00  0.00    -0.015 C 
ATOM     29  C   UNL     1      10.915  -6.593  -3.079  0.00  0.00    -0.007 C 
ATOM     30  C   UNL     1      12.286  -5.501  -4.860  0.00  0.00    +0.007 C 
BRANCH  24  31
ATOM     31  N   UNL     1       9.545  -7.645  -1.343  0.00  0.00    +0.381 N 
ATOM     32  C   UNL     1       9.930  -8.958  -1.877  0.00  0.00    -0.096 C 
ATOM     33  C   UNL     1      10.512  -7.230  -0.319  0.00  0.00    -0.096 C 
ATOM     34  H   UNL     1       8.625  -7.705  -0.932  0.00  0.00    -0.082 HD
ENDBRANCH  24  31
ENDBRANCH  23  24
ENDBRANCH  21  23
ENDBRANCH  18  19
ENDBRANCH  17  18
ENDBRANCH  11  17
BRANCH  10  35
ATOM     35  C   UNL     1       5.477  -3.946   3.906  0.00  0.00    +0.126 C 
BRANCH  35  36
ATOM     36  C   UNL     1       5.704  -5.454   3.793  0.00  0.00    +0.003 C 
ATOM     37  C   UNL     1       6.912  -5.853   4.643  0.00  0.00    +0.009 C 
ATOM     38  C   UNL     1       4.463  -6.196   4.291  0.00  0.00    +0.009 C 
ENDBRANCH  35  36
ENDBRANCH  10  35
TORSDOF 11
