REMARK  Name = ZINC23263020
REMARK  6 active torsions:
REMARK  status: ('A' for Active; 'I' for Inactive)
REMARK    1  A    between atoms: C_1  and  C_2
REMARK    2  A    between atoms: C_8  and  N_10
REMARK    3  A    between atoms: C_14  and  C_16
REMARK    4  A    between atoms: C_16  and  N_17
REMARK    5  A    between atoms: N_20  and  C_23
REMARK    6  A    between atoms: C_23  and  C_24
REMARK                            x       y       z     vdW  Elec       q    Type
REMARK                         _______ _______ _______ _____ _____    ______ ____
ROOT
ATOM      1  N   UNL     1      -0.502  -5.533   8.776  0.00  0.00    -0.296 N 
ATOM      2  C   UNL     1      -0.368  -5.059   7.522  0.00  0.00    +0.306 C 
ATOM      3  O   UNL     1       0.697  -5.158   6.945  0.00  0.00    -0.252 OA
ATOM      4  N   UNL     1      -1.415  -4.474   6.907  0.00  0.00    -0.242 N 
ATOM      5  C   UNL     1      -1.282  -3.999   5.653  0.00  0.00    +0.204 C 
ATOM      6  O   UNL     1      -0.219  -4.099   5.077  0.00  0.00    -0.277 OA
ATOM      7  H   UNL     1      -1.466  -5.443   9.298  0.00  0.00    +0.151 HD
ATOM      8  H   UNL     1      -2.380  -4.384   7.429  0.00  0.00    +0.159 HD
ENDROOT
BRANCH   1  15
ATOM      9  C   UNL     1      -0.746  -8.208   9.859  0.00  0.00    +0.009 C 
ATOM     10  C   UNL     1       0.125  -7.135  10.515  0.00  0.00    +0.006 C 
ATOM     11  C   UNL     1       1.313  -7.799  11.212  0.00  0.00    +0.005 C 
ATOM     12  C   UNL     1       2.184  -6.726  11.868  0.00  0.00    +0.000 C 
ATOM     13  C   UNL     1       2.696  -5.759  10.798  0.00  0.00    +0.002 C 
ATOM     14  C   UNL     1       1.507  -5.095  10.100  0.00  0.00    +0.022 C 
ATOM     15  C   UNL     1       0.636  -6.169   9.444  0.00  0.00    +0.077 C 
ENDBRANCH   1  15
BRANCH   5  16
ATOM     16  C   UNL     1      -2.453  -3.345   4.965  0.00  0.00    +0.019 C 
BRANCH  16  17
ATOM     17  N   UNL     1      -2.100  -3.053   3.570  0.00  0.00    +0.387 N 
ATOM     18  C   UNL     1      -1.902  -4.292   2.805  0.00  0.00    -0.063 C 
ATOM     19  C   UNL     1      -1.460  -3.945   1.382  0.00  0.00    +0.066 C 
ATOM     20  N   UNL     1      -2.479  -3.096   0.748  0.00  0.00    -0.301 NA
ATOM     21  C   UNL     1      -2.676  -1.857   1.513  0.00  0.00    +0.066 C 
ATOM     22  C   UNL     1      -3.119  -2.204   2.936  0.00  0.00    -0.063 C 
ATOM     23  H   UNL     1      -1.149  -2.499   3.571  0.00  0.00    -0.081 HD
BRANCH  20  24
ATOM     24  C   UNL     1      -2.126  -2.804  -0.647  0.00  0.00    +0.126 C 
BRANCH  24  25
ATOM     25  C   UNL     1      -3.296  -2.146  -1.333  0.00  0.00    +0.004 A 
ATOM     26  C   UNL     1      -3.596  -0.828  -1.432  0.00  0.00    +0.012 A 
ATOM     27  C   UNL     1      -4.736  -0.450  -2.118  0.00  0.00    +0.008 A 
ATOM     28  C   UNL     1      -5.519  -1.408  -2.671  0.00  0.00    +0.045 A 
ATOM     29  S   UNL     1      -4.645  -2.900  -2.226  0.00  0.00    -0.100 S 
ENDBRANCH  24  25
ENDBRANCH  20  24
ENDBRANCH  16  17
ENDBRANCH   5  16
TORSDOF 5
