REMARK  Name = ZINC39599033
REMARK  7 active torsions:
REMARK  status: ('A' for Active; 'I' for Inactive)
REMARK    1  A    between atoms: C_1  and  O_2
REMARK    2  A    between atoms: O_2  and  C_3
REMARK    3  A    between atoms: C_9  and  C_12
REMARK    4  A    between atoms: C_12  and  C_13
REMARK    5  A    between atoms: C_13  and  N_14
REMARK    6  A    between atoms: C_15  and  C_17
REMARK    7  A    between atoms: C_28  and  C_30
REMARK                            x       y       z     vdW  Elec       q    Type
REMARK                         _______ _______ _______ _____ _____    ______ ____
ROOT
ATOM      1  C   UNL     1       0.046  -8.535   2.745  0.00  0.00    +0.100 C 
ATOM      2  C   UNL     1      -0.428  -9.878   2.146  0.00  0.00    +0.121 C 
ATOM      3  N   UNL     1       0.216 -10.912   2.990  0.00  0.00    -0.296 N 
ATOM      4  C   UNL     1       0.136 -10.368   4.366  0.00  0.00    +0.115 C 
ATOM      5  C   UNL     1       0.414  -8.860   4.202  0.00  0.00    -0.004 C 
ATOM      6  C   UNL     1      -0.459  -8.056   5.160  0.00  0.00    -0.010 C 
ATOM      7  C   UNL     1      -0.035  -8.352   6.602  0.00  0.00    -0.082 C 
ATOM      8  N   UNL     1       1.379  -7.997   6.781  0.00  0.00    +0.379 N 
ATOM      9  C   UNL     1       2.219  -8.841   5.923  0.00  0.00    -0.082 C 
ATOM     10  C   UNL     1       1.890  -8.566   4.453  0.00  0.00    -0.010 C 
ATOM     11  C   UNL     1       0.754 -12.083   2.595  0.00  0.00    +0.247 C 
ATOM     12  O   UNL     1       0.860 -12.334   1.410  0.00  0.00    -0.270 OA
ATOM     13  H   UNL     1       1.515  -7.029   6.534  0.00  0.00    -0.086 HD
ATOM     14  H   UNL     1       1.639  -8.136   7.745  0.00  0.00    -0.086 HD
ENDROOT
BRANCH  11  15
ATOM     15  C   UNL     1       1.214 -13.063   3.602  0.00  0.00    +0.042 A 
ATOM     16  C   UNL     1       0.728 -13.004   4.909  0.00  0.00    +0.051 A 
ATOM     17  C   UNL     1       1.162 -13.922   5.847  0.00  0.00    +0.127 A 
ATOM     18  C   UNL     1       2.078 -14.899   5.491  0.00  0.00    +0.076 A 
ATOM     19  C   UNL     1       2.564 -14.961   4.196  0.00  0.00    +0.127 A 
ATOM     20  C   UNL     1       2.133 -14.052   3.248  0.00  0.00    +0.051 A 
ATOM     21  F   UNL     1       3.457 -15.916   3.856  0.00  0.00    -0.205 F 
ATOM     22  F   UNL     1       0.693 -13.867   7.112  0.00  0.00    -0.205 F 
ENDBRANCH  11  15
BRANCH   1  24
ATOM     23  N   UNL     1      -0.775  -6.208   2.580  0.00  0.00    -0.315 N 
ATOM     24  C   UNL     1      -1.065  -7.518   2.699  0.00  0.00    +0.218 C 
ATOM     25  O   UNL     1      -2.221  -7.880   2.770  0.00  0.00    -0.275 OA
ATOM     26  H   UNL     1       0.149  -5.919   2.523  0.00  0.00    +0.149 HD
BRANCH  23  27
ATOM     27  C   UNL     1      -1.856  -5.220   2.535  0.00  0.00    +0.109 C 
BRANCH  27  28
ATOM     28  C   UNL     1      -1.259  -3.817   2.397  0.00  0.00    +0.056 C 
BRANCH  28  35
ATOM     29  C   UNL     1      -3.714  -1.583   5.725  0.00  0.00    +0.121 A 
ATOM     30  C   UNL     1      -4.664  -0.713   5.196  0.00  0.00    +0.047 A 
ATOM     31  C   UNL     1      -4.809  -0.576   3.833  0.00  0.00    +0.030 A 
ATOM     32  C   UNL     1      -4.002  -1.311   2.971  0.00  0.00    +0.047 A 
ATOM     33  N   UNL     1      -3.910  -1.391   1.598  0.00  0.00    -0.360 N 
ATOM     34  C   UNL     1      -2.934  -2.283   1.248  0.00  0.00    +0.087 A 
ATOM     35  C   UNL     1      -2.371  -2.801   2.351  0.00  0.00    -0.021 A 
ATOM     36  C   UNL     1      -3.041  -2.191   3.502  0.00  0.00    +0.006 A 
ATOM     37  C   UNL     1      -2.900  -2.317   4.886  0.00  0.00    +0.056 A 
ATOM     38  H   UNL     1      -4.457  -0.890   0.973  0.00  0.00    +0.165 HD
BRANCH  29  40
ATOM     39  C   UNL     1      -4.454  -0.913   7.883  0.00  0.00    +0.277 C 
ATOM     40  O   UNL     1      -3.584  -1.706   7.073  0.00  0.00    -0.495 OA
ENDBRANCH  29  40
ENDBRANCH  28  35
ENDBRANCH  27  28
ENDBRANCH  23  27
ENDBRANCH   1  24
TORSDOF 6
