REMARK  Name = ZINC28661744
REMARK  4 active torsions:
REMARK  status: ('A' for Active; 'I' for Inactive)
REMARK    1  A    between atoms: C_4  and  C_7
REMARK    2  A    between atoms: C_11  and  C_12
REMARK    3  A    between atoms: N_14  and  N_15
REMARK    4  A    between atoms: C_16  and  C_18
REMARK                            x       y       z     vdW  Elec       q    Type
REMARK                         _______ _______ _______ _____ _____    ______ ____
ROOT
ATOM      1  C   UNL     1       3.570   0.575  -0.029  0.00  0.00    +0.296 C 
ATOM      2  O   UNL     1       4.217   1.606  -0.030  0.00  0.00    -0.265 OA
ATOM      3  N   UNL     1       4.200  -0.616  -0.042  0.00  0.00    -0.228 N 
ATOM      4  H   UNL     1       3.616  -1.548  -0.041  0.00  0.00    +0.173 HD
ENDROOT
BRANCH   1   9
ATOM      5  C   UNL     1       1.330   1.778  -0.001  0.00  0.00    +0.032 A 
ATOM      6  C   UNL     1      -0.016   1.343   0.009  0.00  0.00    +0.050 A 
ATOM      7  C   UNL     1       0.002  -0.004   0.002  0.00  0.00    +0.196 A 
ATOM      8  O   UNL     1       1.272  -0.431  -0.012  0.00  0.00    -0.458 OA
ATOM      9  C   UNL     1       2.108   0.629  -0.015  0.00  0.00    +0.198 A 
BRANCH   5  13
ATOM     10  C   UNL     1       2.715   5.797   0.006  0.00  0.00    +0.000 A 
ATOM     11  C   UNL     1       1.752   5.401  -0.906  0.00  0.00    +0.001 A 
ATOM     12  C   UNL     1       1.299   4.098  -0.913  0.00  0.00    +0.008 A 
ATOM     13  C   UNL     1       1.813   3.179   0.001  0.00  0.00    -0.014 A 
ATOM     14  C   UNL     1       2.779   3.585   0.922  0.00  0.00    +0.008 A 
ATOM     15  C   UNL     1       3.229   4.889   0.915  0.00  0.00    +0.001 A 
ENDBRANCH   5  13
ENDBRANCH   1   9
BRANCH   3  16
ATOM     16  N   UNL     1       5.601  -0.667  -0.056  0.00  0.00    -0.230 N 
ATOM     17  C   UNL     1       6.231  -1.859  -0.068  0.00  0.00    +0.267 C 
ATOM     18  O   UNL     1       5.584  -2.889  -0.067  0.00  0.00    -0.268 OA
ATOM     19  H   UNL     1       6.185   0.264  -0.057  0.00  0.00    +0.173 HD
BRANCH  17  20
ATOM     20  C   UNL     1       7.696  -1.912  -0.083  0.00  0.00    +0.076 A 
ATOM     21  C   UNL     1       8.529  -3.017  -0.097  0.00  0.00    +0.024 A 
ATOM     22  C   UNL     1       9.901  -2.800  -0.116  0.00  0.00    -0.036 A 
ATOM     23  C   UNL     1      10.312  -1.512  -0.091  0.00  0.00    -0.006 A 
ATOM     24  S   UNL     1       8.873  -0.569  -0.096  0.00  0.00    -0.088 S 
ATOM     25  C   UNL     1      11.741  -1.020  -0.052  0.00  0.00    +0.043 C 
ATOM     26  C   UNL     1      12.377  -1.363  -1.409  0.00  0.00    +0.005 C 
ATOM     27  C   UNL     1      12.770  -2.822  -1.450  0.00  0.00    +0.001 C 
ATOM     28  C   UNL     1      11.643  -3.818  -1.540  0.00  0.00    +0.005 C 
ATOM     29  C   UNL     1      10.897  -3.963  -0.213  0.00  0.00    +0.036 C 
ENDBRANCH  17  20
ENDBRANCH   3  16
TORSDOF 4
