REMARK  Name = ZINC34685746
REMARK  10 active torsions:
REMARK  status: ('A' for Active; 'I' for Inactive)
REMARK    1  A    between atoms: C_1  and  C_2
REMARK    2  A    between atoms: C_9  and  C_11
REMARK    3  A    between atoms: C_14  and  C_16
REMARK    4  A    between atoms: C_16  and  O_17
REMARK    5  A    between atoms: O_17  and  C_18
REMARK    6  A    between atoms: C_24  and  C_35
REMARK    7  A    between atoms: C_29  and  C_31
REMARK    8  A    between atoms: C_31  and  C_32
REMARK    9  A    between atoms: C_32  and  C_33
REMARK   10  A    between atoms: C_32  and  C_34
REMARK                            x       y       z     vdW  Elec       q    Type
REMARK                         _______ _______ _______ _____ _____    ______ ____
ROOT
ATOM      1  C   UNL     1       1.438  -9.747   0.829  0.00  0.00    +0.122 A 
ATOM      2  C   UNL     1       2.606 -10.423   1.153  0.00  0.00    +0.046 A 
ATOM      3  C   UNL     1       2.623 -11.282   2.229  0.00  0.00    +0.007 A 
ATOM      4  C   UNL     1       1.481 -11.478   2.998  0.00  0.00    -0.040 A 
ATOM      5  C   UNL     1       0.324 -10.801   2.683  0.00  0.00    -0.016 A 
ATOM      6  C   UNL     1       0.303  -9.936   1.598  0.00  0.00    +0.051 A 
ATOM      7  C   UNL     1      -0.941 -10.945   3.491  0.00  0.00    +0.137 C 
ATOM      8  N   UNL     1      -0.809 -12.075   4.417  0.00  0.00    -0.290 N 
ATOM      9  C   UNL     1       0.456 -12.196   5.160  0.00  0.00    +0.113 C 
ATOM     10  C   UNL     1       1.573 -12.445   4.149  0.00  0.00    +0.054 C 
ATOM     11  C   UNL     1      -1.807 -12.966   4.582  0.00  0.00    +0.217 C 
ATOM     12  O   UNL     1      -2.867 -12.800   4.017  0.00  0.00    -0.276 OA
ENDROOT
BRANCH   7  13
ATOM     13  C   UNL     1      -2.103 -11.190   2.564  0.00  0.00    -0.023 A 
ATOM     14  C   UNL     1      -2.195 -12.383   1.871  0.00  0.00    +0.006 A 
ATOM     15  C   UNL     1      -3.261 -12.607   1.020  0.00  0.00    +0.000 A 
ATOM     16  C   UNL     1      -4.236 -11.640   0.864  0.00  0.00    +0.000 A 
ATOM     17  C   UNL     1      -4.145 -10.448   1.558  0.00  0.00    +0.000 A 
ATOM     18  C   UNL     1      -3.081 -10.225   2.411  0.00  0.00    +0.006 A 
ENDBRANCH   7  13
BRANCH   1  19
ATOM     19  O   UNL     1       1.411  -8.901  -0.234  0.00  0.00    -0.483 OA
BRANCH  19  20
ATOM     20  C   UNL     1       2.620  -8.757  -0.981  0.00  0.00    +0.324 C 
BRANCH  20  24
ATOM     21  C   UNL     1       2.283  -5.962  -3.260  0.00  0.00    +0.164 A 
ATOM     22  C   UNL     1       1.905  -6.987  -4.072  0.00  0.00    +0.230 A 
ATOM     23  O   UNL     1       1.984  -8.112  -3.345  0.00  0.00    -0.444 OA
ATOM     24  C   UNL     1       2.400  -7.787  -2.113  0.00  0.00    +0.234 A 
ATOM     25  N   UNL     1       2.588  -6.502  -2.050  0.00  0.00    -0.206 NA
BRANCH  21  33
ATOM     26  C   UNL     1       2.669   0.129  -2.385  0.00  0.00    -0.012 C 
ATOM     27  C   UNL     1       2.357  -1.338  -2.082  0.00  0.00    -0.057 C 
ATOM     28  C   UNL     1       3.033  -2.231  -3.127  0.00  0.00    +0.092 C 
ATOM     29  N   UNL     1       2.829  -3.636  -2.741  0.00  0.00    -0.300 N 
ATOM     30  C   UNL     1       3.158  -4.032  -1.363  0.00  0.00    +0.089 C 
ATOM     31  C   UNL     1       2.476  -3.053  -0.401  0.00  0.00    -0.063 C 
ATOM     32  N   UNL     1       2.863  -1.679  -0.746  0.00  0.00    +0.383 N 
ATOM     33  C   UNL     1       2.354  -4.535  -3.626  0.00  0.00    +0.268 C 
ATOM     34  O   UNL     1       1.984  -4.170  -4.725  0.00  0.00    -0.268 OA
ATOM     35  H   UNL     1       3.869  -1.603  -0.739  0.00  0.00    -0.085 HD
ATOM     36  H   UNL     1       2.474  -1.042  -0.068  0.00  0.00    -0.085 HD
ENDBRANCH  21  33
ENDBRANCH  20  24
ENDBRANCH  19  20
ENDBRANCH   1  19
BRANCH  11  37
ATOM     37  C   UNL     1      -1.604 -14.169   5.467  0.00  0.00    +0.099 C 
BRANCH  37  38
ATOM     38  C   UNL     1      -2.880 -15.013   5.480  0.00  0.00    -0.008 C 
ATOM     39  C   UNL     1      -3.133 -15.578   4.081  0.00  0.00    +0.008 C 
ATOM     40  C   UNL     1      -2.719 -16.165   6.474  0.00  0.00    +0.008 C 
ENDBRANCH  37  38
ENDBRANCH  11  37
TORSDOF 7
