REMARK  Name = ZINC39467419
REMARK  4 active torsions:
REMARK  status: ('A' for Active; 'I' for Inactive)
REMARK    1  A    between atoms: C_1  and  C_2
REMARK    2  A    between atoms: C_11  and  C_13
REMARK    3  A    between atoms: N_29  and  C_30
REMARK    4  A    between atoms: C_30  and  C_31
REMARK                            x       y       z     vdW  Elec       q    Type
REMARK                         _______ _______ _______ _____ _____    ______ ____
ROOT
ATOM      1  C   UNL     1       0.408   1.815  -0.142  0.00  0.00    +0.014 C 
ATOM      2  C   UNL     1       0.405   0.293   0.021  0.00  0.00    +0.044 C 
ATOM      3  C   UNL     1       0.777  -0.342  -1.293  0.00  0.00    +0.028 A 
ATOM      4  C   UNL     1       0.388   0.059  -2.581  0.00  0.00    +0.127 A 
ATOM      5  N   UNL     1       0.799  -0.630  -3.638  0.00  0.00    -0.221 NA
ATOM      6  C   UNL     1       1.571  -1.691  -3.514  0.00  0.00    +0.224 A 
ATOM      7  N   UNL     1       1.970  -2.105  -2.326  0.00  0.00    -0.229 NA
ATOM      8  C   UNL     1       1.605  -1.461  -1.230  0.00  0.00    +0.106 A 
ATOM      9  S   UNL     1       1.983  -1.712   0.490  0.00  0.00    -0.092 S 
ATOM     10  C   UNL     1       1.394  -0.096   1.143  0.00  0.00    +0.146 C 
ATOM     11  N   UNL     1      -0.425   1.170  -2.749  0.00  0.00    -0.325 N 
ATOM     12  H   UNL     1      -0.796   1.621  -1.974  0.00  0.00    +0.148 HD
ENDROOT
BRANCH  10  13
ATOM     13  C   UNL     1       0.689  -0.264   2.464  0.00  0.00    +0.230 C 
ATOM     14  O   UNL     1      -0.435  -0.720   2.498  0.00  0.00    -0.274 OA
ATOM     15  N   UNL     1       1.306   0.092   3.608  0.00  0.00    -0.294 N 
ATOM     16  C   UNL     1       0.637  -0.070   4.908  0.00  0.00    +0.113 C 
ATOM     17  C   UNL     1       1.413  -1.095   5.743  0.00  0.00    +0.056 C 
ATOM     18  C   UNL     1       2.886  -0.793   5.645  0.00  0.00    -0.016 A 
ATOM     19  C   UNL     1       3.955  -1.246   6.513  0.00  0.00    +0.003 A 
ATOM     20  C   UNL     1       3.972  -2.056   7.652  0.00  0.00    +0.010 A 
ATOM     21  C   UNL     1       5.194  -2.282   8.235  0.00  0.00    +0.001 A 
ATOM     22  C   UNL     1       6.363  -1.738   7.728  0.00  0.00    +0.002 A 
ATOM     23  C   UNL     1       6.376  -0.933   6.602  0.00  0.00    +0.026 A 
ATOM     24  C   UNL     1       5.149  -0.687   5.989  0.00  0.00    +0.047 A 
ATOM     25  N   UNL     1       4.806   0.045   4.888  0.00  0.00    -0.356 N 
ATOM     26  C   UNL     1       3.453  -0.023   4.691  0.00  0.00    +0.038 A 
ATOM     27  H   UNL     1       5.428   0.538   4.330  0.00  0.00    +0.166 HD
ATOM     28  C   UNL     1       2.670   0.647   3.589  0.00  0.00    +0.161 C 
ENDBRANCH  10  13
BRANCH  11  29
ATOM     29  C   UNL     1      -0.722   1.664  -4.096  0.00  0.00    +0.138 C 
BRANCH  29  30
ATOM     30  C   UNL     1      -1.618   2.872  -4.001  0.00  0.00    -0.027 A 
ATOM     31  C   UNL     1      -2.992   2.713  -4.001  0.00  0.00    +0.009 A 
ATOM     32  C   UNL     1      -3.818   3.817  -3.914  0.00  0.00    +0.050 A 
ATOM     33  C   UNL     1      -3.272   5.088  -3.828  0.00  0.00    +0.166 A 
ATOM     34  C   UNL     1      -1.888   5.248  -3.828  0.00  0.00    +0.167 A 
ATOM     35  C   UNL     1      -1.066   4.136  -3.910  0.00  0.00    +0.054 A 
ATOM     36  O   UNL     1      -1.603   6.579  -3.735  0.00  0.00    -0.453 OA
ATOM     37  C   UNL     1      -2.822   7.259  -4.089  0.00  0.00    +0.466 C 
ATOM     38  O   UNL     1      -3.853   6.319  -3.734  0.00  0.00    -0.453 OA
ENDBRANCH  29  30
ENDBRANCH  11  29
TORSDOF 3
