REMARK  Name = ZINC39674414
REMARK  9 active torsions:
REMARK  status: ('A' for Active; 'I' for Inactive)
REMARK    1  A    between atoms: C_1  and  C_2
REMARK    2  A    between atoms: C_4  and  C_9
REMARK    3  A    between atoms: C_5  and  C_8
REMARK    4  A    between atoms: C_9  and  C_11
REMARK    5  A    between atoms: C_9  and  N_12
REMARK    6  A    between atoms: C_13  and  C_15
REMARK    7  A    between atoms: C_26  and  C_28
REMARK    8  A    between atoms: C_30  and  O_35
REMARK    9  A    between atoms: O_35  and  C_36
REMARK                            x       y       z     vdW  Elec       q    Type
REMARK                         _______ _______ _______ _____ _____    ______ ____
ROOT
ATOM      1  C   UNL     1      -2.819  -1.889  -4.699  0.00  0.00    +0.100 C 
ATOM      2  C   UNL     1      -2.346  -0.517  -5.232  0.00  0.00    +0.121 C 
ATOM      3  N   UNL     1      -2.985  -0.393  -6.563  0.00  0.00    -0.296 N 
ATOM      4  C   UNL     1      -4.342  -0.959  -6.375  0.00  0.00    +0.115 C 
ATOM      5  C   UNL     1      -4.129  -2.175  -5.451  0.00  0.00    -0.004 C 
ATOM      6  C   UNL     1      -3.995  -3.450  -6.278  0.00  0.00    -0.010 C 
ATOM      7  C   UNL     1      -5.328  -3.744  -6.972  0.00  0.00    -0.082 C 
ATOM      8  N   UNL     1      -6.383  -3.899  -5.963  0.00  0.00    +0.379 N 
ATOM      9  C   UNL     1      -6.569  -2.639  -5.234  0.00  0.00    -0.082 C 
ATOM     10  C   UNL     1      -5.288  -2.298  -4.467  0.00  0.00    -0.010 C 
ATOM     11  C   UNL     1      -2.452   0.119  -7.690  0.00  0.00    +0.248 C 
ATOM     12  O   UNL     1      -3.137   0.237  -8.687  0.00  0.00    -0.270 OA
ATOM     13  H   UNL     1      -7.247  -4.153  -6.419  0.00  0.00    -0.086 HD
ATOM     14  H   UNL     1      -6.122  -4.626  -5.315  0.00  0.00    -0.086 HD
ENDROOT
BRANCH  11  15
ATOM     15  C   UNL     1      -1.035   0.538  -7.714  0.00  0.00    +0.054 A 
ATOM     16  C   UNL     1      -0.456   1.114  -6.582  0.00  0.00    +0.059 A 
ATOM     17  C   UNL     1       0.872   1.503  -6.611  0.00  0.00    +0.121 A 
ATOM     18  C   UNL     1       1.625   1.321  -7.764  0.00  0.00    +0.047 A 
ATOM     19  C   UNL     1       1.054   0.751  -8.886  0.00  0.00    +0.019 A 
ATOM     20  C   UNL     1      -0.268   0.353  -8.867  0.00  0.00    +0.030 A 
ATOM     21 BR   UNL     1      -1.043  -0.433 -10.402  0.00  0.00    -0.050 Br
BRANCH  17  22
ATOM     22  O   UNL     1       1.440   2.065  -5.511  0.00  0.00    -0.495 OA
ATOM     23  C   UNL     1       2.814   2.443  -5.611  0.00  0.00    +0.277 C 
ENDBRANCH  17  22
ENDBRANCH  11  15
BRANCH   1  25
ATOM     24  N   UNL     1      -3.051  -2.940  -2.472  0.00  0.00    -0.309 N 
ATOM     25  C   UNL     1      -3.071  -1.816  -3.215  0.00  0.00    +0.219 C 
ATOM     26  O   UNL     1      -3.292  -0.746  -2.689  0.00  0.00    -0.275 OA
ATOM     27  H   UNL     1      -2.874  -3.796  -2.892  0.00  0.00    +0.149 HD
BRANCH  24  28
ATOM     28  C   UNL     1      -3.296  -2.870  -1.029  0.00  0.00    +0.100 C 
ATOM     29  C   UNL     1      -1.989  -2.543  -0.305  0.00  0.00    +0.033 C 
BRANCH  28  32
ATOM     30  C   UNL     1      -1.831  -5.655  -0.099  0.00  0.00    +0.039 C 
ATOM     31  C   UNL     1      -3.215  -5.573  -0.745  0.00  0.00    +0.154 C 
ATOM     32  C   UNL     1      -3.822  -4.196  -0.543  0.00  0.00    -0.001 C 
ATOM     33  C   UNL     1      -4.928  -4.433   0.165  0.00  0.00    +0.063 C 
ATOM     34  N   UNL     1      -5.066  -5.754   0.412  0.00  0.00    -0.159 NA
ATOM     35  N   UNL     1      -4.165  -6.462  -0.055  0.00  0.00    -0.180 NA
ATOM     36  C   UNL     1      -5.893  -3.371   0.625  0.00  0.00    +0.067 C 
ENDBRANCH  28  32
ENDBRANCH  24  28
ENDBRANCH   1  25
TORSDOF 5
