REMARK  Name = ZINC21755460
REMARK  11 active torsions:
REMARK  status: ('A' for Active; 'I' for Inactive)
REMARK    1  A    between atoms: C_1  and  C_2
REMARK    2  A    between atoms: C_6  and  S_9
REMARK    3  A    between atoms: C_7  and  C_8
REMARK    4  A    between atoms: S_9  and  N_12
REMARK    5  A    between atoms: N_12  and  C_13
REMARK    6  A    between atoms: C_13  and  C_14
REMARK    7  A    between atoms: C_14  and  C_16
REMARK    8  A    between atoms: C_14  and  N_25
REMARK    9  A    between atoms: C_19  and  N_22
REMARK   10  A    between atoms: N_22  and  C_23
REMARK   11  A    between atoms: N_22  and  C_24
REMARK                            x       y       z     vdW  Elec       q    Type
REMARK                         _______ _______ _______ _____ _____    ______ ____
ROOT
ATOM      1  C   UNL     1       2.667   0.742   1.109  0.00  0.00    -0.021 C 
ENDROOT
BRANCH   1   2
ATOM      2  N   UNL     1       2.159  -0.327   0.239  0.00  0.00    +0.388 N 
ATOM      3  C   UNL     1       3.111  -1.447   0.168  0.00  0.00    -0.073 C 
ATOM      4  C   UNL     1       2.394  -2.657  -0.430  0.00  0.00    +0.017 C 
ATOM      5  C   UNL     1       1.693  -2.262  -1.705  0.00  0.00    -0.048 A 
ATOM      6  C   UNL     1       1.291  -3.263  -2.576  0.00  0.00    +0.004 A 
ATOM      7  C   UNL     1       0.643  -2.944  -3.753  0.00  0.00    +0.000 A 
ATOM      8  C   UNL     1       0.393  -1.620  -4.064  0.00  0.00    +0.000 A 
ATOM      9  C   UNL     1       0.794  -0.623  -3.197  0.00  0.00    +0.002 A 
ATOM     10  C   UNL     1       1.448  -0.942  -2.016  0.00  0.00    -0.061 A 
ATOM     11  C   UNL     1       1.873   0.181  -1.107  0.00  0.00    -0.042 C 
ATOM     12  H   UNL     1       1.218  -0.694   0.675  0.00  0.00    -0.080 HD
ENDBRANCH   1   2
BRANCH   1  13
ATOM     13  C   UNL     1       3.822   1.434   0.432  0.00  0.00    -0.060 A 
ATOM     14  C   UNL     1       3.584   2.333  -0.591  0.00  0.00    +0.004 A 
ATOM     15  C   UNL     1       4.640   2.973  -1.210  0.00  0.00    +0.023 A 
ATOM     16  C   UNL     1       5.943   2.705  -0.810  0.00  0.00    +0.029 A 
ATOM     17  C   UNL     1       6.179   1.797   0.215  0.00  0.00    +0.023 A 
ATOM     18  C   UNL     1       5.118   1.164   0.833  0.00  0.00    +0.004 A 
BRANCH  16  19
ATOM     19  N   UNL     1       7.014   3.346  -1.437  0.00  0.00    -0.336 N 
ATOM     20  C   UNL     1       8.390   3.002  -1.071  0.00  0.00    +0.129 C 
ATOM     21  C   UNL     1       6.761   4.362  -2.462  0.00  0.00    +0.129 C 
ENDBRANCH  16  19
ENDBRANCH   1  13
BRANCH   1  22
ATOM     22  C   UNL     1       1.552   1.755   1.376  0.00  0.00    +0.095 C 
BRANCH  22  23
ATOM     23  N   UNL     1       0.383   1.061   1.924  0.00  0.00    -0.191 NA
ATOM     24  H   UNL     1       0.233  -0.009   1.720  0.00  0.00    +0.148 HD
BRANCH  23  25
ATOM     25  S   UNL     1      -0.835   1.927   2.637  0.00  0.00    +0.059 S 
ATOM     26  O   UNL     1      -1.857   0.996   2.966  0.00  0.00    -0.153 OA
ATOM     27  O   UNL     1      -0.224   2.764   3.610  0.00  0.00    -0.153 OA
BRANCH  25  33
ATOM     28  C   UNL     1      -3.353   2.716  -1.875  0.00  0.00    +0.044 C 
ATOM     29  C   UNL     1      -2.663   3.298  -0.669  0.00  0.00    -0.046 A 
ATOM     30  C   UNL     1      -2.555   4.669  -0.528  0.00  0.00    +0.004 A 
ATOM     31  C   UNL     1      -1.922   5.203   0.578  0.00  0.00    +0.002 A 
ATOM     32  C   UNL     1      -1.396   4.365   1.545  0.00  0.00    +0.029 A 
ATOM     33  C   UNL     1      -1.505   2.995   1.405  0.00  0.00    +0.108 A 
ATOM     34  C   UNL     1      -2.134   2.461   0.295  0.00  0.00    -0.021 A 
ATOM     35  C   UNL     1      -2.247   0.966   0.140  0.00  0.00    +0.046 C 
ENDBRANCH  25  33
ENDBRANCH  23  25
ENDBRANCH  22  23
ENDBRANCH   1  22
TORSDOF 7
