REMARK  Name = ZINC13941038
REMARK  5 active torsions:
REMARK  status: ('A' for Active; 'I' for Inactive)
REMARK    1  A    between atoms: C_6  and  C_7
REMARK    2  A    between atoms: C_7  and  C_9
REMARK    3  A    between atoms: C_9  and  O_10
REMARK    4  A    between atoms: O_10  and  C_11
REMARK    5  A    between atoms: C_14  and  N_17
REMARK                            x       y       z     vdW  Elec       q    Type
REMARK                         _______ _______ _______ _____ _____    ______ ____
ROOT
ATOM      1  C   UNL     1      -2.731  -4.116   0.007  0.00  0.00    +0.121 A 
ATOM      2  C   UNL     1      -1.645  -4.938  -0.258  0.00  0.00    +0.047 A 
ATOM      3  C   UNL     1      -1.803  -6.310  -0.263  0.00  0.00    +0.027 A 
ATOM      4  C   UNL     1      -3.048  -6.866  -0.004  0.00  0.00    +0.044 A 
ATOM      5  C   UNL     1      -4.134  -6.043   0.261  0.00  0.00    +0.027 A 
ATOM      6  C   UNL     1      -3.974  -4.672   0.272  0.00  0.00    +0.047 A 
ENDROOT
BRANCH   4   7
ATOM      7  N   UNL     1      -3.209  -8.261  -0.009  0.00  0.00    -0.210 N 
ATOM      8  C   UNL     1      -3.934  -8.902  -0.934  0.00  0.00    +0.231 C 
ATOM      9  O   UNL     1      -4.525  -8.377  -1.853  0.00  0.00    -0.274 OA
ATOM     10  C   UNL     1      -3.898 -10.388  -0.649  0.00  0.00    +0.095 C 
ATOM     11  C   UNL     1      -3.256 -11.114  -1.839  0.00  0.00    +0.027 C 
ATOM     12  C   UNL     1      -1.851 -10.547  -1.999  0.00  0.00    -0.026 C 
ATOM     13  C   UNL     1      -1.078 -10.629  -0.923  0.00  0.00    -0.026 C 
ATOM     14  C   UNL     1      -1.725 -11.277   0.296  0.00  0.00    +0.027 C 
ATOM     15  C   UNL     1      -3.022 -10.495   0.611  0.00  0.00    +0.095 C 
ATOM     16  C   UNL     1      -2.646  -9.059   0.906  0.00  0.00    +0.231 C 
ATOM     17  O   UNL     1      -1.947  -8.691   1.826  0.00  0.00    -0.274 OA
ATOM     18  C   UNL     1      -2.171 -12.693  -0.159  0.00  0.00    +0.001 C 
ATOM     19  C   UNL     1      -3.089 -12.601  -1.425  0.00  0.00    +0.001 C 
ATOM     20  C   UNL     1      -3.664 -13.001  -0.040  0.00  0.00    +0.009 C 
ENDBRANCH   4   7
BRANCH   1  21
ATOM     21  O   UNL     1      -2.574  -2.766   0.013  0.00  0.00    -0.484 OA
BRANCH  21  22
ATOM     22  C   UNL     1      -1.267  -2.262  -0.268  0.00  0.00    +0.308 C 
BRANCH  22  23
ATOM     23  C   UNL     1      -1.286  -0.756  -0.218  0.00  0.00    +0.200 C 
ATOM     24  O   UNL     1      -2.319  -0.172   0.034  0.00  0.00    -0.288 OA
BRANCH  23  30
ATOM     25  C   UNL     1      -0.068   1.402  -0.428  0.00  0.00    +0.012 A 
ATOM     26  C   UNL     1       1.091   2.108  -0.668  0.00  0.00    +0.016 A 
ATOM     27  C   UNL     1       2.268   1.437  -0.955  0.00  0.00    +0.018 A 
ATOM     28  C   UNL     1       2.290   0.053  -1.002  0.00  0.00    +0.016 A 
ATOM     29  C   UNL     1       1.139  -0.667  -0.764  0.00  0.00    +0.012 A 
ATOM     30  C   UNL     1      -0.054   0.004  -0.473  0.00  0.00    +0.021 A 
ATOM     31 BR   UNL     1       3.853   2.415  -1.284  0.00  0.00    -0.050 Br
ENDBRANCH  23  30
ENDBRANCH  22  23
ENDBRANCH  21  22
ENDBRANCH   1  21
TORSDOF 5
