REMARK  Name = ZINC41813182
REMARK  8 active torsions:
REMARK  status: ('A' for Active; 'I' for Inactive)
REMARK    1  A    between atoms: C_1  and  C_2
REMARK    2  A    between atoms: C_2  and  C_4
REMARK    3  A    between atoms: C_2  and  N_10
REMARK    4  A    between atoms: C_4  and  C_5
REMARK    5  A    between atoms: N_10  and  C_11
REMARK    6  A    between atoms: C_11  and  C_12
REMARK    7  A    between atoms: C_11  and  C_13
REMARK    8  A    between atoms: C_11  and  C_20
REMARK                            x       y       z     vdW  Elec       q    Type
REMARK                         _______ _______ _______ _____ _____    ______ ____
ROOT
ATOM      1  C   UNL     1       2.186   0.020   0.995  0.00  0.00    +0.059 C 
ATOM      2  C   UNL     1       1.985  -0.598   2.381  0.00  0.00    +0.006 C 
ENDROOT
BRANCH   1   3
ATOM      3  C   UNL     1       3.087  -0.867   0.175  0.00  0.00    -0.047 A 
ATOM      4  C   UNL     1       2.562  -1.619  -0.859  0.00  0.00    +0.003 A 
ATOM      5  C   UNL     1       3.388  -2.433  -1.611  0.00  0.00    +0.001 A 
ATOM      6  C   UNL     1       4.739  -2.495  -1.330  0.00  0.00    +0.015 A 
ATOM      7  C   UNL     1       5.266  -1.743  -0.295  0.00  0.00    +0.018 A 
ATOM      8  C   UNL     1       4.439  -0.924   0.454  0.00  0.00    +0.018 A 
ATOM      9 BR   UNL     1       7.115  -1.828   0.091  0.00  0.00    -0.050 Br
ENDBRANCH   1   3
BRANCH   1  10
ATOM     10  N   UNL     1       0.885   0.151   0.324  0.00  0.00    +0.394 N 
ATOM     11  H   UNL     1       0.324   0.835   0.809  0.00  0.00    -0.083 HD
ATOM     12  H   UNL     1       0.411  -0.740   0.333  0.00  0.00    -0.083 HD
BRANCH  10  14
ATOM     13  C   UNL     1       2.133   1.703  -1.101  0.00  0.00    -0.013 C 
ATOM     14  C   UNL     1       1.092   0.583  -1.064  0.00  0.00    -0.066 C 
BRANCH  14  15
ATOM     15  C   UNL     1      -0.229   1.096  -1.641  0.00  0.00    +0.058 C 
BRANCH  15  16
ATOM     16  C   UNL     1      -1.218  -0.039  -1.719  0.00  0.00    +0.103 A 
ATOM     17  C   UNL     1      -2.086  -0.394  -0.755  0.00  0.00    +0.044 A 
ATOM     18  C   UNL     1      -2.815  -1.501  -1.247  0.00  0.00    +0.041 A 
ATOM     19  C   UNL     1      -2.348  -1.756  -2.483  0.00  0.00    +0.195 A 
ATOM     20  O   UNL     1      -1.385  -0.864  -2.766  0.00  0.00    -0.468 OA
ENDBRANCH  15  16
ENDBRANCH  14  15
ENDBRANCH  10  14
ENDBRANCH   1  10
BRANCH   1  21
ATOM     21  C   UNL     1       2.816   1.381   1.139  0.00  0.00    +0.349 C 
ATOM     22  O   UNL     1       2.135   2.337   1.470  0.00  0.00    -0.248 OA
ATOM     23  O   UNL     1       4.007   1.528   0.923  0.00  0.00    -0.248 OA
ENDBRANCH   1  21
TORSDOF 6
