REMARK  Name = ZINC39861579
REMARK  4 active torsions:
REMARK  status: ('A' for Active; 'I' for Inactive)
REMARK    1  A    between atoms: C_4  and  N_10
REMARK    2  A    between atoms: C_5  and  C_7
REMARK    3  A    between atoms: C_14  and  C_15
REMARK    4  A    between atoms: C_18  and  N_21
REMARK                            x       y       z     vdW  Elec       q    Type
REMARK                         _______ _______ _______ _____ _____    ______ ____
ROOT
ATOM      1  N   UNL     1       3.125  -1.919  -0.285  0.00  0.00    -0.223 N 
ATOM      2  C   UNL     1       3.874  -1.756  -1.363  0.00  0.00    +0.263 C 
ATOM      3  O   UNL     1       3.413  -1.329  -2.405  0.00  0.00    -0.269 OA
ATOM      4  C   UNL     1       5.302  -2.118  -1.237  0.00  0.00    +0.077 C 
ATOM      5  C   UNL     1       6.294  -2.058  -2.159  0.00  0.00    +0.028 C 
ATOM      6  S   UNL     1       5.361  -2.657   0.467  0.00  0.00    -0.061 S 
ATOM      7  C   UNL     1       3.643  -2.386   0.869  0.00  0.00    +0.125 C 
ATOM      8  S   UNL     1       2.844  -2.657   2.359  0.00  0.00    -0.027 S 
ENDROOT
BRANCH   1  12
ATOM      9  C   UNL     1      -0.929  -0.945  -0.456  0.00  0.00    +0.001 A 
ATOM     10  C   UNL     1       0.004   0.010  -0.087  0.00  0.00    +0.002 A 
ATOM     11  C   UNL     1       1.346  -0.309  -0.030  0.00  0.00    +0.024 A 
ATOM     12  C   UNL     1       1.769  -1.594  -0.343  0.00  0.00    +0.055 A 
ATOM     13  C   UNL     1       0.828  -2.563  -0.716  0.00  0.00    +0.058 A 
ATOM     14  C   UNL     1      -0.526  -2.226  -0.770  0.00  0.00    +0.015 A 
BRANCH  13  15
ATOM     15  C   UNL     1       1.265  -3.932  -1.052  0.00  0.00    +0.243 C 
ATOM     16  O   UNL     1       2.445  -4.222  -1.004  0.00  0.00    -0.270 OA
ATOM     17  N   UNL     1       0.357  -4.861  -1.411  0.00  0.00    -0.325 N 
ATOM     18  H   UNL     1      -0.584  -4.630  -1.448  0.00  0.00    +0.145 HD
ATOM     19  H   UNL     1       0.644  -5.761  -1.631  0.00  0.00    +0.145 HD
ENDBRANCH  13  15
ENDBRANCH   1  12
BRANCH   5  20
ATOM     20  C   UNL     1       7.608  -2.649  -1.866  0.00  0.00    -0.024 A 
ATOM     21  C   UNL     1       8.687  -2.429  -2.729  0.00  0.00    +0.010 A 
ATOM     22  C   UNL     1       9.915  -2.986  -2.447  0.00  0.00    +0.033 A 
ATOM     23  C   UNL     1      10.083  -3.762  -1.313  0.00  0.00    +0.126 A 
ATOM     24  C   UNL     1       9.021  -3.985  -0.454  0.00  0.00    +0.033 A 
ATOM     25  C   UNL     1       7.787  -3.430  -0.719  0.00  0.00    +0.010 A 
BRANCH  23  26
ATOM     26  N   UNL     1      11.406  -4.358  -1.018  0.00  0.00    +0.056 N 
ATOM     27  O   UNL     1      12.336  -4.166  -1.766  0.00  0.00    -0.126 OA
ATOM     28  O   UNL     1      11.556  -5.036  -0.028  0.00  0.00    -0.126 OA
ENDBRANCH  23  26
ENDBRANCH   5  20
TORSDOF 4
