REMARK  Name = ZINC01065977
REMARK  12 active torsions:
REMARK  status: ('A' for Active; 'I' for Inactive)
REMARK    1  A    between atoms: C_1  and  C_2
REMARK    2  A    between atoms: C_2  and  O_3
REMARK    3  A    between atoms: O_3  and  C_4
REMARK    4  A    between atoms: C_6  and  C_12
REMARK    5  A    between atoms: C_9  and  O_10
REMARK    6  A    between atoms: O_10  and  C_11
REMARK    7  A    between atoms: C_15  and  C_26
REMARK    8  A    between atoms: C_21  and  N_25
REMARK    9  A    between atoms: C_22  and  C_23
REMARK   10  A    between atoms: C_26  and  C_27
REMARK   11  A    between atoms: C_26  and  C_28
REMARK   12  A    between atoms: C_26  and  C_29
REMARK                            x       y       z     vdW  Elec       q    Type
REMARK                         _______ _______ _______ _____ _____    ______ ____
ROOT
ATOM      1  C   UNL     1      -0.035  -5.516   0.485  0.00  0.00    +0.101 C 
ATOM      2  C   UNL     1       0.947  -6.282   1.334  0.00  0.00    +0.050 A 
ATOM      3  C   UNL     1       1.957  -5.803   2.158  0.00  0.00    +0.076 A 
ATOM      4  N   UNL     1       2.561  -6.833   2.702  0.00  0.00    -0.175 NA
ATOM      5  N   UNL     1       1.947  -8.006   2.234  0.00  0.00    -0.246 N 
ATOM      6  H   UNL     1       2.192  -8.913   2.473  0.00  0.00    +0.192 HD
ATOM      7  C   UNL     1       0.959  -7.647   1.398  0.00  0.00    +0.222 A 
ATOM      8  O   UNL     1       0.087  -8.421   0.705  0.00  0.00    -0.423 OA
ATOM      9  C   UNL     1      -0.983  -7.814   0.152  0.00  0.00    +0.200 C 
ATOM     10  C   UNL     1      -1.104  -6.473   0.021  0.00  0.00    +0.098 C 
ENDROOT
BRANCH   1  13
ATOM     11  C   UNL     1       1.122  -3.063  -2.145  0.00  0.00    +0.162 A 
ATOM     12  C   UNL     1       0.470  -3.605  -1.049  0.00  0.00    +0.054 A 
ATOM     13  C   UNL     1       0.674  -4.929  -0.708  0.00  0.00    -0.031 A 
ATOM     14  C   UNL     1       1.528  -5.716  -1.458  0.00  0.00    +0.008 A 
ATOM     15  C   UNL     1       2.182  -5.182  -2.553  0.00  0.00    +0.050 A 
ATOM     16  C   UNL     1       1.977  -3.857  -2.904  0.00  0.00    +0.162 A 
BRANCH  16  17
ATOM     17  O   UNL     1       2.614  -3.332  -3.985  0.00  0.00    -0.491 OA
ATOM     18  C   UNL     1       3.477  -4.205  -4.717  0.00  0.00    +0.277 C 
ENDBRANCH  16  17
BRANCH  11  19
ATOM     19  O   UNL     1       0.922  -1.761  -2.482  0.00  0.00    -0.489 OA
BRANCH  19  21
ATOM     20  C   UNL     1      -0.067   0.424  -2.188  0.00  0.00    +0.048 C 
ATOM     21  C   UNL     1       0.031  -1.007  -1.657  0.00  0.00    +0.226 C 
ENDBRANCH  19  21
ENDBRANCH  11  19
ENDBRANCH   1  13
BRANCH   3  22
ATOM     22  C   UNL     1       2.299  -4.354   2.388  0.00  0.00    +0.007 C 
ATOM     23  C   UNL     1       1.029  -3.582   2.754  0.00  0.00    +0.017 C 
ATOM     24  C   UNL     1       3.310  -4.244   3.532  0.00  0.00    +0.017 C 
ATOM     25  C   UNL     1       2.905  -3.764   1.113  0.00  0.00    +0.017 C 
ENDBRANCH   3  22
BRANCH   9  26
ATOM     26  N   UNL     1      -2.009  -8.603  -0.306  0.00  0.00    -0.328 N 
ATOM     27  H   UNL     1      -1.950  -9.568  -0.227  0.00  0.00    +0.145 HD
ATOM     28  H   UNL     1      -2.791  -8.196  -0.709  0.00  0.00    +0.145 HD
ENDBRANCH   9  26
BRANCH  10  29
ATOM     29  C   UNL     1      -2.291  -5.943  -0.579  0.00  0.00    +0.101 C 
ATOM     30  N   UNL     1      -3.233  -5.522  -1.055  0.00  0.00    -0.191 NA
ENDBRANCH  10  29
TORSDOF 7
