REMARK  Name = ZINC15084747
REMARK  12 active torsions:
REMARK  status: ('A' for Active; 'I' for Inactive)
REMARK    1  A    between atoms: C_1  and  C_2
REMARK    2  A    between atoms: C_2  and  C_3
REMARK    3  A    between atoms: C_3  and  C_4
REMARK    4  A    between atoms: C_5  and  C_17
REMARK    5  A    between atoms: C_6  and  O_15
REMARK    6  A    between atoms: C_9  and  O_10
REMARK    7  A    between atoms: O_10  and  C_11
REMARK    8  A    between atoms: O_15  and  C_16
REMARK    9  A    between atoms: C_19  and  C_32
REMARK   10  A    between atoms: C_20  and  N_31
REMARK   11  A    between atoms: C_27  and  C_29
REMARK   12  A    between atoms: C_27  and  C_30
REMARK                            x       y       z     vdW  Elec       q    Type
REMARK                         _______ _______ _______ _____ _____    ______ ____
ROOT
ATOM      1  C   UNL     1      -3.227   6.209  -1.829  0.00  0.00    +0.105 C 
ATOM      2  C   UNL     1      -4.395   5.840  -2.700  0.00  0.00    +0.098 C 
ATOM      3  C   UNL     1      -4.196   5.429  -3.976  0.00  0.00    +0.198 C 
ATOM      4  O   UNL     1      -2.962   5.337  -4.496  0.00  0.00    -0.445 OA
ATOM      5  C   UNL     1      -1.952   6.040  -3.951  0.00  0.00    +0.115 C 
ATOM      6  C   UNL     1      -2.011   6.481  -2.681  0.00  0.00    +0.046 C 
ATOM      7  C   UNL     1      -0.947   7.204  -2.108  0.00  0.00    +0.164 C 
ATOM      8  O   UNL     1      -1.042   7.597  -0.962  0.00  0.00    -0.292 OA
ATOM      9  C   UNL     1       0.305   7.500  -2.888  0.00  0.00    +0.086 C 
ATOM     10  C   UNL     1       0.507   6.399  -3.935  0.00  0.00    -0.021 C 
ATOM     11  C   UNL     1      -0.744   6.328  -4.812  0.00  0.00    +0.081 C 
ATOM     12  C   UNL     1       0.722   5.056  -3.235  0.00  0.00    +0.012 C 
ATOM     13  C   UNL     1       1.725   6.727  -4.802  0.00  0.00    +0.012 C 
ENDROOT
BRANCH   1  15
ATOM     14  C   UNL     1      -2.962   5.289   0.484  0.00  0.00    +0.006 A 
ATOM     15  C   UNL     1      -2.930   5.075  -0.883  0.00  0.00    +0.018 A 
ATOM     16  C   UNL     1      -2.625   3.819  -1.382  0.00  0.00    +0.170 A 
ATOM     17  C   UNL     1      -2.350   2.771  -0.511  0.00  0.00    +0.211 A 
ATOM     18  C   UNL     1      -2.382   2.986   0.862  0.00  0.00    +0.211 A 
ATOM     19  C   UNL     1      -2.689   4.249   1.357  0.00  0.00    +0.169 A 
ATOM     20  O   UNL     1      -2.077   1.814   1.498  0.00  0.00    -0.449 OA
ATOM     21  C   UNL     1      -1.464   0.984   0.494  0.00  0.00    +0.467 C 
ATOM     22  O   UNL     1      -2.028   1.464  -0.741  0.00  0.00    -0.449 OA
BRANCH  19  23
ATOM     23  O   UNL     1      -2.722   4.463   2.700  0.00  0.00    -0.491 OA
ATOM     24  C   UNL     1      -3.932   4.126   3.382  0.00  0.00    +0.277 C 
ENDBRANCH  19  23
BRANCH  16  25
ATOM     25  O   UNL     1      -2.594   3.612  -2.727  0.00  0.00    -0.491 OA
ATOM     26  C   UNL     1      -3.695   2.904  -3.300  0.00  0.00    +0.277 C 
ENDBRANCH  16  25
BRANCH  14  27
ATOM     27  C   UNL     1      -3.295   6.656   1.023  0.00  0.00    +0.039 C 
BRANCH  27  29
ATOM     28  C   UNL     1      -5.151   8.159   1.756  0.00  0.00    +0.004 C 
ATOM     29  C   UNL     1      -4.814   6.816   1.105  0.00  0.00    +0.001 C 
ENDBRANCH  27  29
ENDBRANCH  14  27
ENDBRANCH   1  15
BRANCH   3  30
ATOM     30  N   UNL     1      -5.280   5.102  -4.753  0.00  0.00    -0.328 N 
ATOM     31  H   UNL     1      -6.176   5.165  -4.387  0.00  0.00    +0.145 HD
ATOM     32  H   UNL     1      -5.149   4.807  -5.668  0.00  0.00    +0.145 HD
ENDBRANCH   3  30
BRANCH   2  33
ATOM     33  C   UNL     1      -5.726   5.922  -2.177  0.00  0.00    +0.101 C 
ATOM     34  N   UNL     1      -6.782   5.987  -1.763  0.00  0.00    -0.191 NA
ENDBRANCH   2  33
TORSDOF 7
