REMARK  Name = ZINC12502292
REMARK  10 active torsions:
REMARK  status: ('A' for Active; 'I' for Inactive)
REMARK    1  A    between atoms: C_1  and  C_2
REMARK    2  A    between atoms: C_4  and  O_9
REMARK    3  A    between atoms: O_9  and  C_10
REMARK    4  A    between atoms: C_10  and  C_11
REMARK    5  A    between atoms: N_13  and  N_14
REMARK    6  A    between atoms: N_14  and  C_15
REMARK    7  A    between atoms: C_15  and  N_17
REMARK    8  A    between atoms: C_18  and  C_20
REMARK    9  A    between atoms: C_22  and  N_29
REMARK   10  A    between atoms: C_24  and  N_26
REMARK                            x       y       z     vdW  Elec       q    Type
REMARK                         _______ _______ _______ _____ _____    ______ ____
ROOT
ATOM      1  C   UNL     1       4.801   4.194  -0.021  0.00  0.00    +0.153 C 
ATOM      2  S   UNL     1       6.293   3.354  -0.038  0.00  0.00    -0.017 S 
ENDROOT
BRANCH   1   3
ATOM      3  N   UNL     1       3.642   3.507  -0.014  0.00  0.00    -0.263 N 
ATOM      4  C   UNL     1       3.656   2.160  -0.021  0.00  0.00    +0.250 C 
ATOM      5  O   UNL     1       4.715   1.564  -0.033  0.00  0.00    -0.270 OA
ATOM      6  H   UNL     1       2.796   3.983  -0.004  0.00  0.00    +0.157 HD
BRANCH   4   7
ATOM      7  C   UNL     1       2.385   1.407  -0.013  0.00  0.00    +0.041 A 
ATOM      8  C   UNL     1       1.167   2.088   0.002  0.00  0.00    +0.046 A 
ATOM      9  C   UNL     1      -0.017   1.379   0.010  0.00  0.00    +0.129 A 
ATOM     10  C   UNL     1       0.002  -0.004   0.002  0.00  0.00    +0.065 A 
ATOM     11  C   UNL     1       1.206  -0.686  -0.013  0.00  0.00    +0.129 A 
ATOM     12  C   UNL     1       2.397   0.011  -0.020  0.00  0.00    +0.046 A 
BRANCH  11  13
ATOM     13  N   UNL     1       1.216  -2.166  -0.021  0.00  0.00    +0.057 N 
ATOM     14  O   UNL     1       0.166  -2.782  -0.014  0.00  0.00    -0.126 OA
ATOM     15  O   UNL     1       2.276  -2.768  -0.034  0.00  0.00    -0.126 OA
ENDBRANCH  11  13
BRANCH   9  16
ATOM     16  N   UNL     1      -1.309   2.100   0.020  0.00  0.00    +0.057 N 
ATOM     17  O   UNL     1      -2.355   1.476   0.021  0.00  0.00    -0.126 OA
ATOM     18  O   UNL     1      -1.327   3.318   0.026  0.00  0.00    -0.126 OA
ENDBRANCH   9  16
ENDBRANCH   4   7
ENDBRANCH   1   3
BRANCH   1  19
ATOM     19  N   UNL     1       4.787   5.542  -0.014  0.00  0.00    -0.245 N 
ATOM     20  H   UNL     1       5.621   6.036  -0.019  0.00  0.00    +0.172 HD
BRANCH  19  23
ATOM     21  C   UNL     1       3.551   7.577   0.008  0.00  0.00    +0.267 C 
ATOM     22  O   UNL     1       4.595   8.194   0.001  0.00  0.00    -0.271 OA
ATOM     23  N   UNL     1       3.566   6.229   0.001  0.00  0.00    -0.232 N 
ATOM     24  H   UNL     1       2.731   5.735   0.006  0.00  0.00    +0.173 HD
BRANCH  21  25
ATOM     25  C   UNL     1       2.238   8.316   0.023  0.00  0.00    +0.326 C 
BRANCH  25  26
ATOM     26  O   UNL     1       2.484   9.723   0.028  0.00  0.00    -0.483 OA
BRANCH  26  30
ATOM     27  C   UNL     1       0.635  14.241   0.068  0.00  0.00    +0.045 C 
ATOM     28  C   UNL     1       0.456  12.744   0.061  0.00  0.00    -0.033 A 
ATOM     29  C   UNL     1       1.562  11.916   0.047  0.00  0.00    +0.050 A 
ATOM     30  C   UNL     1       1.397  10.539   0.042  0.00  0.00    +0.122 A 
ATOM     31  C   UNL     1       0.120   9.996   0.045  0.00  0.00    +0.047 A 
ATOM     32  C   UNL     1      -0.983  10.827   0.065  0.00  0.00    +0.019 A 
ATOM     33  C   UNL     1      -0.816  12.200   0.070  0.00  0.00    +0.021 A 
ATOM     34 BR   UNL     1      -2.328  13.336   0.090  0.00  0.00    -0.050 Br
ENDBRANCH  26  30
ENDBRANCH  25  26
ENDBRANCH  21  25
ENDBRANCH  19  23
ENDBRANCH   1  19
TORSDOF 9
