REMARK  Name = ZINC32091627
REMARK  6 active torsions:
REMARK  status: ('A' for Active; 'I' for Inactive)
REMARK    1  A    between atoms: C_1  and  C_2
REMARK    2  A    between atoms: C_2  and  C_3
REMARK    3  A    between atoms: C_2  and  C_4
REMARK    4  A    between atoms: C_4  and  N_5
REMARK    5  A    between atoms: C_16  and  O_30
REMARK    6  A    between atoms: N_22  and  C_23
REMARK                            x       y       z     vdW  Elec       q    Type
REMARK                         _______ _______ _______ _____ _____    ______ ____
ROOT
ATOM      1  N   UNL     1      -1.416  -1.993  -0.116  0.00  0.00    -0.270 N 
ATOM      2  C   UNL     1      -1.448  -2.664  -1.327  0.00  0.00    +0.041 A 
ATOM      3  C   UNL     1      -1.502  -2.151  -2.623  0.00  0.00    +0.026 A 
ATOM      4  C   UNL     1      -1.524  -3.063  -3.667  0.00  0.00    +0.040 A 
ATOM      5  C   UNL     1      -1.493  -4.427  -3.447  0.00  0.00    +0.124 A 
ATOM      6  C   UNL     1      -1.438  -4.951  -2.158  0.00  0.00    +0.045 A 
ATOM      7  C   UNL     1      -1.417  -4.049  -1.116  0.00  0.00    -0.003 A 
ATOM      8  C   UNL     1      -1.365  -4.244   0.365  0.00  0.00    +0.112 C 
ATOM      9  C   UNL     1      -1.363  -2.842   0.932  0.00  0.00    +0.235 C 
ATOM     10  O   UNL     1      -1.323  -2.539   2.106  0.00  0.00    -0.274 OA
ATOM     11  C   UNL     1      -0.094  -4.983   0.783  0.00  0.00    +0.121 C 
ATOM     12  C   UNL     1      -0.241  -6.468   0.610  0.00  0.00    +0.191 C 
ATOM     13  N   UNL     1      -1.368  -7.099   0.753  0.00  0.00    -0.197 NA
ATOM     14  C   UNL     1      -2.502  -6.394   1.028  0.00  0.00    +0.164 A 
ATOM     15  C   UNL     1      -2.556  -5.015   0.859  0.00  0.00    +0.036 A 
ATOM     16  C   UNL     1      -3.824  -4.594   1.214  0.00  0.00    +0.142 A 
ATOM     17  N   UNL     1      -4.527  -5.645   1.572  0.00  0.00    -0.173 NA
ATOM     18  N   UNL     1      -3.723  -6.790   1.455  0.00  0.00    -0.214 N 
ATOM     19  F   UNL     1      -1.516  -5.269  -4.503  0.00  0.00    -0.205 F 
ENDROOT
BRANCH  18  20
ATOM     20  C   UNL     1      -4.115  -8.107   1.730  0.00  0.00    +0.068 A 
ATOM     21  C   UNL     1      -3.610  -9.156   0.973  0.00  0.00    +0.030 A 
ATOM     22  C   UNL     1      -3.998 -10.453   1.245  0.00  0.00    +0.040 A 
ATOM     23  C   UNL     1      -4.891 -10.708   2.273  0.00  0.00    +0.124 A 
ATOM     24  C   UNL     1      -5.396  -9.664   3.029  0.00  0.00    +0.040 A 
ATOM     25  C   UNL     1      -5.005  -8.366   2.764  0.00  0.00    +0.030 A 
ATOM     26  F   UNL     1      -5.270 -11.977   2.538  0.00  0.00    -0.205 F 
ENDBRANCH  18  20
BRANCH  12  27
ATOM     27  O   UNL     1       0.856  -7.184   0.289  0.00  0.00    -0.495 OA
ATOM     28  H   UNL     1       0.692  -8.132   0.193  0.00  0.00    +0.293 HD
ENDBRANCH  12  27
BRANCH   1  29
ATOM     29  C   UNL     1      -1.433  -0.534   0.013  0.00  0.00    +0.116 C 
BRANCH  29  31
ATOM     30  C   UNL     1      -0.019   1.526   0.010  0.00  0.00    +0.009 C 
ATOM     31  C   UNL     1       0.002  -0.004   0.002  0.00  0.00    +0.001 C 
ATOM     32  C   UNL     1       0.742  -0.511   1.242  0.00  0.00    +0.009 C 
ENDBRANCH  29  31
ENDBRANCH   1  29
TORSDOF 4
