REMARK  Name = ZINC41628545
REMARK  5 active torsions:
REMARK  status: ('A' for Active; 'I' for Inactive)
REMARK    1  A    between atoms: C_1  and  C_2
REMARK    2  A    between atoms: C_2  and  C_4
REMARK    3  A    between atoms: C_2  and  S_17
REMARK    4  A    between atoms: C_4  and  C_6
REMARK    5  A    between atoms: S_17  and  C_18
REMARK                            x       y       z     vdW  Elec       q    Type
REMARK                         _______ _______ _______ _____ _____    ______ ____
ROOT
ATOM      1  C   UNL     1      -0.019   1.526   0.010  0.00  0.00    +0.028 C 
ATOM      2  C   UNL     1       0.002  -0.004   0.002  0.00  0.00    +0.122 C 
ENDROOT
BRANCH   2   3
ATOM      3  C   UNL     1       0.731  -0.503   1.223  0.00  0.00    +0.176 C 
ATOM      4  O   UNL     1       1.911  -0.775   1.156  0.00  0.00    -0.291 OA
BRANCH   3   5
ATOM      5  C   UNL     1       0.012  -0.660   2.494  0.00  0.00    +0.020 A 
ATOM      6  C   UNL     1      -1.351  -0.352   2.572  0.00  0.00    +0.015 A 
ATOM      7  C   UNL     1      -2.025  -0.499   3.764  0.00  0.00    +0.048 A 
ATOM      8  C   UNL     1      -1.355  -0.954   4.891  0.00  0.00    +0.142 A 
ATOM      9  C   UNL     1       0.006  -1.264   4.821  0.00  0.00    +0.076 A 
ATOM     10  C   UNL     1       0.688  -1.124   3.630  0.00  0.00    +0.038 A 
ATOM     11  N   UNL     1       0.665  -1.721   5.972  0.00  0.00    -0.280 N 
ATOM     12  C   UNL     1      -0.072  -2.152   7.020  0.00  0.00    +0.255 C 
ATOM     13  O   UNL     1       0.475  -2.524   8.037  0.00  0.00    -0.272 OA
ATOM     14  C   UNL     1      -1.576  -2.168   6.920  0.00  0.00    +0.325 C 
ATOM     15  O   UNL     1      -2.012  -1.103   6.070  0.00  0.00    -0.481 OA
ATOM     16  H   UNL     1       1.634  -1.729   6.015  0.00  0.00    +0.155 HD
ENDBRANCH   3   5
ENDBRANCH   2   3
BRANCH   2  17
ATOM     17  S   UNL     1       0.851  -0.589  -1.490  0.00  0.00    -0.075 S 
BRANCH  17  18
ATOM     18  C   UNL     1      -0.189  -0.057  -2.809  0.00  0.00    +0.192 A 
ATOM     19  N   UNL     1      -1.297   0.615  -2.529  0.00  0.00    -0.183 NA
ATOM     20  C   UNL     1      -2.099   1.024  -3.502  0.00  0.00    +0.277 A 
ATOM     21  O   UNL     1      -3.232   1.710  -3.214  0.00  0.00    -0.265 OA
ATOM     22  C   UNL     1      -1.762   0.742  -4.830  0.00  0.00    +0.040 A 
ATOM     23  C   UNL     1      -0.603   0.047  -5.081  0.00  0.00    +0.053 A 
ATOM     24  N   UNL     1       0.156  -0.332  -4.056  0.00  0.00    -0.226 NA
ATOM     25  C   UNL     1      -0.146  -0.292  -6.474  0.00  0.00    +0.056 C 
ATOM     26  C   UNL     1      -1.306  -0.169  -7.462  0.00  0.00    +0.006 C 
ATOM     27  C   UNL     1      -1.966   1.201  -7.270  0.00  0.00    +0.005 C 
ATOM     28  C   UNL     1      -2.686   1.207  -5.922  0.00  0.00    +0.042 C 
ENDBRANCH  17  18
ENDBRANCH   2  17
TORSDOF 4
