REMARK  Name = ZINC12744667
REMARK  10 active torsions:
REMARK  status: ('A' for Active; 'I' for Inactive)
REMARK    1  A    between atoms: C_1  and  C_2
REMARK    2  A    between atoms: C_4  and  C_10
REMARK    3  A    between atoms: C_6  and  C_9
REMARK    4  A    between atoms: C_7  and  O_8
REMARK    5  A    between atoms: C_10  and  N_49
REMARK    6  A    between atoms: C_11  and  C_13
REMARK    7  A    between atoms: C_11  and  C_14
REMARK    8  A    between atoms: C_11  and  N_49
REMARK    9  A    between atoms: N_17  and  C_20
REMARK   10  A    between atoms: C_18  and  C_19
REMARK                            x       y       z     vdW  Elec       q    Type
REMARK                         _______ _______ _______ _____ _____    ______ ____
ROOT
ATOM      1  C   UNL     1       1.418  -4.208  -1.525  0.00  0.00    -0.040 C 
ATOM      2  C   UNL     1       2.890  -4.618  -1.608  0.00  0.00    -0.009 C 
ENDROOT
BRANCH   1   3
ATOM      3  C   UNL     1       0.706  -4.637  -2.782  0.00  0.00    -0.021 A 
ATOM      4  C   UNL     1       0.482  -3.843  -3.912  0.00  0.00    +0.137 A 
ATOM      5  N   UNL     1      -0.164  -4.561  -4.796  0.00  0.00    -0.174 NA
ATOM      6  N   UNL     1      -0.373  -5.836  -4.256  0.00  0.00    -0.234 N 
ATOM      7  C   UNL     1       0.175  -5.859  -3.020  0.00  0.00    +0.044 A 
ATOM      8  C   UNL     1       0.191  -7.033  -2.076  0.00  0.00    +0.066 C 
BRANCH   6   9
ATOM      9  C   UNL     1      -1.029  -6.903  -4.888  0.00  0.00    +0.101 A 
ATOM     10  C   UNL     1      -1.997  -7.627  -4.204  0.00  0.00    +0.033 A 
ATOM     11  C   UNL     1      -2.646  -8.673  -4.829  0.00  0.00    +0.040 A 
ATOM     12  C   UNL     1      -2.325  -9.009  -6.134  0.00  0.00    +0.126 A 
ATOM     13  C   UNL     1      -1.357  -8.293  -6.817  0.00  0.00    +0.078 A 
ATOM     14  C   UNL     1      -0.708  -7.241  -6.197  0.00  0.00    +0.151 A 
ATOM     15  F   UNL     1       0.237  -6.542  -6.863  0.00  0.00    -0.203 F 
ATOM     16  F   UNL     1      -2.959 -10.036  -6.741  0.00  0.00    -0.205 F 
ENDBRANCH   6   9
ENDBRANCH   1   3
BRANCH   1  17
ATOM     17  N   UNL     1       1.322  -2.743  -1.389  0.00  0.00    +0.386 N 
ATOM     18  H   UNL     1       2.074  -2.302  -1.931  0.00  0.00    -0.085 HD
ATOM     19  H   UNL     1       0.412  -2.428  -1.748  0.00  0.00    -0.085 HD
BRANCH  17  20
ATOM     20  C   UNL     1       1.448  -2.350   0.027  0.00  0.00    -0.046 C 
BRANCH  20  24
ATOM     21  C   UNL     1      -1.331   1.771   0.605  0.00  0.00    +0.047 C 
ATOM     22  C   UNL     1       0.016   1.121   0.414  0.00  0.00    -0.009 A 
ATOM     23  C   UNL     1       0.112  -0.254   0.315  0.00  0.00    +0.008 A 
ATOM     24  C   UNL     1       1.346  -0.851   0.135  0.00  0.00    -0.064 A 
ATOM     25  C   UNL     1       2.487  -0.074   0.054  0.00  0.00    +0.008 A 
ATOM     26  C   UNL     1       2.396   1.301   0.153  0.00  0.00    -0.009 A 
ATOM     27  C   UNL     1       1.159   1.902   0.333  0.00  0.00    +0.123 A 
ATOM     28  C   UNL     1       3.640   2.147   0.065  0.00  0.00    +0.047 C 
BRANCH  27  29
ATOM     29  O   UNL     1       1.067   3.255   0.431  0.00  0.00    -0.506 OA
ATOM     30  H   UNL     1       1.141   3.590   1.335  0.00  0.00    +0.292 HD
ENDBRANCH  27  29
ENDBRANCH  20  24
ENDBRANCH  17  20
ENDBRANCH   1  17
TORSDOF 6
