REMARK  Name = ZINC39324324
REMARK  9 active torsions:
REMARK  status: ('A' for Active; 'I' for Inactive)
REMARK    1  A    between atoms: C_1  and  C_2
REMARK    2  A    between atoms: C_2  and  C_3
REMARK    3  A    between atoms: C_2  and  C_4
REMARK    4  A    between atoms: C_5  and  C_22
REMARK    5  A    between atoms: C_6  and  C_14
REMARK    6  A    between atoms: C_8  and  C_12
REMARK    7  A    between atoms: C_9  and  N_11
REMARK    8  A    between atoms: C_22  and  O_24
REMARK    9  A    between atoms: O_24  and  C_25
REMARK                            x       y       z     vdW  Elec       q    Type
REMARK                         _______ _______ _______ _____ _____    ______ ____
ROOT
ATOM      1  C   UNL     1      -1.381  -0.622   0.056  0.00  0.00    +0.121 C 
ATOM      2  C   UNL     1      -1.859  -1.214  -1.046  0.00  0.00    +0.087 C 
ATOM      3  C   UNL     1      -3.296  -1.649  -1.135  0.00  0.00    +0.105 C 
ATOM      4  C   UNL     1      -4.102  -0.980  -0.055  0.00  0.00    +0.098 C 
ATOM      5  C   UNL     1      -3.493  -0.394   1.004  0.00  0.00    +0.198 C 
ATOM      6  O   UNL     1      -2.152  -0.392   1.131  0.00  0.00    -0.445 OA
ENDROOT
BRANCH   3   7
ATOM      7  C   UNL     1      -3.377  -3.144  -0.964  0.00  0.00    -0.033 A 
ATOM      8  C   UNL     1      -2.925  -3.732   0.203  0.00  0.00    +0.006 A 
ATOM      9  C   UNL     1      -2.999  -5.103   0.361  0.00  0.00    +0.022 A 
ATOM     10  C   UNL     1      -3.526  -5.888  -0.649  0.00  0.00    +0.059 A 
ATOM     11  C   UNL     1      -3.978  -5.300  -1.818  0.00  0.00    +0.060 A 
ATOM     12  C   UNL     1      -3.909  -3.926  -1.972  0.00  0.00    +0.026 A 
ATOM     13 CL   UNL     1      -4.639  -6.283  -3.087  0.00  0.00    -0.082 Cl
ATOM     14 CL   UNL     1      -3.618  -7.611  -0.452  0.00  0.00    -0.082 Cl
ENDBRANCH   3   7
BRANCH   1  16
ATOM     15  C   UNL     1       0.157   1.319   0.193  0.00  0.00    +0.015 C 
ATOM     16  C   UNL     1       0.067  -0.205   0.093  0.00  0.00    +0.050 C 
ATOM     17  C   UNL     1       0.748  -0.837   1.309  0.00  0.00    +0.015 C 
ENDBRANCH   1  16
BRANCH   5  18
ATOM     18  N   UNL     1      -4.260   0.207   1.971  0.00  0.00    -0.328 N 
ATOM     19  H   UNL     1      -5.227   0.209   1.891  0.00  0.00    +0.145 HD
ATOM     20  H   UNL     1      -3.835   0.629   2.734  0.00  0.00    +0.145 HD
ENDBRANCH   5  18
BRANCH   4  21
ATOM     21  C   UNL     1      -5.531  -0.963  -0.148  0.00  0.00    +0.101 C 
ATOM     22  N   UNL     1      -6.665  -0.948  -0.222  0.00  0.00    -0.191 NA
ENDBRANCH   4  21
BRANCH   2  23
ATOM     23  C   UNL     1      -0.996  -1.434  -2.147  0.00  0.00    +0.339 C 
ATOM     24  O   UNL     1      -1.025  -0.682  -3.103  0.00  0.00    -0.245 OA
BRANCH  23  25
ATOM     25  O   UNL     1      -0.141  -2.478  -2.136  0.00  0.00    -0.465 OA
ATOM     26  C   UNL     1       0.700  -2.640  -3.280  0.00  0.00    +0.280 C 
ENDBRANCH  23  25
ENDBRANCH   2  23
TORSDOF 6
