REMARK  Name = ZINC39451142
REMARK  4 active torsions:
REMARK  status: ('A' for Active; 'I' for Inactive)
REMARK    1  A    between atoms: C_4  and  S_7
REMARK    2  A    between atoms: S_7  and  N_10
REMARK    3  A    between atoms: C_18  and  C_21
REMARK    4  A    between atoms: C_26  and  O_27
REMARK                            x       y       z     vdW  Elec       q    Type
REMARK                         _______ _______ _______ _____ _____    ______ ____
ROOT
ATOM      1  N   UNL     1       4.378  -1.079   1.536  0.00  0.00    -0.170 N 
ATOM      2  C   UNL     1       5.232  -0.168   2.143  0.00  0.00    +0.134 A 
ATOM      3  C   UNL     1       5.625  -0.330   3.459  0.00  0.00    +0.084 A 
ATOM      4  C   UNL     1       5.142  -1.485   4.228  0.00  0.00    +0.099 A 
ATOM      5  C   UNL     1       4.276  -2.397   3.586  0.00  0.00    +0.069 A 
ATOM      6  C   UNL     1       3.894  -2.152   2.187  0.00  0.00    +0.281 A 
ATOM      7  O   UNL     1       3.143  -2.922   1.617  0.00  0.00    -0.265 OA
ATOM      8  C   UNL     1       3.802  -3.501   4.291  0.00  0.00    +0.025 A 
ATOM      9  C   UNL     1       4.213  -3.655   5.617  0.00  0.00    +0.004 A 
ATOM     10  C   UNL     1       5.073  -2.707   6.182  0.00  0.00    +0.120 A 
ATOM     11  N   UNL     1       5.503  -1.676   5.491  0.00  0.00    -0.252 NA
ATOM     12  N   UNL     1       6.464   0.598   4.048  0.00  0.00    -0.324 N 
ATOM     13  C   UNL     1       6.456   1.974   3.527  0.00  0.00    +0.171 C 
ATOM     14  C   UNL     1       6.676   1.915   2.012  0.00  0.00    +0.120 C 
ATOM     15  C   UNL     1       5.702   0.941   1.403  0.00  0.00    +0.186 C 
ATOM     16  O   UNL     1       5.315   1.110   0.263  0.00  0.00    -0.290 OA
ATOM     17 CL   UNL     1       4.867   2.748   3.882  0.00  0.00    -0.101 Cl
ATOM     18  H   UNL     1       7.043   0.348   4.784  0.00  0.00    +0.148 HD
ENDROOT
BRANCH   9  19
ATOM     19  C   UNL     1       3.741  -4.809   6.417  0.00  0.00    +0.025 A 
ATOM     20  C   UNL     1       2.383  -5.119   6.466  0.00  0.00    +0.012 A 
ATOM     21  C   UNL     1       1.949  -6.196   7.212  0.00  0.00    +0.001 A 
ATOM     22  C   UNL     1       2.858  -6.969   7.914  0.00  0.00    +0.004 A 
ATOM     23  C   UNL     1       4.206  -6.671   7.872  0.00  0.00    +0.046 A 
ATOM     24  C   UNL     1       4.657  -5.596   7.123  0.00  0.00    +0.125 A 
BRANCH  24  25
ATOM     25  O   UNL     1       5.983  -5.305   7.077  0.00  0.00    -0.506 OA
ATOM     26  H   UNL     1       6.276  -4.696   7.769  0.00  0.00    +0.292 HD
ENDBRANCH  24  25
ENDBRANCH   9  19
BRANCH   1  27
ATOM     27  S   UNL     1       3.934  -0.832  -0.041  0.00  0.00    +0.087 S 
ATOM     28  O   UNL     1       3.256  -2.008  -0.461  0.00  0.00    -0.148 OA
ATOM     29  O   UNL     1       5.082  -0.333  -0.712  0.00  0.00    -0.148 OA
BRANCH  27  33
ATOM     30  C   UNL     1       0.871   2.502  -0.064  0.00  0.00    +0.000 A 
ATOM     31  C   UNL     1       2.216   2.798  -0.181  0.00  0.00    +0.002 A 
ATOM     32  C   UNL     1       3.152   1.780  -0.173  0.00  0.00    +0.029 A 
ATOM     33  C   UNL     1       2.742   0.466  -0.049  0.00  0.00    +0.111 A 
ATOM     34  C   UNL     1       1.397   0.170   0.068  0.00  0.00    +0.029 A 
ATOM     35  C   UNL     1       0.461   1.187   0.059  0.00  0.00    +0.002 A 
ENDBRANCH  27  33
ENDBRANCH   1  27
TORSDOF 4
