REMARK  Name = ZINC27529805
REMARK  10 active torsions:
REMARK  status: ('A' for Active; 'I' for Inactive)
REMARK    1  A    between atoms: C_1  and  C_2
REMARK    2  A    between atoms: C_2  and  O_3
REMARK    3  A    between atoms: O_3  and  C_4
REMARK    4  A    between atoms: C_7  and  C_12
REMARK    5  A    between atoms: C_9  and  O_10
REMARK    6  A    between atoms: O_10  and  C_11
REMARK    7  A    between atoms: C_14  and  C_26
REMARK    8  A    between atoms: C_22  and  C_24
REMARK    9  A    between atoms: C_26  and  C_28
REMARK   10  A    between atoms: C_35  and  C_38
REMARK                            x       y       z     vdW  Elec       q    Type
REMARK                         _______ _______ _______ _____ _____    ______ ____
ROOT
ATOM      1  C   UNL     1      -0.685   3.458   0.074  0.00  0.00    +0.152 C 
ATOM      2  C   UNL     1       0.821   3.369  -0.011  0.00  0.00    +0.077 C 
ATOM      3  C   UNL     1       1.131   2.053  -0.085  0.00  0.00    +0.250 C 
ATOM      4  C   UNL     1      -0.114   1.259  -0.052  0.00  0.00    +0.293 C 
ATOM      5  O   UNL     1      -0.168   0.046  -0.102  0.00  0.00    -0.266 OA
ATOM      6  N   UNL     1      -1.179   2.076   0.035  0.00  0.00    -0.230 N 
ATOM      7  C   UNL     1      -2.510   1.682   0.083  0.00  0.00    +0.191 A 
ATOM      8  N   UNL     1      -3.613   2.412   0.174  0.00  0.00    -0.125 NA
ATOM      9  N   UNL     1      -4.759   1.885   0.201  0.00  0.00    -0.145 NA
ATOM     10  C   UNL     1      -4.932   0.579   0.154  0.00  0.00    +0.101 A 
ATOM     11  S   UNL     1      -3.227   0.042   0.048  0.00  0.00    -0.035 S 
ATOM     12  C   UNL     1      -6.203  -0.231   0.180  0.00  0.00    +0.075 C 
ATOM     13  O   UNL     1       2.382   1.547  -0.175  0.00  0.00    -0.282 OA
ENDROOT
BRANCH   1  17
ATOM     14  C   UNL     1      -1.841   5.343   3.735  0.00  0.00    +0.162 A 
ATOM     15  C   UNL     1      -1.379   4.036   3.741  0.00  0.00    +0.050 A 
ATOM     16  C   UNL     1      -1.011   3.428   2.555  0.00  0.00    +0.009 A 
ATOM     17  C   UNL     1      -1.093   4.124   1.363  0.00  0.00    -0.018 A 
ATOM     18  C   UNL     1      -1.553   5.427   1.351  0.00  0.00    +0.055 A 
ATOM     19  C   UNL     1      -1.929   6.041   2.535  0.00  0.00    +0.162 A 
BRANCH  19  20
ATOM     20  O   UNL     1      -2.382   7.323   2.524  0.00  0.00    -0.491 OA
ATOM     21  C   UNL     1      -2.556   7.939   1.246  0.00  0.00    +0.277 C 
ENDBRANCH  19  20
BRANCH  14  22
ATOM     22  O   UNL     1      -2.208   5.941   4.900  0.00  0.00    -0.489 OA
BRANCH  22  24
ATOM     23  C   UNL     1      -2.547   5.997   7.292  0.00  0.00    +0.048 C 
ATOM     24  C   UNL     1      -2.092   5.163   6.093  0.00  0.00    +0.226 C 
ENDBRANCH  22  24
ENDBRANCH  14  22
ENDBRANCH   1  17
BRANCH   2  25
ATOM     25  C   UNL     1       1.764   4.491  -0.013  0.00  0.00    +0.195 C 
ATOM     26  O   UNL     1       2.525   4.648   0.923  0.00  0.00    -0.287 OA
BRANCH  25  27
ATOM     27  C   UNL     1       1.790   5.432  -1.150  0.00  0.00    +0.023 A 
ATOM     28  C   UNL     1       0.865   5.304  -2.192  0.00  0.00    +0.015 A 
ATOM     29  C   UNL     1       0.889   6.182  -3.249  0.00  0.00    +0.046 A 
ATOM     30  C   UNL     1       1.843   7.201  -3.301  0.00  0.00    +0.124 A 
ATOM     31  C   UNL     1       2.761   7.323  -2.261  0.00  0.00    -0.002 A 
ATOM     32  C   UNL     1       2.743   6.455  -1.198  0.00  0.00    +0.019 A 
ATOM     33  C   UNL     1       3.643   8.513  -2.586  0.00  0.00    +0.083 C 
ATOM     34  C   UNL     1       2.827   9.222  -3.693  0.00  0.00    +0.175 C 
ATOM     35  O   UNL     1       2.049   8.151  -4.252  0.00  0.00    -0.488 OA
ATOM     36  C   UNL     1       1.918  10.296  -3.091  0.00  0.00    +0.052 C 
ENDBRANCH  25  27
ENDBRANCH   2  25
TORSDOF 6
