REMARK  Name = ZINC39695934
REMARK  7 active torsions:
REMARK  status: ('A' for Active; 'I' for Inactive)
REMARK    1  A    between atoms: C_1  and  C_2
REMARK    2  A    between atoms: C_2  and  C_3
REMARK    3  A    between atoms: C_6  and  C_9
REMARK    4  A    between atoms: C_9  and  C_11
REMARK    5  A    between atoms: C_9  and  N_12
REMARK    6  A    between atoms: C_13  and  C_15
REMARK    7  A    between atoms: C_26  and  C_28
REMARK                            x       y       z     vdW  Elec       q    Type
REMARK                         _______ _______ _______ _____ _____    ______ ____
ROOT
ATOM      1  C   UNL     1      -6.692  -4.983  -1.997  0.00  0.00    +0.100 C 
ATOM      2  C   UNL     1      -7.214  -4.319  -3.291  0.00  0.00    +0.121 C 
ATOM      3  N   UNL     1      -8.149  -5.312  -3.871  0.00  0.00    -0.296 N 
ATOM      4  C   UNL     1      -8.862  -5.875  -2.699  0.00  0.00    +0.115 C 
ATOM      5  C   UNL     1      -7.777  -6.003  -1.612  0.00  0.00    -0.004 C 
ATOM      6  C   UNL     1      -7.198  -7.414  -1.608  0.00  0.00    -0.010 C 
ATOM      7  C   UNL     1      -8.280  -8.404  -1.167  0.00  0.00    -0.082 C 
ATOM      8  N   UNL     1      -8.756  -8.045   0.174  0.00  0.00    +0.379 N 
ATOM      9  C   UNL     1      -9.395  -6.724   0.143  0.00  0.00    -0.082 C 
ATOM     10  C   UNL     1      -8.360  -5.663  -0.243  0.00  0.00    -0.010 C 
ATOM     11  C   UNL     1      -8.314  -5.631  -5.170  0.00  0.00    +0.252 C 
ATOM     12  O   UNL     1      -9.130  -6.474  -5.490  0.00  0.00    -0.270 OA
ATOM     13  H   UNL     1      -9.425  -8.733   0.488  0.00  0.00    -0.086 HD
ATOM     14  H   UNL     1      -7.975  -8.024   0.813  0.00  0.00    -0.086 HD
ENDROOT
BRANCH  11  15
ATOM     15  C   UNL     1      -7.505  -4.957  -6.204  0.00  0.00    +0.107 A 
ATOM     16  C   UNL     1      -6.276  -5.497  -6.597  0.00  0.00    +0.138 A 
ATOM     17  C   UNL     1      -5.524  -4.860  -7.567  0.00  0.00    +0.039 A 
ATOM     18  C   UNL     1      -5.984  -3.692  -8.147  0.00  0.00    +0.006 A 
ATOM     19  C   UNL     1      -7.198  -3.151  -7.763  0.00  0.00    +0.039 A 
ATOM     20  C   UNL     1      -7.965  -3.779  -6.800  0.00  0.00    +0.138 A 
ATOM     21  F   UNL     1      -9.153  -3.252  -6.431  0.00  0.00    -0.205 F 
ATOM     22  F   UNL     1      -5.824  -6.638  -6.031  0.00  0.00    -0.205 F 
ENDBRANCH  11  15
BRANCH   1  24
ATOM     23  N   UNL     1      -5.604  -4.133   0.054  0.00  0.00    -0.308 N 
ATOM     24  C   UNL     1      -6.529  -3.954  -0.909  0.00  0.00    +0.219 C 
ATOM     25  O   UNL     1      -7.231  -2.965  -0.899  0.00  0.00    -0.275 OA
ATOM     26  H   UNL     1      -5.042  -4.924   0.047  0.00  0.00    +0.149 HD
BRANCH  23  27
ATOM     27  C   UNL     1      -5.445  -3.133   1.113  0.00  0.00    +0.100 C 
ATOM     28  C   UNL     1      -4.512  -2.021   0.628  0.00  0.00    +0.033 C 
BRANCH  27  32
ATOM     29  C   UNL     1      -3.773  -4.984   4.581  0.00  0.00    -0.048 A 
ATOM     30  C   UNL     1      -4.772  -4.038   4.716  0.00  0.00    +0.004 A 
ATOM     31  C   UNL     1      -5.313  -3.439   3.594  0.00  0.00    +0.006 A 
ATOM     32  C   UNL     1      -4.854  -3.785   2.336  0.00  0.00    -0.027 A 
ATOM     33  C   UNL     1      -3.855  -4.730   2.201  0.00  0.00    +0.006 A 
ATOM     34  C   UNL     1      -3.311  -5.326   3.324  0.00  0.00    +0.004 A 
BRANCH  29  36
ATOM     35  C   UNL     1      -1.993  -4.814   6.298  0.00  0.00    +0.009 C 
ATOM     36  C   UNL     1      -3.184  -5.637   5.804  0.00  0.00    +0.032 C 
ENDBRANCH  29  36
ENDBRANCH  27  32
ENDBRANCH  23  27
ENDBRANCH   1  24
TORSDOF 5
