REMARK  Name = ZINC39954816
REMARK  7 active torsions:
REMARK  status: ('A' for Active; 'I' for Inactive)
REMARK    1  A    between atoms: C_1  and  O_2
REMARK    2  A    between atoms: O_2  and  C_3
REMARK    3  A    between atoms: C_6  and  S_9
REMARK    4  A    between atoms: S_9  and  N_12
REMARK    5  A    between atoms: N_12  and  C_13
REMARK    6  A    between atoms: C_19  and  C_20
REMARK    7  A    between atoms: N_22  and  C_23
REMARK                            x       y       z     vdW  Elec       q    Type
REMARK                         _______ _______ _______ _____ _____    ______ ____
ROOT
ATOM      1  C   UNL     1       5.170  -3.468  -3.744  0.00  0.00    +0.220 C 
ATOM      2  N   UNL     1       6.409  -3.234  -2.969  0.00  0.00    -0.322 N 
ATOM      3  C   UNL     1       6.864  -4.261  -2.223  0.00  0.00    +0.021 C 
ATOM      4  C   UNL     1       6.439  -5.659  -2.646  0.00  0.00    +0.122 C 
ATOM      5  S   UNL     1       5.304  -5.282  -4.050  0.00  0.00    -0.116 S 
ATOM      6  C   UNL     1       7.660  -4.059  -1.152  0.00  0.00    +0.087 C 
ATOM      7  H   UNL     1       6.871  -2.382  -2.996  0.00  0.00    +0.148 HD
ENDROOT
BRANCH   6   8
ATOM      8  C   UNL     1       7.918  -2.744  -0.702  0.00  0.00    +0.243 C 
ATOM      9  O   UNL     1       7.327  -1.803  -1.201  0.00  0.00    -0.270 OA
ATOM     10  N   UNL     1       8.817  -2.531   0.279  0.00  0.00    -0.282 N 
ATOM     11  H   UNL     1       9.339  -3.271   0.627  0.00  0.00    +0.155 HD
BRANCH  10  12
ATOM     12  C   UNL     1       8.997  -1.256   0.790  0.00  0.00    +0.034 C 
ATOM     13  C   UNL     1       8.913  -1.035   2.158  0.00  0.00    +0.029 C 
ATOM     14  C   UNL     1       9.055   0.300   2.552  0.00  0.00    -0.016 C 
ATOM     15  C   UNL     1       9.546   0.878   3.667  0.00  0.00    +0.025 C 
ATOM     16  C   UNL     1       9.722   2.257   3.439  0.00  0.00    +0.106 C 
ATOM     17  N   UNL     1       9.280   2.623   2.266  0.00  0.00    -0.279 NA
ATOM     18  C   UNL     1       8.669   1.457   1.645  0.00  0.00    +0.158 C 
ATOM     19  C   UNL     1       9.160   1.141   0.264  0.00  0.00    +0.006 C 
ATOM     20  C   UNL     1       9.283  -0.135  -0.111  0.00  0.00    +0.021 C 
ENDBRANCH  10  12
ENDBRANCH   6   8
BRANCH   1  21
ATOM     21  N   UNL     1       5.181  -2.716  -5.001  0.00  0.00    -0.161 NA
ATOM     22  H   UNL     1       6.024  -2.476  -5.416  0.00  0.00    +0.151 HD
BRANCH  21  23
ATOM     23  S   UNL     1       3.753  -2.274  -5.714  0.00  0.00    +0.061 S 
ATOM     24  O   UNL     1       2.940  -3.439  -5.750  0.00  0.00    -0.153 OA
ATOM     25  O   UNL     1       4.092  -1.545  -6.886  0.00  0.00    -0.153 OA
BRANCH  23  29
ATOM     26  C   UNL     1       1.708   0.645  -2.921  0.00  0.00    +0.120 A 
ATOM     27  C   UNL     1       2.577   1.110  -3.897  0.00  0.00    +0.047 A 
ATOM     28  C   UNL     1       3.200   0.218  -4.747  0.00  0.00    +0.032 A 
ATOM     29  C   UNL     1       2.957  -1.138  -4.627  0.00  0.00    +0.106 A 
ATOM     30  C   UNL     1       2.091  -1.604  -3.655  0.00  0.00    +0.032 A 
ATOM     31  C   UNL     1       1.470  -0.716  -2.798  0.00  0.00    +0.047 A 
BRANCH  26  33
ATOM     32  C   UNL     1       1.385   2.908  -2.266  0.00  0.00    +0.277 C 
ATOM     33  O   UNL     1       1.094   1.521  -2.082  0.00  0.00    -0.495 OA
ENDBRANCH  26  33
ENDBRANCH  23  29
ENDBRANCH  21  23
ENDBRANCH   1  21
TORSDOF 6
