REMARK  Name = ZINC08346028
REMARK  5 active torsions:
REMARK  status: ('A' for Active; 'I' for Inactive)
REMARK    1  A    between atoms: C_1  and  O_2
REMARK    2  A    between atoms: O_2  and  C_3
REMARK    3  A    between atoms: C_6  and  C_9
REMARK    4  A    between atoms: N_14  and  C_17
REMARK    5  A    between atoms: C_17  and  C_18
REMARK                            x       y       z     vdW  Elec       q    Type
REMARK                         _______ _______ _______ _____ _____    ______ ____
ROOT
ATOM      1  C   UNL     1      -1.434   3.929   4.036  0.00  0.00    +0.142 C 
ATOM      2  C   UNL     1      -1.304   2.842   2.989  0.00  0.00    +0.058 C 
ATOM      3  C   UNL     1      -2.121   1.774   3.090  0.00  0.00    +0.039 C 
ATOM      4  C   UNL     1      -1.777   0.864   1.932  0.00  0.00    +0.159 C 
ATOM      5  N   UNL     1      -0.698   1.558   1.213  0.00  0.00    -0.288 N 
ATOM      6  C   UNL     1      -0.455   2.706   1.872  0.00  0.00    +0.247 C 
ATOM      7  O   UNL     1       0.388   3.522   1.545  0.00  0.00    -0.270 OA
ATOM      8  N   UNL     1      -3.035   1.675   4.100  0.00  0.00    -0.271 N 
ATOM      9  C   UNL     1      -3.193   2.605   5.050  0.00  0.00    +0.304 C 
ATOM     10  O   UNL     1      -4.034   2.430   5.911  0.00  0.00    -0.252 OA
ATOM     11  N   UNL     1      -2.450   3.729   5.084  0.00  0.00    -0.288 N 
ATOM     12  H   UNL     1      -3.601   0.887   4.130  0.00  0.00    +0.156 HD
ATOM     13  H   UNL     1      -2.580   4.389   5.782  0.00  0.00    +0.151 HD
ENDROOT
BRANCH   1  17
ATOM     14  C   UNL     1      -2.324   7.592   2.023  0.00  0.00    +0.120 A 
ATOM     15  C   UNL     1      -1.008   7.257   2.305  0.00  0.00    +0.046 A 
ATOM     16  C   UNL     1      -0.723   6.072   2.957  0.00  0.00    +0.009 A 
ATOM     17  C   UNL     1      -1.748   5.221   3.326  0.00  0.00    -0.022 A 
ATOM     18  C   UNL     1      -3.060   5.551   3.041  0.00  0.00    +0.009 A 
ATOM     19  C   UNL     1      -3.351   6.737   2.395  0.00  0.00    +0.046 A 
BRANCH  14  21
ATOM     20  C   UNL     1      -3.984   9.037   1.124  0.00  0.00    +0.277 C 
ATOM     21  O   UNL     1      -2.607   8.757   1.382  0.00  0.00    -0.495 OA
ENDBRANCH  14  21
ENDBRANCH   1  17
BRANCH   5  22
ATOM     22  C   UNL     1      -0.013   1.086   0.008  0.00  0.00    +0.143 C 
BRANCH  22  23
ATOM     23  C   UNL     1      -0.742   1.585  -1.213  0.00  0.00    -0.030 A 
ATOM     24  C   UNL     1      -1.750   0.824  -1.775  0.00  0.00    +0.008 A 
ATOM     25  C   UNL     1      -2.423   1.284  -2.891  0.00  0.00    +0.038 A 
ATOM     26  C   UNL     1      -2.079   2.501  -3.454  0.00  0.00    +0.123 A 
ATOM     27  C   UNL     1      -1.065   3.260  -2.893  0.00  0.00    +0.038 A 
ATOM     28  C   UNL     1      -0.398   2.801  -1.774  0.00  0.00    +0.008 A 
ATOM     29  F   UNL     1      -2.732   2.948  -4.549  0.00  0.00    -0.205 F 
ENDBRANCH  22  23
ENDBRANCH   5  22
TORSDOF 4
