REMARK  Name = ZINC12885141
REMARK  13 active torsions:
REMARK  status: ('A' for Active; 'I' for Inactive)
REMARK    1  A    between atoms: C_1  and  O_2
REMARK    2  A    between atoms: O_2  and  C_3
REMARK    3  A    between atoms: C_6  and  C_11
REMARK    4  A    between atoms: C_8  and  O_9
REMARK    5  A    between atoms: O_9  and  C_10
REMARK    6  A    between atoms: C_18  and  O_22
REMARK    7  A    between atoms: O_22  and  C_23
REMARK    8  A    between atoms: C_23  and  C_24
REMARK    9  A    between atoms: N_26  and  CA_27
REMARK   10  A    between atoms: CA_27  and  CB_29
REMARK   11  A    between atoms: CA_27  and  C_37
REMARK   12  A    between atoms: CB_29  and  CG_30
REMARK   13  A    between atoms: CZ_33  and  OH_36
REMARK                            x       y       z     vdW  Elec       q    Type
REMARK                         _______ _______ _______ _____ _____    ______ ____
ROOT
ATOM      1  C   UNK A   0       0.186   6.045  -0.437  0.00  0.00    +0.058 C 
ATOM      2  C   UNK A   0      -0.011   7.383  -0.322  0.00  0.00    +0.176 C 
ATOM      3  C   UNK A   0       0.398   8.408  -1.294  0.00  0.00    +0.231 C 
ATOM      4  O   UNK A   0       0.977   8.242  -2.354  0.00  0.00    -0.283 OA
ATOM      5  C   UNK A   0      -0.050   9.680  -0.699  0.00  0.00    +0.068 A 
ATOM      6  C   UNK A   0       0.032  11.009  -1.117  0.00  0.00    +0.019 A 
ATOM      7  C   UNK A   0      -0.480  12.002  -0.331  0.00  0.00    +0.046 A 
ATOM      8  C   UNK A   0      -1.083  11.691   0.885  0.00  0.00    +0.125 A 
ATOM      9  C   UNK A   0      -1.172  10.376   1.312  0.00  0.00    +0.092 A 
ATOM     10  C   UNK A   0      -0.655   9.354   0.524  0.00  0.00    +0.143 A 
ATOM     11  O   UNK A   0      -0.616   8.017   0.710  0.00  0.00    -0.451 OA
ENDROOT
BRANCH   1  15
ATOM     12  C   UNK A   0      -1.445   3.409   2.461  0.00  0.00    +0.162 A 
ATOM     13  C   UNK A   0      -1.531   4.783   2.646  0.00  0.00    +0.050 A 
ATOM     14  C   UNK A   0      -1.005   5.643   1.708  0.00  0.00    +0.012 A 
ATOM     15  C   UNK A   0      -0.376   5.131   0.565  0.00  0.00    -0.018 A 
ATOM     16  C   UNK A   0      -0.285   3.745   0.383  0.00  0.00    +0.057 A 
ATOM     17  C   UNK A   0      -0.816   2.892   1.329  0.00  0.00    +0.162 A 
BRANCH  12  19
ATOM     18  C   UNK A   0      -2.602   3.164   4.523  0.00  0.00    +0.277 C 
ATOM     19  O   UNK A   0      -1.971   2.567   3.388  0.00  0.00    -0.491 OA
ENDBRANCH  12  19
BRANCH  17  20
ATOM     20  O   UNK A   0      -0.730   1.546   1.155  0.00  0.00    -0.491 OA
ATOM     21  C   UNK A   0      -0.077   1.086  -0.030  0.00  0.00    +0.277 C 
ENDBRANCH  17  20
ENDBRANCH   1  15
BRANCH   8  22
ATOM     22  O   UNK A   0      -1.589  12.685   1.659  0.00  0.00    -0.483 OA
BRANCH  22  23
ATOM     23  C   UNK A   0      -1.467  14.019   1.163  0.00  0.00    +0.324 C 
BRANCH  23  24
ATOM     24  C   UNK A   0      -2.080  14.980   2.149  0.00  0.00    +0.251 C 
ATOM     25  O   UNK A   0      -2.574  14.563   3.176  0.00  0.00    -0.272 OA
ATOM     26  N   TYR A   1      -2.081  16.303   1.891  0.00  0.00    -0.299 N 
ATOM     27  H   TYR A   1      -1.686  16.636   1.070  0.00  0.00    +0.150 HD
BRANCH  26  28
ATOM     28  CA  TYR A   1      -2.677  17.236   2.849  0.00  0.00    +0.191 C 
BRANCH  28  29
ATOM     29  C   TYR A   1      -4.160  17.334   2.599  0.00  0.00    +0.376 C 
ATOM     30  O   TYR A   1      -4.667  16.689   1.712  0.00  0.00    -0.244 OA
ATOM     31  OXT TYR A   1      -4.918  18.136   3.363  0.00  0.00    -0.244 OA
ENDBRANCH  28  29
BRANCH  28  32
ATOM     32  CB  TYR A   1      -2.040  18.617   2.680  0.00  0.00    +0.069 C 
BRANCH  32  33
ATOM     33  CG  TYR A   1      -0.580  18.545   3.049  0.00  0.00    -0.045 A 
ATOM     34  CD2 TYR A   1      -0.185  18.783   4.352  0.00  0.00    +0.007 A 
ATOM     35  CE2 TYR A   1       1.151  18.712   4.694  0.00  0.00    +0.045 A 
ATOM     36  CZ  TYR A   1       2.099  18.413   3.726  0.00  0.00    +0.117 A 
ATOM     37  CE1 TYR A   1       1.700  18.180   2.417  0.00  0.00    +0.045 A 
ATOM     38  CD1 TYR A   1       0.362  18.247   2.082  0.00  0.00    +0.007 A 
BRANCH  36  39
ATOM     39  OH  TYR A   1       3.415  18.348   4.058  0.00  0.00    -0.507 OA
ATOM     40  HH  TYR A   1       3.884  19.189   3.974  0.00  0.00    +0.292 HD
ENDBRANCH  36  39
ENDBRANCH  32  33
ENDBRANCH  28  32
ENDBRANCH  26  28
ENDBRANCH  23  24
ENDBRANCH  22  23
ENDBRANCH   8  22
TORSDOF 11
