REMARK  Name = ZINC09742907
REMARK  9 active torsions:
REMARK  status: ('A' for Active; 'I' for Inactive)
REMARK    1  A    between atoms: C_1  and  C_2
REMARK    2  A    between atoms: C_2  and  C_3
REMARK    3  A    between atoms: C_3  and  N_4
REMARK    4  A    between atoms: C_10  and  S_11
REMARK    5  A    between atoms: S_11  and  C_12
REMARK    6  A    between atoms: C_12  and  C_13
REMARK    7  A    between atoms: N_15  and  N_16
REMARK    8  A    between atoms: C_19  and  C_23
REMARK    9  A    between atoms: C_19  and  C_29
REMARK                            x       y       z     vdW  Elec       q    Type
REMARK                         _______ _______ _______ _____ _____    ______ ____
ROOT
ATOM      1  N   UNL     1      -4.011  -5.091   4.896  0.00  0.00    -0.137 N 
ATOM      2  C   UNL     1      -5.130  -5.814   5.100  0.00  0.00    +0.272 C 
ATOM      3  O   UNL     1      -6.190  -5.416   5.534  0.00  0.00    -0.270 OA
ATOM      4  C   UNL     1      -4.788  -7.228   4.673  0.00  0.00    +0.165 C 
ATOM      5  N   UNL     1      -3.382  -7.130   4.244  0.00  0.00    -0.276 N 
ATOM      6  C   UNL     1      -3.018  -5.845   4.411  0.00  0.00    +0.327 C 
ATOM      7  O   UNL     1      -1.910  -5.418   4.150  0.00  0.00    -0.251 OA
ATOM      8  H   UNL     1      -2.827  -7.850   3.907  0.00  0.00    +0.152 HD
ENDROOT
BRANCH   4   9
ATOM      9  C   UNL     1      -5.663  -7.666   3.526  0.00  0.00    -0.011 A 
ATOM     10  C   UNL     1      -5.095  -8.237   2.403  0.00  0.00    +0.006 A 
ATOM     11  C   UNL     1      -5.898  -8.642   1.353  0.00  0.00    +0.000 A 
ATOM     12  C   UNL     1      -7.268  -8.469   1.423  0.00  0.00    +0.000 A 
ATOM     13  C   UNL     1      -7.835  -7.893   2.545  0.00  0.00    +0.000 A 
ATOM     14  C   UNL     1      -7.032  -7.491   3.596  0.00  0.00    +0.006 A 
ENDBRANCH   4   9
BRANCH   4  15
ATOM     15  C   UNL     1      -4.923  -8.179   5.834  0.00  0.00    -0.011 A 
ATOM     16  C   UNL     1      -6.099  -8.223   6.558  0.00  0.00    +0.006 A 
ATOM     17  C   UNL     1      -6.224  -9.099   7.621  0.00  0.00    +0.000 A 
ATOM     18  C   UNL     1      -5.170  -9.924   7.964  0.00  0.00    +0.000 A 
ATOM     19  C   UNL     1      -3.992  -9.876   7.243  0.00  0.00    +0.000 A 
ATOM     20  C   UNL     1      -3.868  -9.004   6.178  0.00  0.00    +0.006 A 
ENDBRANCH   4  15
BRANCH   1  23
ATOM     21  C   UNL     1      -3.896  -2.834   4.149  0.00  0.00    +0.240 C 
ATOM     22  O   UNL     1      -3.988  -3.222   3.004  0.00  0.00    -0.273 OA
ATOM     23  N   UNL     1      -3.900  -3.721   5.164  0.00  0.00    -0.223 N 
ATOM     24  H   UNL     1      -3.825  -3.410   6.080  0.00  0.00    +0.174 HD
BRANCH  21  25
ATOM     25  C   UNL     1      -3.776  -1.359   4.437  0.00  0.00    +0.174 C 
BRANCH  25  26
ATOM     26  S   UNL     1      -3.800  -0.436   2.881  0.00  0.00    -0.077 S 
BRANCH  26  33
ATOM     27  N   UNL     1      -3.614   2.352   2.733  0.00  0.00    -0.271 N 
ATOM     28  C   UNL     1      -3.499   3.410   3.559  0.00  0.00    +0.345 A 
ATOM     29  O   UNL     1      -3.443   4.581   3.225  0.00  0.00    -0.245 OA
ATOM     30  N   UNL     1      -3.458   2.939   4.822  0.00  0.00    -0.226 N 
ATOM     31  H   UNL     1      -3.378   3.469   5.631  0.00  0.00    +0.194 HD
ATOM     32  N   UNL     1      -3.552   1.542   4.752  0.00  0.00    -0.145 NA
ATOM     33  C   UNL     1      -3.650   1.207   3.497  0.00  0.00    +0.192 A 
BRANCH  27  34
ATOM     34  C   UNL     1      -3.693   2.409   1.271  0.00  0.00    +0.129 C 
BRANCH  34  36
ATOM     35  C   UNL     1      -2.365   2.396  -0.846  0.00  0.00    +0.005 C 
ATOM     36  C   UNL     1      -2.283   2.336   0.681  0.00  0.00    +0.018 C 
ENDBRANCH  34  36
ENDBRANCH  27  34
ENDBRANCH  26  33
ENDBRANCH  25  26
ENDBRANCH  21  25
ENDBRANCH   1  23
TORSDOF 8
