REMARK  Name = ZINC40432622
REMARK  6 active torsions:
REMARK  status: ('A' for Active; 'I' for Inactive)
REMARK    1  A    between atoms: C_1  and  C_2
REMARK    2  A    between atoms: C_2  and  C_3
REMARK    3  A    between atoms: C_2  and  C_4
REMARK    4  A    between atoms: C_2  and  C_5
REMARK    5  A    between atoms: C_11  and  N_13
REMARK    6  A    between atoms: C_14  and  C_16
REMARK                            x       y       z     vdW  Elec       q    Type
REMARK                         _______ _______ _______ _____ _____    ______ ____
ROOT
ATOM      1  N   UNL     1       2.163   1.387  -1.333  0.00  0.00    -0.307 N 
ATOM      2  C   UNL     1       3.323   1.978  -0.984  0.00  0.00    +0.260 C 
ATOM      3  O   UNL     1       4.296   1.298  -0.718  0.00  0.00    -0.269 OA
ATOM      4  H   UNL     1       1.387   1.930  -1.546  0.00  0.00    +0.149 HD
ENDROOT
BRANCH   2   5
ATOM      5  C   UNL     1       3.412   3.442  -0.925  0.00  0.00    +0.121 C 
ATOM      6  N   UNL     1       2.368   4.158  -1.205  0.00  0.00    -0.180 NA
ATOM      7  N   UNL     1       2.416   5.555  -1.160  0.00  0.00    -0.207 N 
ATOM      8  C   UNL     1       3.599   6.199  -1.208  0.00  0.00    +0.233 C 
ATOM      9  O   UNL     1       3.634   7.410  -1.173  0.00  0.00    -0.274 OA
ATOM     10  C   UNL     1       4.878   5.407  -1.303  0.00  0.00    +0.104 C 
ATOM     11  C   UNL     1       4.713   4.091  -0.533  0.00  0.00    +0.071 C 
ATOM     12  H   UNL     1       1.593   6.064  -1.095  0.00  0.00    +0.177 HD
ENDBRANCH   2   5
BRANCH   1  18
ATOM     13  C   UNL     1       0.643  -0.511  -1.073  0.00  0.00    +0.015 C 
ATOM     14  C   UNL     1       0.550  -2.037  -1.135  0.00  0.00    +0.006 C 
ATOM     15  C   UNL     1       0.927  -2.514  -2.539  0.00  0.00    +0.000 C 
ATOM     16  C   UNL     1       2.358  -2.077  -2.859  0.00  0.00    +0.002 C 
ATOM     17  C   UNL     1       2.451  -0.551  -2.797  0.00  0.00    +0.022 C 
ATOM     18  C   UNL     1       2.074  -0.074  -1.393  0.00  0.00    +0.077 C 
BRANCH  13  20
ATOM     19  C   UNL     1       0.195   1.495   0.349  0.00  0.00    +0.011 C 
ATOM     20  C   UNL     1       0.266  -0.034   0.331  0.00  0.00    -0.033 C 
ATOM     21  C   UNL     1       1.322  -0.507   1.331  0.00  0.00    +0.011 C 
ATOM     22  C   UNL     1      -1.097  -0.611   0.717  0.00  0.00    +0.011 C 
ENDBRANCH  13  20
ENDBRANCH   1  18
TORSDOF 3
