REMARK  Name = ZINC67604539
REMARK  5 active torsions:
REMARK  status: ('A' for Active; 'I' for Inactive)
REMARK    1  A    between atoms: C_1  and  C_2
REMARK    2  A    between atoms: C_7  and  C_10
REMARK    3  A    between atoms: N_18  and  C_19
REMARK    4  A    between atoms: C_19  and  C_20
REMARK    5  A    between atoms: C_23  and  N_26
REMARK                            x       y       z     vdW  Elec       q    Type
REMARK                         _______ _______ _______ _____ _____    ______ ____
ROOT
ATOM      1  C   UNL     1      -0.018   1.526   0.007  0.00  0.00    +0.039 C 
ATOM      2  C   UNL     1       0.003  -0.004  -0.001  0.00  0.00    +0.133 C 
ATOM      3  C   UNL     1      -1.435  -0.536   0.014  0.00  0.00    +0.140 C 
ATOM      4  N   UNL     1      -1.388  -1.995   0.195  0.00  0.00    -0.280 N 
ATOM      5  C   UNL     1      -0.575  -2.530   1.299  0.00  0.00    +0.145 C 
ATOM      6  C   UNL     1       0.821  -1.901   1.221  0.00  0.00    +0.166 C 
ATOM      7  O   UNL     1       0.694  -0.479   1.157  0.00  0.00    -0.366 OA
ATOM      8  C   UNL     1      -2.069  -2.818  -0.627  0.00  0.00    +0.303 C 
ATOM      9  O   UNL     1      -2.807  -2.356  -1.476  0.00  0.00    -0.253 OA
ATOM     10  N   UNL     1      -1.933  -4.154  -0.507  0.00  0.00    -0.295 N 
ATOM     11  H   UNL     1      -1.404  -4.525   0.216  0.00  0.00    +0.151 HD
ENDROOT
BRANCH   6  12
ATOM     12  C   UNL     1       1.613  -2.282   2.445  0.00  0.00    -0.017 A 
ATOM     13  C   UNL     1       1.411  -1.612   3.636  0.00  0.00    +0.006 A 
ATOM     14  C   UNL     1       2.138  -1.961   4.758  0.00  0.00    +0.000 A 
ATOM     15  C   UNL     1       3.068  -2.982   4.689  0.00  0.00    +0.000 A 
ATOM     16  C   UNL     1       3.270  -3.653   3.498  0.00  0.00    +0.000 A 
ATOM     17  C   UNL     1       2.540  -3.306   2.377  0.00  0.00    +0.006 A 
ENDBRANCH   6  12
BRANCH  10  18
ATOM     18  C   UNL     1      -2.585  -5.045  -1.469  0.00  0.00    +0.141 C 
BRANCH  18  19
ATOM     19  C   UNL     1      -2.278  -6.478  -1.115  0.00  0.00    -0.030 A 
ATOM     20  C   UNL     1      -1.159  -7.095  -1.643  0.00  0.00    +0.007 A 
ATOM     21  C   UNL     1      -0.875  -8.407  -1.320  0.00  0.00    +0.028 A 
ATOM     22  C   UNL     1      -1.714  -9.107  -0.464  0.00  0.00    +0.067 A 
ATOM     23  C   UNL     1      -2.837  -8.485   0.065  0.00  0.00    +0.028 A 
ATOM     24  C   UNL     1      -3.113  -7.170  -0.257  0.00  0.00    +0.007 A 
BRANCH  22  25
ATOM     25  N   UNL     1      -1.429 -10.439  -0.134  0.00  0.00    -0.220 N 
ATOM     26  C   UNL     1      -2.147 -11.243   0.674  0.00  0.00    +0.225 A 
ATOM     27  N   UNL     1      -1.549 -12.406   0.723  0.00  0.00    -0.222 NA
ATOM     28  C   UNL     1      -0.453 -12.384  -0.034  0.00  0.00    +0.245 A 
ATOM     29  N   UNL     1      -0.340 -11.204  -0.585  0.00  0.00    -0.154 NA
ENDBRANCH  22  25
ENDBRANCH  18  19
ENDBRANCH  10  18
TORSDOF 4
