REMARK  Name = ZINC00122866
REMARK  3 active torsions:
REMARK  status: ('A' for Active; 'I' for Inactive)
REMARK    1  A    between atoms: C_4  and  C_7
REMARK    2  A    between atoms: C_7  and  N_8
REMARK    3  A    between atoms: N_11  and  C_12
REMARK                            x       y       z     vdW  Elec       q    Type
REMARK                         _______ _______ _______ _____ _____    ______ ____
ROOT
ATOM      1  N   UNL     1       3.421   6.085   0.002  0.00  0.00    -0.295 N 
ATOM      2  C   UNL     1       2.268   5.386   0.009  0.00  0.00    +0.306 C 
ATOM      3  O   UNL     1       1.203   5.971   0.023  0.00  0.00    -0.252 OA
ATOM      4  N   UNL     1       2.297   4.039   0.002  0.00  0.00    -0.240 N 
ATOM      5  H   UNL     1       4.271   5.619  -0.008  0.00  0.00    +0.151 HD
ATOM      6  H   UNL     1       3.148   3.572  -0.009  0.00  0.00    +0.159 HD
ENDROOT
BRANCH   4   7
ATOM      7  C   UNL     1       1.120   3.325   0.009  0.00  0.00    +0.198 A 
ATOM      8  C   UNL     1       1.180   1.966   0.001  0.00  0.00    +0.114 A 
ATOM      9  C   UNL     1      -0.015   1.216   0.009  0.00  0.00    +0.194 A 
ATOM     10  O   UNL     1       0.002  -0.004   0.002  0.00  0.00    -0.287 OA
ATOM     11  C   UNL     1      -1.287   1.967   0.019  0.00  0.00    +0.064 A 
ATOM     12  C   UNL     1      -2.516   1.310   0.020  0.00  0.00    +0.015 A 
ATOM     13  C   UNL     1      -3.680   2.047   0.029  0.00  0.00    +0.001 A 
ATOM     14  C   UNL     1      -3.631   3.433   0.037  0.00  0.00    +0.004 A 
ATOM     15  C   UNL     1      -2.420   4.094   0.048  0.00  0.00    +0.047 A 
ATOM     16  C   UNL     1      -1.235   3.369   0.033  0.00  0.00    +0.141 A 
ATOM     17  O   UNL     1      -0.040   3.995   0.025  0.00  0.00    -0.441 OA
ENDBRANCH   4   7
BRANCH   1  18
ATOM     18  C   UNL     1       3.389   7.550   0.011  0.00  0.00    +0.141 C 
BRANCH  18  22
ATOM     19  C   UNL     1       7.384   9.061  -0.020  0.00  0.00    +0.000 A 
ATOM     20  C   UNL     1       6.726   8.823  -1.212  0.00  0.00    +0.000 A 
ATOM     21  C   UNL     1       5.434   8.334  -1.202  0.00  0.00    +0.005 A 
ATOM     22  C   UNL     1       4.798   8.083  -0.000  0.00  0.00    -0.030 A 
ATOM     23  C   UNL     1       5.454   8.326   1.192  0.00  0.00    +0.005 A 
ATOM     24  C   UNL     1       6.749   8.810   1.182  0.00  0.00    +0.000 A 
ENDBRANCH  18  22
ENDBRANCH   1  18
TORSDOF 3
