REMARK  Name = ZINC01501875
REMARK  4 active torsions:
REMARK  status: ('A' for Active; 'I' for Inactive)
REMARK    1  A    between atoms: C_4  and  N_7
REMARK    2  A    between atoms: C_8  and  C_26
REMARK    3  A    between atoms: C_10  and  C_12
REMARK    4  A    between atoms: N_14  and  N_15
REMARK                            x       y       z     vdW  Elec       q    Type
REMARK                         _______ _______ _______ _____ _____    ______ ____
ROOT
ATOM      1  N   UNL     1       3.572  -0.520   0.007  0.00  0.00    -0.231 N 
ATOM      2  C   UNL     1       3.784  -1.764   0.534  0.00  0.00    +0.077 A 
ATOM      3  C   UNL     1       5.045  -2.150   0.185  0.00  0.00    +0.063 A 
ATOM      4  C   UNL     1       5.617  -1.113  -0.576  0.00  0.00    +0.150 A 
ATOM      5  N   UNL     1       4.729  -0.141  -0.685  0.00  0.00    -0.161 NA
ENDROOT
BRANCH   2   6
ATOM      6  C   UNL     1       2.822  -2.547   1.338  0.00  0.00    +0.025 A 
ATOM      7  C   UNL     1       1.510  -2.753   1.057  0.00  0.00    +0.093 A 
ATOM      8  N   UNL     1       0.947  -3.527   2.031  0.00  0.00    -0.360 N 
ATOM      9  H   UNL     1       0.019  -3.809   2.048  0.00  0.00    +0.165 HD
ATOM     10  C   UNL     1       1.888  -3.852   2.985  0.00  0.00    +0.047 A 
ATOM     11  C   UNL     1       3.102  -3.262   2.595  0.00  0.00    +0.009 A 
ATOM     12  C   UNL     1       4.242  -3.430   3.378  0.00  0.00    +0.010 A 
ATOM     13  C   UNL     1       4.173  -4.178   4.532  0.00  0.00    +0.001 A 
ATOM     14  C   UNL     1       2.975  -4.765   4.916  0.00  0.00    +0.002 A 
ATOM     15  C   UNL     1       1.837  -4.600   4.156  0.00  0.00    +0.026 A 
ENDBRANCH   2   6
BRANCH   1  19
ATOM     16  C   UNL     1       0.089   1.738   0.377  0.00  0.00    +0.000 A 
ATOM     17  C   UNL     1       0.599   1.070   1.476  0.00  0.00    +0.002 A 
ATOM     18  C   UNL     1       1.753   0.321   1.357  0.00  0.00    +0.028 A 
ATOM     19  C   UNL     1       2.402   0.238   0.131  0.00  0.00    +0.066 A 
ATOM     20  C   UNL     1       1.887   0.909  -0.971  0.00  0.00    +0.028 A 
ATOM     21  C   UNL     1       0.733   1.657  -0.844  0.00  0.00    +0.002 A 
ENDBRANCH   1  19
BRANCH   4  22
ATOM     22  C   UNL     1       6.973  -1.114  -1.158  0.00  0.00    +0.283 C 
ATOM     23  O   UNL     1       7.704  -2.072  -0.995  0.00  0.00    -0.267 OA
ATOM     24  N   UNL     1       7.402  -0.053  -1.870  0.00  0.00    -0.201 N 
ATOM     25  H   UNL     1       6.819   0.711  -2.000  0.00  0.00    +0.178 HD
BRANCH  24  26
ATOM     26  N   UNL     1       8.690  -0.054  -2.422  0.00  0.00    -0.174 NA
ATOM     27  C   UNL     1       9.068   0.927  -3.206  0.00  0.00    +0.153 C 
ATOM     28  C   UNL     1       8.232   2.026  -3.742  0.00  0.00    +0.028 A 
ATOM     29  C   UNL     1       6.888   2.354  -3.606  0.00  0.00    +0.012 A 
ATOM     30  C   UNL     1       6.388   3.471  -4.245  0.00  0.00    +0.001 A 
ATOM     31  C   UNL     1       7.222   4.260  -5.019  0.00  0.00    +0.002 A 
ATOM     32  C   UNL     1       8.558   3.942  -5.161  0.00  0.00    +0.024 A 
ATOM     33  C   UNL     1       9.080   2.822  -4.524  0.00  0.00    +0.043 A 
ATOM     34  N   UNL     1      10.363   2.287  -4.501  0.00  0.00    -0.280 N 
ATOM     35  C   UNL     1      10.421   1.180  -3.741  0.00  0.00    +0.269 C 
ATOM     36  O   UNL     1      11.411   0.505  -3.533  0.00  0.00    -0.268 OA
ATOM     37  H   UNL     1      11.122   2.667  -4.970  0.00  0.00    +0.155 HD
ENDBRANCH  24  26
ENDBRANCH   4  22
TORSDOF 4
