REMARK  Name = ZINC13415942
REMARK  8 active torsions:
REMARK  status: ('A' for Active; 'I' for Inactive)
REMARK    1  A    between atoms: C_1  and  C_2
REMARK    2  A    between atoms: C_2  and  C_4
REMARK    3  A    between atoms: C_2  and  S_15
REMARK    4  A    between atoms: N_6  and  C_7
REMARK    5  A    between atoms: C_7  and  C_13
REMARK    6  A    between atoms: S_15  and  C_16
REMARK    7  A    between atoms: C_18  and  C_21
REMARK    8  A    between atoms: C_21  and  C_22
REMARK                            x       y       z     vdW  Elec       q    Type
REMARK                         _______ _______ _______ _____ _____    ______ ____
ROOT
ATOM      1  C   UNL     1       3.681   3.268   1.292  0.00  0.00    +0.029 C 
ATOM      2  C   UNL     1       3.127   3.857  -0.007  0.00  0.00    +0.136 C 
ENDROOT
BRANCH   2   3
ATOM      3  C   UNL     1       3.554   5.297  -0.128  0.00  0.00    +0.227 C 
ATOM      4  O   UNL     1       2.815   6.182   0.248  0.00  0.00    -0.275 OA
ATOM      5  N   UNL     1       4.757   5.601  -0.654  0.00  0.00    -0.296 N 
ATOM      6  H   UNL     1       5.348   4.894  -0.954  0.00  0.00    +0.150 HD
BRANCH   5   7
ATOM      7  C   UNL     1       5.172   7.002  -0.771  0.00  0.00    +0.121 C 
ATOM      8  C   UNL     1       4.179   7.755  -1.658  0.00  0.00    +0.041 C 
ATOM      9  C   UNL     1       4.612   9.217  -1.781  0.00  0.00    +0.003 C 
ATOM     10  C   UNL     1       6.008   9.285  -2.405  0.00  0.00    +0.000 C 
ATOM     11  C   UNL     1       7.000   8.532  -1.517  0.00  0.00    +0.003 C 
ATOM     12  C   UNL     1       6.567   7.070  -1.395  0.00  0.00    +0.041 C 
BRANCH   7  13
ATOM     13  C   UNL     1       5.201   7.618   0.566  0.00  0.00    +0.088 C 
ATOM     14  N   UNL     1       5.224   8.094   1.597  0.00  0.00    -0.194 NA
ENDBRANCH   7  13
ENDBRANCH   5   7
ENDBRANCH   2   3
BRANCH   2  15
ATOM     15  S   UNL     1       1.320   3.762   0.009  0.00  0.00    -0.086 S 
BRANCH  15  16
ATOM     16  C   UNL     1       1.105   2.013   0.002  0.00  0.00    +0.136 A 
ATOM     17  N   UNL     1      -0.016   1.315   0.009  0.00  0.00    -0.237 NA
ATOM     18  C   UNL     1       0.002  -0.004   0.002  0.00  0.00    +0.060 A 
ATOM     19  C   UNL     1       1.201  -0.634  -0.013  0.00  0.00    +0.071 A 
ATOM     20  S   UNL     1       2.312   0.765  -0.016  0.00  0.00    -0.069 S 
BRANCH  18  21
ATOM     21  C   UNL     1      -1.282  -0.792   0.010  0.00  0.00    +0.181 C 
BRANCH  21  22
ATOM     22  C   UNL     1      -2.126  -0.367   1.184  0.00  0.00    +0.362 C 
ATOM     23  O   UNL     1      -1.725   0.488   1.937  0.00  0.00    -0.246 OA
ATOM     24  O   UNL     1      -3.322  -0.939   1.393  0.00  0.00    -0.246 OA
ENDBRANCH  21  22
ENDBRANCH  18  21
ENDBRANCH  15  16
ENDBRANCH   2  15
TORSDOF 7
