REMARK  Name = ZINC40151478
REMARK  13 active torsions:
REMARK  status: ('A' for Active; 'I' for Inactive)
REMARK    1  A    between atoms: C_1  and  C_2
REMARK    2  A    between atoms: C_2  and  C_3
REMARK    3  A    between atoms: C_3  and  C_4
REMARK    4  A    between atoms: C_4  and  N_5
REMARK    5  A    between atoms: C_6  and  N_34
REMARK    6  A    between atoms: C_7  and  N_14
REMARK    7  A    between atoms: N_14  and  C_15
REMARK    8  A    between atoms: C_15  and  C_16
REMARK    9  A    between atoms: C_17  and  C_19
REMARK   10  A    between atoms: C_19  and  N_20
REMARK   11  A    between atoms: N_20  and  C_21
REMARK   12  A    between atoms: N_20  and  C_28
REMARK   13  A    between atoms: C_21  and  C_22
REMARK                            x       y       z     vdW  Elec       q    Type
REMARK                         _______ _______ _______ _____ _____    ______ ____
ROOT
ATOM      1  N   UNL     1       0.422  -4.417  -6.250  0.00  0.00    -0.266 N 
ATOM      2  C   UNL     1      -0.814  -3.877  -6.227  0.00  0.00    +0.203 C 
ATOM      3  O   UNL     1      -1.372  -3.684  -5.167  0.00  0.00    -0.277 OA
ENDROOT
BRANCH   1   6
ATOM      4  N   UNL     1       2.907  -4.221  -3.550  0.00  0.00    -0.280 N 
ATOM      5  C   UNL     1       2.260  -3.962  -4.736  0.00  0.00    +0.127 A 
ATOM      6  C   UNL     1       1.109  -4.660  -5.041  0.00  0.00    +0.140 A 
ATOM      7  C   UNL     1       0.632  -5.617  -4.127  0.00  0.00    +0.277 A 
ATOM      8  O   UNL     1      -0.383  -6.248  -4.372  0.00  0.00    -0.266 OA
ATOM      9  N   UNL     1       1.303  -5.832  -2.978  0.00  0.00    -0.273 N 
ATOM     10  H   UNL     1       0.975  -6.492  -2.348  0.00  0.00    +0.173 HD
ATOM     11  C   UNL     1       2.426  -5.147  -2.700  0.00  0.00    +0.331 A 
ATOM     12  O   UNL     1       3.015  -5.364  -1.659  0.00  0.00    -0.246 OA
BRANCH   5  13
ATOM     13  N   UNL     1       2.754  -3.020  -5.606  0.00  0.00    -0.343 N 
ATOM     14  H   UNL     1       3.523  -2.485  -5.356  0.00  0.00    +0.144 HD
ATOM     15  H   UNL     1       2.333  -2.890  -6.470  0.00  0.00    +0.144 HD
ENDBRANCH   5  13
BRANCH   4  16
ATOM     16  C   UNL     1       4.130  -3.488  -3.212  0.00  0.00    +0.128 C 
BRANCH  16  17
ATOM     17  C   UNL     1       5.344  -4.246  -3.753  0.00  0.00    +0.021 C 
BRANCH  17  19
ATOM     18  C   UNL     1       7.835  -4.239  -3.941  0.00  0.00    +0.004 C 
ATOM     19  C   UNL     1       6.621  -3.481  -3.400  0.00  0.00    -0.002 C 
ENDBRANCH  17  19
ENDBRANCH  16  17
ENDBRANCH   4  16
ENDBRANCH   1   6
BRANCH   1  20
ATOM     20  C   UNL     1       1.052  -4.751  -7.530  0.00  0.00    +0.110 C 
ATOM     21  C   UNL     1       0.596  -6.142  -7.975  0.00  0.00    +0.025 C 
ENDBRANCH   1  20
BRANCH   2  22
ATOM     22  C   UNL     1      -1.502  -3.513  -7.517  0.00  0.00    +0.020 C 
BRANCH  22  23
ATOM     23  N   UNL     1      -2.743  -2.785  -7.222  0.00  0.00    +0.390 N 
ATOM     24  H   UNL     1      -3.184  -3.188  -6.409  0.00  0.00    -0.080 HD
BRANCH  23  25
ATOM     25  C   UNL     1      -2.433  -1.373  -6.962  0.00  0.00    -0.067 C 
ATOM     26  C   UNL     1      -1.766  -0.762  -8.195  0.00  0.00    -0.015 C 
ATOM     27  C   UNL     1      -1.442   0.709  -7.924  0.00  0.00    -0.002 C 
ATOM     28  C   UNL     1      -0.493   0.810  -6.728  0.00  0.00    -0.000 C 
ATOM     29  C   UNL     1      -1.161   0.198  -5.494  0.00  0.00    -0.002 C 
ATOM     30  C   UNL     1      -1.484  -1.272  -5.766  0.00  0.00    -0.015 C 
ENDBRANCH  23  25
BRANCH  23  31
ATOM     31  C   UNL     1      -3.653  -2.883  -8.372  0.00  0.00    -0.042 C 
BRANCH  31  32
ATOM     32  C   UNL     1      -4.978  -2.257  -8.019  0.00  0.00    -0.064 A 
ATOM     33  C   UNL     1      -5.932  -2.995  -7.343  0.00  0.00    +0.002 A 
ATOM     34  C   UNL     1      -7.147  -2.422  -7.019  0.00  0.00    +0.000 A 
ATOM     35  C   UNL     1      -7.408  -1.110  -7.370  0.00  0.00    +0.000 A 
ATOM     36  C   UNL     1      -6.453  -0.372  -8.044  0.00  0.00    +0.000 A 
ATOM     37  C   UNL     1      -5.236  -0.944  -8.365  0.00  0.00    +0.002 A 
ENDBRANCH  31  32
ENDBRANCH  23  31
ENDBRANCH  22  23
ENDBRANCH   2  22
TORSDOF 11
