REMARK  Name = ZINC49022815
REMARK  9 active torsions:
REMARK  status: ('A' for Active; 'I' for Inactive)
REMARK    1  A    between atoms: C_1  and  C_2
REMARK    2  A    between atoms: C_2  and  C_3
REMARK    3  A    between atoms: C_3  and  C_5
REMARK    4  A    between atoms: C_3  and  N_8
REMARK    5  A    between atoms: C_5  and  C_6
REMARK    6  A    between atoms: C_5  and  C_7
REMARK    7  A    between atoms: C_9  and  C_11
REMARK    8  A    between atoms: N_13  and  C_14
REMARK    9  A    between atoms: C_19  and  C_20
REMARK                            x       y       z     vdW  Elec       q    Type
REMARK                         _______ _______ _______ _____ _____    ______ ____
ROOT
ATOM      1  C   UNL     1      -0.679   1.499  -4.192  0.00  0.00    +0.303 C 
ATOM      2  O   UNL     1      -1.470   0.718  -4.679  0.00  0.00    -0.265 OA
ATOM      3  N   UNL     1      -0.519   2.723  -4.734  0.00  0.00    -0.278 N 
ATOM      4  H   UNL     1       0.052   3.375  -4.300  0.00  0.00    +0.155 HD
ENDROOT
BRANCH   3   5
ATOM      5  C   UNL     1      -1.177   3.052  -5.923  0.00  0.00    +0.037 A 
ATOM      6  C   UNL     1      -1.556   2.051  -6.809  0.00  0.00    +0.024 A 
ATOM      7  C   UNL     1      -2.205   2.380  -7.982  0.00  0.00    +0.016 A 
ATOM      8  C   UNL     1      -2.480   3.704  -8.275  0.00  0.00    +0.014 A 
ATOM      9  C   UNL     1      -2.104   4.702  -7.395  0.00  0.00    +0.019 A 
ATOM     10  C   UNL     1      -1.459   4.380  -6.217  0.00  0.00    -0.028 A 
ATOM     11  C   UNL     1      -1.056   5.468  -5.255  0.00  0.00    +0.046 C 
ATOM     12  I   UNL     1      -3.465   4.197 -10.057  0.00  0.00    -0.044 I 
ENDBRANCH   3   5
BRANCH   1  14
ATOM     13  N   UNL     1      -0.042  -0.120  -2.451  0.00  0.00    -0.304 N 
ATOM     14  C   UNL     1       0.118   1.104  -2.993  0.00  0.00    +0.300 C 
ATOM     15  O   UNL     1       0.909   1.885  -2.506  0.00  0.00    -0.265 OA
ATOM     16  H   UNL     1      -0.674  -0.744  -2.840  0.00  0.00    +0.149 HD
BRANCH  13  17
ATOM     17  C   UNL     1       0.740  -0.507  -1.274  0.00  0.00    +0.076 C 
BRANCH  17  18
ATOM     18  C   UNL     1       0.869  -2.031  -1.226  0.00  0.00    +0.003 C 
ATOM     19  C   UNL     1       1.575  -2.523  -2.492  0.00  0.00    +0.009 C 
ATOM     20  C   UNL     1       1.685  -2.436   0.003  0.00  0.00    +0.009 C 
ENDBRANCH  17  18
BRANCH  17  22
ATOM     21  C   UNL     1       0.016   1.514   0.004  0.00  0.00    +0.006 C 
ATOM     22  C   UNL     1       0.034  -0.016  -0.008  0.00  0.00    +0.019 C 
ENDBRANCH  17  22
ENDBRANCH  13  17
ENDBRANCH   1  14
TORSDOF 5
