REMARK  Name = ZINC67479156
REMARK  8 active torsions:
REMARK  status: ('A' for Active; 'I' for Inactive)
REMARK    1  A    between atoms: C_3  and  C_10
REMARK    2  A    between atoms: C_5  and  C_7
REMARK    3  A    between atoms: C_10  and  C_11
REMARK    4  A    between atoms: C_11  and  N_12
REMARK    5  A    between atoms: N_15  and  C_16
REMARK    6  A    between atoms: C_16  and  C_17
REMARK    7  A    between atoms: N_22  and  C_23
REMARK    8  A    between atoms: C_23  and  C_24
REMARK                            x       y       z     vdW  Elec       q    Type
REMARK                         _______ _______ _______ _____ _____    ______ ____
ROOT
ATOM      1  N   UNL     1       5.372   3.221   1.411  0.00  0.00    -0.299 N 
ATOM      2  C   UNL     1       5.959   3.565   2.574  0.00  0.00    +0.300 C 
ATOM      3  O   UNL     1       5.450   3.243   3.630  0.00  0.00    -0.253 OA
ATOM      4  N   UNL     1       7.111   4.265   2.567  0.00  0.00    -0.301 N 
ATOM      5  H   UNL     1       5.779   3.477   0.568  0.00  0.00    +0.150 HD
ATOM      6  H   UNL     1       7.517   4.521   1.724  0.00  0.00    +0.150 HD
ENDROOT
BRANCH   1   7
ATOM      7  C   UNL     1       4.120   2.460   1.419  0.00  0.00    +0.110 C 
BRANCH   7   8
ATOM      8  C   UNL     1       3.671   2.203  -0.021  0.00  0.00    +0.054 C 
BRANCH   8  11
ATOM      9  C   UNL     1      -0.017   1.375   0.010  0.00  0.00    +0.001 A 
ATOM     10  C   UNL     1       1.170   2.086   0.002  0.00  0.00    +0.004 A 
ATOM     11  C   UNL     1       2.383   1.420  -0.013  0.00  0.00    -0.045 A 
ATOM     12  C   UNL     1       2.416   0.041  -0.021  0.00  0.00    +0.016 A 
ATOM     13  C   UNL     1       1.222  -0.682  -0.014  0.00  0.00    +0.037 A 
ATOM     14  C   UNL     1       0.002  -0.004   0.002  0.00  0.00    +0.013 A 
BRANCH  13  15
ATOM     15  C   UNL     1       1.250  -2.161  -0.023  0.00  0.00    +0.242 C 
ATOM     16  O   UNL     1       2.313  -2.748  -0.037  0.00  0.00    -0.270 OA
ATOM     17  N   UNL     1       0.095  -2.856  -0.016  0.00  0.00    -0.325 N 
ATOM     18  H   UNL     1      -0.754  -2.387  -0.004  0.00  0.00    +0.145 HD
ATOM     19  H   UNL     1       0.113  -3.826  -0.022  0.00  0.00    +0.145 HD
ENDBRANCH  13  15
ENDBRANCH   8  11
ENDBRANCH   7   8
ENDBRANCH   1   7
BRANCH   4  20
ATOM     20  C   UNL     1       7.749   4.638   3.832  0.00  0.00    +0.090 C 
BRANCH  20  21
ATOM     21  C   UNL     1       9.032   5.421   3.544  0.00  0.00    -0.051 C 
ATOM     22  C   UNL     1       9.622   5.964   4.862  0.00  0.00    -0.016 C 
ATOM     23  C   UNL     1      10.148   7.367   4.458  0.00  0.00    -0.020 C 
ATOM     24  C   UNL     1       9.082   7.815   3.427  0.00  0.00    -0.078 C 
ATOM     25  N   UNL     1       8.729   6.581   2.686  0.00  0.00    +0.383 N 
ATOM     26  H   UNL     1       7.746   6.589   2.460  0.00  0.00    -0.081 HD
BRANCH  25  27
ATOM     27  C   UNL     1       9.519   6.501   1.450  0.00  0.00    -0.075 C 
BRANCH  27  28
ATOM     28  C   UNL     1       9.112   7.638   0.510  0.00  0.00    -0.028 C 
ATOM     29  C   UNL     1       7.658   7.443   0.075  0.00  0.00    +0.002 C 
ATOM     30  C   UNL     1       7.250   8.579  -0.865  0.00  0.00    +0.000 C 
ATOM     31  C   UNL     1       8.157   8.572  -2.098  0.00  0.00    +0.000 C 
ATOM     32  C   UNL     1       9.611   8.766  -1.663  0.00  0.00    +0.000 C 
ATOM     33  C   UNL     1      10.018   7.630  -0.723  0.00  0.00    +0.002 C 
ENDBRANCH  27  28
ENDBRANCH  25  27
ENDBRANCH  20  21
ENDBRANCH   4  20
TORSDOF 8
