REMARK  Name = ZINC52016055
REMARK  5 active torsions:
REMARK  status: ('A' for Active; 'I' for Inactive)
REMARK    1  A    between atoms: C_1  and  N_2
REMARK    2  A    between atoms: C_4  and  S_10
REMARK    3  A    between atoms: S_10  and  N_13
REMARK    4  A    between atoms: N_13  and  C_14
REMARK    5  A    between atoms: C_20  and  O_22
REMARK                            x       y       z     vdW  Elec       q    Type
REMARK                         _______ _______ _______ _____ _____    ______ ____
ROOT
ATOM      1  S   UNL     1      -0.096  -3.085   0.042  0.00  0.00    +0.062 S 
ATOM      2  O   UNL     1      -1.471  -2.726   0.027  0.00  0.00    -0.153 OA
ATOM      3  O   UNL     1       0.352  -4.398  -0.264  0.00  0.00    -0.153 OA
ENDROOT
BRANCH   1   7
ATOM      4  C   UNL     1       4.265  -3.179  -0.811  0.00  0.00    +0.127 C 
ATOM      5  N   UNL     1       2.834  -3.014  -0.544  0.00  0.00    -0.331 N 
ATOM      6  C   UNL     1       2.098  -2.075  -1.258  0.00  0.00    +0.145 A 
ATOM      7  C   UNL     1       0.720  -1.999  -1.080  0.00  0.00    +0.146 A 
ATOM      8  C   UNL     1      -0.000  -1.061  -1.797  0.00  0.00    +0.048 A 
ATOM      9  C   UNL     1       0.684  -0.226  -2.671  0.00  0.00    +0.038 A 
ATOM     10  C   UNL     1       2.053  -0.356  -2.798  0.00  0.00    +0.128 A 
ATOM     11  N   UNL     1       2.715  -1.258  -2.097  0.00  0.00    -0.237 NA
ATOM     12 BR   UNL     1      -0.249   1.075  -3.677  0.00  0.00    -0.049 Br
ATOM     13  H   UNL     1       2.400  -3.560   0.130  0.00  0.00    +0.147 HD
ENDBRANCH   1   7
BRANCH   1  14
ATOM     14  N   UNL     1       0.467  -2.734   1.560  0.00  0.00    -0.184 NA
ATOM     15  H   UNL     1       0.977  -3.396   2.053  0.00  0.00    +0.148 HD
BRANCH  14  16
ATOM     16  C   UNL     1       0.196  -1.424   2.157  0.00  0.00    +0.105 C 
ATOM     17  C   UNL     1      -1.046  -1.517   3.046  0.00  0.00    +0.023 C 
ATOM     18  C   UNL     1      -1.329  -0.149   3.671  0.00  0.00    +0.002 C 
ATOM     19  C   UNL     1      -0.129   0.286   4.514  0.00  0.00    +0.003 C 
ATOM     20  C   UNL     1       1.113   0.378   3.624  0.00  0.00    +0.033 C 
ATOM     21  C   UNL     1       1.396  -0.990   3.000  0.00  0.00    +0.133 C 
BRANCH  21  22
ATOM     22  O   UNL     1       1.623  -1.948   4.036  0.00  0.00    -0.390 OA
ATOM     23  H   UNL     1       2.371  -1.736   4.611  0.00  0.00    +0.210 HD
ENDBRANCH  21  22
ENDBRANCH  14  16
ENDBRANCH   1  14
TORSDOF 4
