REMARK  Name = ZINC13145419
REMARK  12 active torsions:
REMARK  status: ('A' for Active; 'I' for Inactive)
REMARK    1  A    between atoms: C_1  and  C_2
REMARK    2  A    between atoms: C_2  and  N_3
REMARK    3  A    between atoms: C_7  and  C_9
REMARK    4  A    between atoms: C_9  and  C_11
REMARK    5  A    between atoms: C_9  and  O_12
REMARK    6  A    between atoms: O_12  and  C_13
REMARK    7  A    between atoms: C_13  and  C_15
REMARK    8  A    between atoms: C_19  and  S_21
REMARK    9  A    between atoms: S_21  and  N_24
REMARK   10  A    between atoms: C_26  and  C_35
REMARK   11  A    between atoms: C_31  and  C_33
REMARK   12  A    between atoms: C_31  and  C_34
REMARK                            x       y       z     vdW  Elec       q    Type
REMARK                         _______ _______ _______ _____ _____    ______ ____
ROOT
ATOM      1  C   UNL     1       0.359  -1.016  -5.606  0.00  0.00    +0.061 A 
ATOM      2  C   UNL     1      -0.995  -1.349  -5.681  0.00  0.00    +0.015 A 
ATOM      3  C   UNL     1      -1.651  -1.812  -4.559  0.00  0.00    +0.003 A 
ATOM      4  C   UNL     1      -0.969  -1.952  -3.363  0.00  0.00    +0.028 A 
ATOM      5  C   UNL     1       0.372  -1.620  -3.281  0.00  0.00    +0.106 A 
ATOM      6  C   UNL     1       1.040  -1.155  -4.395  0.00  0.00    +0.043 A 
ENDROOT
BRANCH   5   7
ATOM      7  S   UNL     1       1.229  -1.796  -1.752  0.00  0.00    +0.061 S 
ATOM      8  O   UNL     1       2.606  -1.942  -2.073  0.00  0.00    -0.153 OA
ATOM      9  O   UNL     1       0.516  -2.765  -0.996  0.00  0.00    -0.153 OA
BRANCH   7  10
ATOM     10  N   UNL     1       1.082  -0.360  -0.940  0.00  0.00    -0.173 NA
ATOM     11  C   UNL     1       2.006   0.781  -1.035  0.00  0.00    +0.116 C 
ATOM     12  C   UNL     1       1.512   1.822  -0.003  0.00  0.00    -0.016 C 
ATOM     13  C   UNL     1      -0.019   1.548   0.011  0.00  0.00    +0.028 C 
ATOM     14  C   UNL     1       0.002  -0.004   0.002  0.00  0.00    +0.081 C 
ATOM     15  C   UNL     1       0.383  -0.458   1.410  0.00  0.00    +0.027 C 
ATOM     16  C   UNL     1       1.724   0.084   1.873  0.00  0.00    -0.033 C 
ATOM     17  C   UNL     1       2.069   1.474   1.374  0.00  0.00    +0.014 C 
ATOM     18  C   UNL     1       2.839  -0.905   1.502  0.00  0.00    +0.011 C 
ATOM     19  C   UNL     1       1.686   0.144   3.419  0.00  0.00    +0.011 C 
ATOM     20  C   UNL     1       1.839   3.262  -0.429  0.00  0.00    +0.012 C 
ENDBRANCH   7  10
ENDBRANCH   5   7
BRANCH   1  21
ATOM     21  C   UNL     1       1.068  -0.519  -6.803  0.00  0.00    +0.340 C 
ATOM     22  O   UNL     1       2.246  -0.230  -6.735  0.00  0.00    -0.245 OA
BRANCH  21  23
ATOM     23  O   UNL     1       0.408  -0.386  -7.970  0.00  0.00    -0.449 OA
BRANCH  23  24
ATOM     24  C   UNL     1       1.168   0.108  -9.104  0.00  0.00    +0.259 C 
ATOM     25  C   UNL     1       1.787  -1.072  -9.857  0.00  0.00    +0.062 C 
BRANCH  24  30
ATOM     26  N   UNL     1       0.412   2.655 -13.111  0.00  0.00    -0.299 N 
ATOM     27  C   UNL     1      -0.077   2.102 -11.984  0.00  0.00    +0.306 C 
ATOM     28  O   UNL     1      -1.256   2.216 -11.713  0.00  0.00    -0.252 OA
ATOM     29  N   UNL     1       0.742   1.421 -11.157  0.00  0.00    -0.237 N 
ATOM     30  C   UNL     1       0.253   0.869 -10.029  0.00  0.00    +0.261 C 
ATOM     31  O   UNL     1      -0.924   0.983  -9.759  0.00  0.00    -0.271 OA
ATOM     32  H   UNL     1       1.354   2.563 -13.328  0.00  0.00    +0.150 HD
ATOM     33  H   UNL     1       1.683   1.330 -11.373  0.00  0.00    +0.159 HD
BRANCH  26  35
ATOM     34  C   UNL     1       0.323   3.915 -15.206  0.00  0.00    +0.024 C 
ATOM     35  C   UNL     1      -0.477   3.394 -14.010  0.00  0.00    +0.102 C 
ENDBRANCH  26  35
ENDBRANCH  24  30
ENDBRANCH  23  24
ENDBRANCH  21  23
ENDBRANCH   1  21
TORSDOF 7
