REMARK  Name = ZINC09937432
REMARK  2 active torsions:
REMARK  status: ('A' for Active; 'I' for Inactive)
REMARK    1  A    between atoms: C_5  and  C_7
REMARK    2  A    between atoms: N_11  and  C_14
REMARK                            x       y       z     vdW  Elec       q    Type
REMARK                         _______ _______ _______ _____ _____    ______ ____
ROOT
ATOM      1  C   UNL     1       1.250  -2.159  -0.022  0.00  0.00    +0.069 A 
ATOM      2  C   UNL     1       2.364  -2.939  -0.128  0.00  0.00    +0.099 A 
ATOM      3  C   UNL     1       1.956  -4.287  -0.095  0.00  0.00    +0.272 A 
ATOM      4  O   UNL     1       2.687  -5.259  -0.166  0.00  0.00    -0.266 OA
ATOM      5  N   UNL     1       0.614  -4.313   0.029  0.00  0.00    -0.219 N 
ATOM      6  N   UNL     1       0.158  -2.989   0.081  0.00  0.00    -0.289 N 
ATOM      7  H   UNL     1      -0.766  -2.708   0.172  0.00  0.00    +0.187 HD
ENDROOT
BRANCH   1  12
ATOM      8  C   UNL     1       1.757   1.414  -1.056  0.00  0.00    +0.001 A 
ATOM      9  C   UNL     1       1.171   2.087   0.003  0.00  0.00    +0.001 A 
ATOM     10  C   UNL     1       0.611   1.383   1.053  0.00  0.00    +0.020 A 
ATOM     11  C   UNL     1       0.633   0.002   1.052  0.00  0.00    +0.050 A 
ATOM     12  C   UNL     1       1.223  -0.683  -0.014  0.00  0.00    +0.018 A 
ATOM     13  C   UNL     1       1.786   0.036  -1.070  0.00  0.00    +0.011 A 
ATOM     14 CL   UNL     1      -0.070  -0.880   2.372  0.00  0.00    -0.083 Cl
ENDBRANCH   1  12
BRANCH   5  15
ATOM     15  C   UNL     1      -0.184  -5.461   0.098  0.00  0.00    +0.067 A 
ATOM     16  C   UNL     1      -1.562  -5.344   0.220  0.00  0.00    +0.030 A 
ATOM     17  C   UNL     1      -2.348  -6.478   0.287  0.00  0.00    +0.040 A 
ATOM     18  C   UNL     1      -1.762  -7.731   0.234  0.00  0.00    +0.124 A 
ATOM     19  C   UNL     1      -0.387  -7.851   0.113  0.00  0.00    +0.040 A 
ATOM     20  C   UNL     1       0.401  -6.719   0.039  0.00  0.00    +0.030 A 
ATOM     21  F   UNL     1      -2.531  -8.839   0.300  0.00  0.00    -0.205 F 
ENDBRANCH   5  15
TORSDOF 2
