REMARK  Name = ZINC11071813
REMARK  8 active torsions:
REMARK  status: ('A' for Active; 'I' for Inactive)
REMARK    1  A    between atoms: C_1  and  C_2
REMARK    2  A    between atoms: C_15  and  C_17
REMARK    3  A    between atoms: C_17  and  N_55
REMARK    4  A    between atoms: C_18  and  N_55
REMARK    5  A    between atoms: C_19  and  C_21
REMARK    6  A    between atoms: C_19  and  C_22
REMARK    7  A    between atoms: C_19  and  N_55
REMARK    8  A    between atoms: N_24  and  C_25
REMARK                            x       y       z     vdW  Elec       q    Type
REMARK                         _______ _______ _______ _____ _____    ______ ____
ROOT
ATOM      1  C   UNL     1       0.144   4.132  -2.417  0.00  0.00    +0.020 C 
ENDROOT
BRANCH   1  15
ATOM      2  C   UNL     1      -0.019   6.049   1.795  0.00  0.00    +0.029 C 
ATOM      3  C   UNL     1       1.174   5.824   0.863  0.00  0.00    +0.087 C 
ATOM      4  C   UNL     1       2.375   5.347   1.681  0.00  0.00    +0.118 C 
ATOM      5  C   UNL     1       3.414   4.746   0.772  0.00  0.00    +0.219 C 
ATOM      6  O   UNL     1       4.419   5.372   0.509  0.00  0.00    -0.275 OA
ATOM      7  N   UNL     1       3.235   3.514   0.249  0.00  0.00    -0.284 N 
ATOM      8  C   UNL     1       2.039   2.819   0.464  0.00  0.00    +0.055 A 
ATOM      9  C   UNL     1       2.050   1.499   0.885  0.00  0.00    +0.025 A 
ATOM     10  C   UNL     1       0.857   0.823   1.062  0.00  0.00    +0.002 A 
ATOM     11  C   UNL     1      -0.347   1.458   0.814  0.00  0.00    +0.002 A 
ATOM     12  C   UNL     1      -0.366   2.777   0.399  0.00  0.00    +0.025 A 
ATOM     13  C   UNL     1       0.824   3.465   0.232  0.00  0.00    +0.058 A 
ATOM     14  N   UNL     1       0.823   4.816  -0.139  0.00  0.00    -0.268 N 
ATOM     15  C   UNL     1       0.503   5.181  -1.396  0.00  0.00    +0.204 C 
ATOM     16  O   UNL     1       0.505   6.354  -1.706  0.00  0.00    -0.277 OA
ATOM     17  H   UNL     1       3.940   3.108  -0.280  0.00  0.00    +0.155 HD
ENDBRANCH   1  15
BRANCH   1  19
ATOM     18  C   UNL     1       1.034   5.423  -4.263  0.00  0.00    -0.094 C 
ATOM     19  N   UNL     1      -0.181   4.802  -3.694  0.00  0.00    +0.391 N 
ATOM     20  H   UNL     1      -0.879   5.534  -3.519  0.00  0.00    -0.080 HD
BRANCH  19  21
ATOM     21  C   UNL     1      -0.742   3.823  -4.649  0.00  0.00    +0.017 C 
ATOM     22  C   UNL     1       0.102   2.547  -4.667  0.00  0.00    -0.004 C 
BRANCH  21  23
ATOM     23  C   UNL     1      -2.150   3.488  -4.228  0.00  0.00    +0.203 C 
ATOM     24  O   UNL     1      -2.545   3.807  -3.126  0.00  0.00    -0.277 OA
ATOM     25  N   UNL     1      -2.970   2.834  -5.075  0.00  0.00    -0.287 N 
ATOM     26  H   UNL     1      -2.675   2.635  -5.977  0.00  0.00    +0.155 HD
BRANCH  25  27
ATOM     27  C   UNL     1      -4.245   2.444  -4.652  0.00  0.00    +0.033 A 
ATOM     28  C   UNL     1      -4.794   1.252  -5.107  0.00  0.00    +0.025 A 
ATOM     29  C   UNL     1      -6.051   0.866  -4.685  0.00  0.00    +0.022 A 
ATOM     30  C   UNL     1      -6.768   1.671  -3.817  0.00  0.00    +0.041 A 
ATOM     31  C   UNL     1      -6.226   2.862  -3.367  0.00  0.00    +0.022 A 
ATOM     32  C   UNL     1      -4.967   3.250  -3.782  0.00  0.00    +0.025 A 
ATOM     33 CL   UNL     1      -8.351   1.187  -3.294  0.00  0.00    -0.084 Cl
ENDBRANCH  25  27
ENDBRANCH  21  23
ENDBRANCH  19  21
ENDBRANCH   1  19
TORSDOF 5
