REMARK  Name = ZINC14545198
REMARK  5 active torsions:
REMARK  status: ('A' for Active; 'I' for Inactive)
REMARK    1  A    between atoms: C_4  and  C_7
REMARK    2  A    between atoms: C_7  and  C_8
REMARK    3  A    between atoms: C_8  and  C_9
REMARK    4  A    between atoms: N_11  and  C_12
REMARK    5  A    between atoms: C_25  and  C_28
REMARK                            x       y       z     vdW  Elec       q    Type
REMARK                         _______ _______ _______ _____ _____    ______ ____
ROOT
ATOM      1  C   UNL     1      -3.195   9.385  -1.473  0.00  0.00    +0.034 A 
ATOM      2  C   UNL     1      -3.202   9.400  -0.085  0.00  0.00    +0.025 A 
ATOM      3  C   UNL     1      -2.174   8.794   0.609  0.00  0.00    +0.025 A 
ATOM      4  C   UNL     1      -1.140   8.172  -0.081  0.00  0.00    +0.031 A 
ATOM      5  C   UNL     1      -1.124   8.159  -1.464  0.00  0.00    -0.018 A 
ATOM      6  C   UNL     1      -2.161   8.768  -2.158  0.00  0.00    +0.029 A 
ATOM      7  C   UNL     1      -0.026   7.509  -2.263  0.00  0.00    +0.049 C 
ATOM      8  C   UNL     1       0.615   8.576  -3.140  0.00  0.00    -0.023 C 
ATOM      9  C   UNL     1       1.694   9.049  -2.570  0.00  0.00    -0.030 C 
ATOM     10  C   UNL     1       1.933   8.364  -1.236  0.00  0.00    +0.033 C 
ATOM     11  C   UNL     1       1.145   7.041  -1.381  0.00  0.00    +0.029 C 
ATOM     12  C   UNL     1       0.677   6.535  -0.029  0.00  0.00    +0.107 C 
ATOM     13  N   UNL     1      -0.100   7.582   0.644  0.00  0.00    -0.336 N 
ATOM     14  H   UNL     1       0.089   7.836   1.561  0.00  0.00    +0.147 HD
ENDROOT
BRANCH  12  15
ATOM     15  C   UNL     1      -0.185   5.314  -0.221  0.00  0.00    -0.002 A 
ATOM     16  C   UNL     1      -1.525   5.286  -0.296  0.00  0.00    +0.089 A 
ATOM     17  N   UNL     1      -1.956   4.000  -0.472  0.00  0.00    -0.360 N 
ATOM     18  H   UNL     1      -2.884   3.729  -0.554  0.00  0.00    +0.165 HD
ATOM     19  C   UNL     1      -0.877   3.146  -0.515  0.00  0.00    +0.047 A 
ATOM     20  C   UNL     1       0.280   3.932  -0.360  0.00  0.00    +0.005 A 
ATOM     21  C   UNL     1       1.538   3.327  -0.364  0.00  0.00    +0.010 A 
ATOM     22  C   UNL     1       1.640   1.973  -0.519  0.00  0.00    +0.001 A 
ATOM     23  C   UNL     1       0.502   1.194  -0.672  0.00  0.00    +0.002 A 
ATOM     24  C   UNL     1      -0.750   1.770  -0.677  0.00  0.00    +0.026 A 
ENDBRANCH  12  15
BRANCH   1  27
ATOM     25  C   UNL     1      -4.835  11.098  -1.690  0.00  0.00    +0.218 C 
ATOM     26  O   UNL     1      -4.409  11.617  -0.679  0.00  0.00    -0.275 OA
ATOM     27  N   UNL     1      -4.237   9.996  -2.184  0.00  0.00    -0.285 N 
ATOM     28  H   UNL     1      -4.529   9.626  -3.032  0.00  0.00    +0.155 HD
BRANCH  25  29
ATOM     29  C   UNL     1      -6.031  11.686  -2.392  0.00  0.00    +0.101 C 
BRANCH  29  30
ATOM     30  C   UNL     1      -6.513  12.923  -1.630  0.00  0.00    +0.044 C 
BRANCH  30  34
ATOM     31  C   UNL     1      -9.906  14.590  -3.620  0.00  0.00    +0.000 A 
ATOM     32  C   UNL     1     -10.081  13.631  -2.640  0.00  0.00    +0.000 A 
ATOM     33  C   UNL     1      -8.984  13.092  -1.996  0.00  0.00    +0.003 A 
ATOM     34  C   UNL     1      -7.710  13.511  -2.332  0.00  0.00    -0.047 A 
ATOM     35  C   UNL     1      -7.534  14.473  -3.309  0.00  0.00    +0.003 A 
ATOM     36  C   UNL     1      -8.632  15.009  -3.957  0.00  0.00    +0.000 A 
ENDBRANCH  30  34
ENDBRANCH  29  30
ENDBRANCH  25  29
ENDBRANCH   1  27
TORSDOF 5
