REMARK  Name = ZINC65182992
REMARK  9 active torsions:
REMARK  status: ('A' for Active; 'I' for Inactive)
REMARK    1  A    between atoms: C_1  and  C_2
REMARK    2  A    between atoms: C_7  and  C_8
REMARK    3  A    between atoms: N_10  and  C_11
REMARK    4  A    between atoms: N_10  and  C_12
REMARK    5  A    between atoms: C_12  and  C_13
REMARK    6  A    between atoms: C_13  and  C_14
REMARK    7  A    between atoms: C_17  and  C_20
REMARK    8  A    between atoms: C_25  and  O_30
REMARK    9  A    between atoms: O_30  and  C_31
REMARK                            x       y       z     vdW  Elec       q    Type
REMARK                         _______ _______ _______ _____ _____    ______ ____
ROOT
ATOM      1  C   UNL     1      -1.232   1.194   6.614  0.00  0.00    +0.139 C 
ATOM      2  N   UNL     1      -0.221   1.779   7.146  0.00  0.00    -0.072 NA
ATOM      3  O   UNL     1      -0.594   2.461   8.329  0.00  0.00    -0.367 OA
ATOM      4  C   UNL     1      -2.003   2.237   8.497  0.00  0.00    +0.318 C 
ATOM      5  N   UNL     1      -2.379   1.405   7.344  0.00  0.00    -0.291 N 
ATOM      6  H   UNL     1      -3.265   1.067   7.138  0.00  0.00    +0.151 HD
ENDROOT
BRANCH   4   7
ATOM      7  C   UNL     1      -2.762   3.565   8.466  0.00  0.00    +0.165 C 
ATOM      8  C   UNL     1      -2.288   4.463   9.587  0.00  0.00    +0.013 C 
ATOM      9  C   UNL     1      -1.786   5.570   8.994  0.00  0.00    -0.000 A 
ATOM     10  C   UNL     1      -1.179   6.796   9.524  0.00  0.00    +0.055 A 
ATOM     11  C   UNL     1      -0.757   7.756   8.668  0.00  0.00    +0.121 A 
ATOM     12  C   UNL     1      -0.878   7.624   7.273  0.00  0.00    +0.047 A 
ATOM     13  C   UNL     1      -1.421   6.534   6.691  0.00  0.00    +0.029 A 
ATOM     14  C   UNL     1      -1.912   5.432   7.524  0.00  0.00    +0.043 A 
ATOM     15  N   UNL     1      -2.472   4.285   7.221  0.00  0.00    -0.373 N 
ATOM     16  H   UNL     1      -2.662   3.966   6.325  0.00  0.00    +0.160 HD
BRANCH  11  17
ATOM     17  O   UNL     1      -0.198   8.887   9.173  0.00  0.00    -0.495 OA
ATOM     18  C   UNL     1       0.233   9.874   8.234  0.00  0.00    +0.277 C 
ENDBRANCH  11  17
ENDBRANCH   4   7
BRANCH   1  19
ATOM     19  C   UNL     1      -1.172   0.384   5.345  0.00  0.00    +0.094 C 
BRANCH  19  20
ATOM     20  C   UNL     1       0.264   0.371   4.816  0.00  0.00    +0.115 C 
BRANCH  20  23
ATOM     21  C   UNL     1       0.129   0.182   2.391  0.00  0.00    +0.247 C 
ATOM     22  O   UNL     1      -0.011   1.388   2.332  0.00  0.00    -0.270 OA
ATOM     23  N   UNL     1       0.323  -0.417   3.583  0.00  0.00    -0.300 N 
ATOM     24  C   UNL     1       0.593  -1.856   3.644  0.00  0.00    +0.132 C 
BRANCH  21  31
ATOM     25  C   UNL     1      -2.060   0.524   0.530  0.00  0.00    +0.044 C 
ATOM     26  C   UNL     1      -0.965  -0.472   0.250  0.00  0.00    -0.038 A 
ATOM     27  C   UNL     1      -0.996  -1.227  -0.904  0.00  0.00    +0.004 A 
ATOM     28  C   UNL     1       0.009  -2.142  -1.163  0.00  0.00    +0.000 A 
ATOM     29  C   UNL     1       1.051  -2.306  -0.268  0.00  0.00    +0.001 A 
ATOM     30  C   UNL     1       1.094  -1.557   0.890  0.00  0.00    +0.013 A 
ATOM     31  C   UNL     1       0.086  -0.628   1.155  0.00  0.00    +0.040 A 
ENDBRANCH  21  31
ENDBRANCH  20  23
ENDBRANCH  19  20
ENDBRANCH   1  19
TORSDOF 6
