REMARK  Name = ZINC13198235
REMARK  7 active torsions:
REMARK  status: ('A' for Active; 'I' for Inactive)
REMARK    1  A    between atoms: C_1  and  N_2
REMARK    2  A    between atoms: N_2  and  C_3
REMARK    3  A    between atoms: N_2  and  S_14
REMARK    4  A    between atoms: C_3  and  C_4
REMARK    5  A    between atoms: S_14  and  C_17
REMARK    6  A    between atoms: C_20  and  O_25
REMARK    7  A    between atoms: C_21  and  C_23
REMARK                            x       y       z     vdW  Elec       q    Type
REMARK                         _______ _______ _______ _____ _____    ______ ____
ROOT
ATOM      1  S   UNL     1       3.917   1.853  -2.146  0.00  0.00    +0.061 S 
ATOM      2  O   UNL     1       3.696   1.723  -3.544  0.00  0.00    -0.153 OA
ATOM      3  O   UNL     1       3.791   3.095  -1.467  0.00  0.00    -0.153 OA
ENDROOT
BRANCH   1   4
ATOM      4  C   UNL     1       5.552   1.274  -1.839  0.00  0.00    +0.106 A 
ATOM      5  C   UNL     1       6.240   1.714  -0.720  0.00  0.00    +0.032 A 
ATOM      6  C   UNL     1       7.521   1.264  -0.465  0.00  0.00    +0.048 A 
ATOM      7  C   UNL     1       8.131   0.374  -1.337  0.00  0.00    +0.131 A 
ATOM      8  C   UNL     1       7.440  -0.069  -2.474  0.00  0.00    +0.106 A 
ATOM      9  C   UNL     1       6.143   0.391  -2.716  0.00  0.00    +0.047 A 
BRANCH   8  10
ATOM     10  C   UNL     1       8.078  -1.015  -3.407  0.00  0.00    +0.390 C 
ATOM     11  O   UNL     1       9.207  -1.412  -3.193  0.00  0.00    -0.240 OA
ATOM     12  O   UNL     1       7.410  -1.438  -4.498  0.00  0.00    -0.240 OA
ENDBRANCH   8  10
BRANCH   7  13
ATOM     13  O   UNL     1       9.391  -0.065  -1.091  0.00  0.00    -0.506 OA
ATOM     14  H   UNL     1      10.083   0.486  -1.483  0.00  0.00    +0.292 HD
ENDBRANCH   7  13
ENDBRANCH   1   4
BRANCH   1  16
ATOM     15  C   UNL     1       2.368  -0.364  -2.132  0.00  0.00    +0.132 C 
ATOM     16  N   UNL     1       2.877   0.800  -1.403  0.00  0.00    -0.175 NA
BRANCH  16  17
ATOM     17  C   UNL     1       2.466   1.033  -0.017  0.00  0.00    +0.144 C 
BRANCH  17  18
ATOM     18  C   UNL     1       1.155   1.776   0.001  0.00  0.00    -0.031 A 
ATOM     19  C   UNL     1       1.155   3.170   0.008  0.00  0.00    +0.005 A 
ATOM     20  C   UNL     1      -0.011   3.871   0.023  0.00  0.00    +0.009 A 
ATOM     21  C   UNL     1      -1.236   3.183   0.031  0.00  0.00    -0.018 A 
ATOM     22  C   UNL     1      -2.460   3.873   0.047  0.00  0.00    +0.008 A 
ATOM     23  C   UNL     1      -3.627   3.172   0.055  0.00  0.00    +0.001 A 
ATOM     24  C   UNL     1      -3.628   1.779   0.047  0.00  0.00    +0.001 A 
ATOM     25  C   UNL     1      -2.462   1.077   0.031  0.00  0.00    +0.008 A 
ATOM     26  C   UNL     1      -1.237   1.766   0.018  0.00  0.00    -0.018 A 
ATOM     27  C   UNL     1      -0.013   1.076   0.008  0.00  0.00    +0.013 A 
ENDBRANCH  17  18
ENDBRANCH  16  17
ENDBRANCH   1  16
TORSDOF 6
