REMARK  Name = ZINC38573393
REMARK  11 active torsions:
REMARK  status: ('A' for Active; 'I' for Inactive)
REMARK    1  A    between atoms: C_1  and  C_2
REMARK    2  A    between atoms: C_4  and  C_10
REMARK    3  A    between atoms: C_5  and  O_9
REMARK    4  A    between atoms: C_7  and  C_8
REMARK    5  A    between atoms: C_13  and  C_15
REMARK    6  A    between atoms: N_17  and  C_18
REMARK    7  A    between atoms: C_20  and  C_31
REMARK    8  A    between atoms: N_33  and  C_34
REMARK    9  A    between atoms: C_34  and  C_35
REMARK   10  A    between atoms: C_35  and  O_36
REMARK   11  A    between atoms: O_36  and  C_37
REMARK                            x       y       z     vdW  Elec       q    Type
REMARK                         _______ _______ _______ _____ _____    ______ ____
ROOT
ATOM      1  C   UNL     1      -1.140  -4.165  -6.291  0.00  0.00    +0.261 C 
ATOM      2  O   UNL     1      -1.520  -3.196  -6.921  0.00  0.00    -0.269 OA
ATOM      3  N   UNL     1      -0.503  -5.172  -6.921  0.00  0.00    -0.298 N 
ATOM      4  H   UNL     1      -0.142  -5.913  -6.410  0.00  0.00    +0.150 HD
ENDROOT
BRANCH   3   5
ATOM      5  C   UNL     1      -0.357  -5.148  -8.379  0.00  0.00    +0.144 C 
ATOM      6  C   UNL     1       0.903  -5.920  -8.814  0.00  0.00    +0.109 C 
ATOM      7  C   UNL     1       2.074  -5.030  -9.152  0.00  0.00    +0.016 C 
ATOM      8  C   UNL     1       3.406  -5.534  -8.701  0.00  0.00    +0.005 C 
ATOM      9  C   UNL     1       3.984  -4.828  -7.489  0.00  0.00    +0.000 C 
ATOM     10  C   UNL     1       3.862  -3.313  -7.634  0.00  0.00    +0.001 C 
ATOM     11  C   UNL     1       2.383  -2.948  -7.766  0.00  0.00    +0.014 C 
ATOM     12  C   UNL     1       1.832  -3.534  -9.044  0.00  0.00    +0.052 C 
ATOM     13  S   UNL     1      -0.018  -3.440  -8.971  0.00  0.00    -0.134 S 
BRANCH   6  14
ATOM     14  C   UNL     1       1.312  -6.845  -7.697  0.00  0.00    +0.219 C 
ATOM     15  O   UNL     1       1.786  -6.391  -6.677  0.00  0.00    -0.275 OA
ATOM     16  N   UNL     1       1.152  -8.176  -7.831  0.00  0.00    -0.313 N 
ATOM     17  H   UNL     1       0.773  -8.539  -8.646  0.00  0.00    +0.149 HD
BRANCH  16  18
ATOM     18  C   UNL     1       1.550  -9.075  -6.744  0.00  0.00    +0.132 C 
BRANCH  18  19
ATOM     19  C   UNL     1       1.264 -10.522  -7.149  0.00  0.00    +0.178 C 
BRANCH  19  20
ATOM     20  O   UNL     1       2.092 -10.879  -8.257  0.00  0.00    -0.381 OA
ATOM     21  C   UNL     1       1.902 -12.219  -8.717  0.00  0.00    +0.194 C 
ENDBRANCH  19  20
ENDBRANCH  18  19
ENDBRANCH  16  18
ENDBRANCH   6  14
ENDBRANCH   3   5
BRANCH   1  25
ATOM     22  C   UNL     1      -1.989  -3.870  -2.602  0.00  0.00    +0.080 C 
ATOM     23  N   UNL     1      -1.364  -5.006  -2.815  0.00  0.00    -0.153 NA
ATOM     24  N   UNL     1      -1.034  -5.202  -4.031  0.00  0.00    -0.148 NA
ATOM     25  C   UNL     1      -1.376  -4.238  -4.846  0.00  0.00    +0.131 C 
ATOM     26  C   UNL     1      -2.076  -3.212  -3.970  0.00  0.00    +0.120 C 
BRANCH  22  30
ATOM     27  C   UNL     1      -4.326  -0.306  -0.026  0.00  0.00    +0.044 C 
ATOM     28  C   UNL     1      -3.623  -1.638  -0.078  0.00  0.00    -0.047 A 
ATOM     29  C   UNL     1      -3.150  -2.115  -1.279  0.00  0.00    +0.017 A 
ATOM     30  C   UNL     1      -2.495  -3.354  -1.329  0.00  0.00    +0.040 A 
ATOM     31  C   UNL     1      -2.329  -4.098  -0.146  0.00  0.00    +0.126 A 
ATOM     32  C   UNL     1      -2.814  -3.598   1.052  0.00  0.00    +0.049 A 
ATOM     33  C   UNL     1      -3.452  -2.373   1.085  0.00  0.00    -0.044 A 
ATOM     34  C   UNL     1      -3.971  -1.835   2.393  0.00  0.00    +0.044 C 
BRANCH  31  35
ATOM     35  O   UNL     1      -1.699  -5.298  -0.179  0.00  0.00    -0.506 OA
ATOM     36  H   UNL     1      -0.743  -5.244  -0.043  0.00  0.00    +0.292 HD
ENDBRANCH  31  35
ENDBRANCH  22  30
ENDBRANCH   1  25
TORSDOF 8
