REMARK  Name = ZINC39630004
REMARK  6 active torsions:
REMARK  status: ('A' for Active; 'I' for Inactive)
REMARK    1  A    between atoms: N_3  and  C_6
REMARK    2  A    between atoms: C_6  and  C_7
REMARK    3  A    between atoms: C_7  and  C_8
REMARK    4  A    between atoms: C_8  and  N_9
REMARK    5  A    between atoms: C_10  and  C_12
REMARK    6  A    between atoms: C_23  and  C_25
REMARK                            x       y       z     vdW  Elec       q    Type
REMARK                         _______ _______ _______ _____ _____    ______ ____
ROOT
ATOM      1  C   UNL     1       7.894   0.569   5.112  0.00  0.00    +0.100 C 
ATOM      2  C   UNL     1       7.281  -0.783   5.541  0.00  0.00    +0.121 C 
ATOM      3  N   UNL     1       8.366  -1.770   5.331  0.00  0.00    -0.296 N 
ATOM      4  C   UNL     1       9.595  -1.065   5.770  0.00  0.00    +0.115 C 
ATOM      5  C   UNL     1       9.412   0.381   5.268  0.00  0.00    -0.004 C 
ATOM      6  C   UNL     1       9.965   1.369   6.290  0.00  0.00    -0.010 C 
ATOM      7  C   UNL     1      11.484   1.203   6.384  0.00  0.00    -0.082 C 
ATOM      8  N   UNL     1      12.087   1.442   5.067  0.00  0.00    +0.379 N 
ATOM      9  C   UNL     1      11.621   0.429   4.112  0.00  0.00    -0.082 C 
ATOM     10  C   UNL     1      10.107   0.563   3.922  0.00  0.00    -0.010 C 
ATOM     11  C   UNL     1       8.261  -3.024   4.851  0.00  0.00    +0.247 C 
ATOM     12  O   UNL     1       7.198  -3.420   4.413  0.00  0.00    -0.270 OA
ATOM     13  H   UNL     1      11.823   2.359   4.739  0.00  0.00    -0.086 HD
ATOM     14  H   UNL     1      13.092   1.392   5.144  0.00  0.00    -0.086 HD
ENDROOT
BRANCH  11  15
ATOM     15  C   UNL     1       9.438  -3.919   4.856  0.00  0.00    +0.042 A 
ATOM     16  C   UNL     1      10.507  -3.666   5.717  0.00  0.00    +0.051 A 
ATOM     17  C   UNL     1      11.604  -4.505   5.717  0.00  0.00    +0.127 A 
ATOM     18  C   UNL     1      11.645  -5.597   4.866  0.00  0.00    +0.076 A 
ATOM     19  C   UNL     1      10.586  -5.854   4.010  0.00  0.00    +0.127 A 
ATOM     20  C   UNL     1       9.481  -5.024   4.005  0.00  0.00    +0.051 A 
ATOM     21  F   UNL     1      10.632  -6.921   3.182  0.00  0.00    -0.205 F 
ATOM     22  F   UNL     1      12.640  -4.261   6.549  0.00  0.00    -0.205 F 
ENDBRANCH  11  15
BRANCH   1  24
ATOM     23  N   UNL     1       7.547   2.145   3.237  0.00  0.00    -0.315 N 
ATOM     24  C   UNL     1       7.546   0.871   3.677  0.00  0.00    +0.218 C 
ATOM     25  O   UNL     1       7.267  -0.033   2.918  0.00  0.00    -0.275 OA
ATOM     26  H   UNL     1       7.771   2.868   3.845  0.00  0.00    +0.149 HD
BRANCH  23  27
ATOM     27  C   UNL     1       7.209   2.438   1.842  0.00  0.00    +0.106 C 
BRANCH  27  28
ATOM     28  C   UNL     1       7.284   3.948   1.606  0.00  0.00    +0.040 C 
BRANCH  28  29
ATOM     29  C   UNL     1       6.932   4.255   0.149  0.00  0.00    +0.124 C 
BRANCH  29  32
ATOM     30  C   UNL     1       7.732   7.697  -0.561  0.00  0.00    +0.101 A 
ATOM     31  C   UNL     1       8.105   6.406  -0.479  0.00  0.00    +0.104 A 
ATOM     32  N   UNL     1       7.003   5.701  -0.076  0.00  0.00    -0.338 N 
ATOM     33  C   UNL     1       5.995   6.586   0.073  0.00  0.00    +0.173 A 
ATOM     34  N   UNL     1       6.438   7.778  -0.218  0.00  0.00    -0.352 N 
ATOM     35  H   UNL     1       5.914   8.594  -0.191  0.00  0.00    +0.166 HD
ENDBRANCH  29  32
ENDBRANCH  28  29
ENDBRANCH  27  28
ENDBRANCH  23  27
ENDBRANCH   1  24
TORSDOF 6
