REMARK  Name = ZINC24641987
REMARK  8 active torsions:
REMARK  status: ('A' for Active; 'I' for Inactive)
REMARK    1  A    between atoms: C_1  and  C_2
REMARK    2  A    between atoms: C_2  and  C_3
REMARK    3  A    between atoms: C_3  and  C_26
REMARK    4  A    between atoms: N_6  and  N_10
REMARK    5  A    between atoms: C_11  and  C_13
REMARK    6  A    between atoms: C_13  and  C_14
REMARK    7  A    between atoms: C_14  and  C_15
REMARK    8  A    between atoms: C_18  and  C_20
REMARK                            x       y       z     vdW  Elec       q    Type
REMARK                         _______ _______ _______ _____ _____    ______ ____
ROOT
ATOM      1  N   UNL     1       2.470  -4.414  -2.654  0.00  0.00    -0.224 N 
ATOM      2  C   UNL     1       2.279  -3.778  -1.482  0.00  0.00    +0.230 C 
ATOM      3  O   UNL     1       2.471  -4.362  -0.436  0.00  0.00    -0.274 OA
ATOM      4  H   UNL     1       2.297  -3.885  -3.602  0.00  0.00    +0.174 HD
ENDROOT
BRANCH   1   8
ATOM      5  C   UNL     1       2.962  -8.027  -2.842  0.00  0.00    +0.139 C 
ATOM      6  C   UNL     1       2.087  -6.795  -2.951  0.00  0.00    +0.268 C 
ATOM      7  O   UNL     1       0.909  -6.755  -3.236  0.00  0.00    -0.271 OA
ATOM      8  N   UNL     1       2.890  -5.751  -2.665  0.00  0.00    -0.137 N 
ATOM      9  C   UNL     1       4.139  -6.149  -2.397  0.00  0.00    +0.327 C 
ATOM     10  O   UNL     1       5.045  -5.388  -2.115  0.00  0.00    -0.251 OA
ATOM     11  N   UNL     1       4.281  -7.484  -2.472  0.00  0.00    -0.280 N 
ATOM     12  H   UNL     1       5.132  -8.164  -2.318  0.00  0.00    +0.152 HD
BRANCH   5  13
ATOM     13  C   UNL     1       3.034  -8.746  -4.165  0.00  0.00    -0.015 A 
ATOM     14  C   UNL     1       2.122  -9.742  -4.460  0.00  0.00    +0.006 A 
ATOM     15  C   UNL     1       2.184 -10.398  -5.676  0.00  0.00    +0.000 A 
ATOM     16  C   UNL     1       3.164 -10.064  -6.591  0.00  0.00    +0.000 A 
ATOM     17  C   UNL     1       4.080  -9.072  -6.294  0.00  0.00    +0.000 A 
ATOM     18  C   UNL     1       4.014  -8.413  -5.080  0.00  0.00    +0.006 A 
ENDBRANCH   5  13
BRANCH   5  20
ATOM     19  C   UNL     1       2.428  -8.226  -0.410  0.00  0.00    +0.007 C 
ATOM     20  C   UNL     1       2.440  -8.963  -1.750  0.00  0.00    +0.037 C 
ENDBRANCH   5  20
ENDBRANCH   1   8
BRANCH   2  21
ATOM     21  C   UNL     1       1.828  -2.340  -1.470  0.00  0.00    +0.107 C 
BRANCH  21  22
ATOM     22  C   UNL     1       1.688  -1.861  -0.024  0.00  0.00    +0.107 C 
BRANCH  22  23
ATOM     23  C   UNL     1       1.237  -0.423  -0.012  0.00  0.00    +0.218 A 
ATOM     24  N   UNL     1       0.002  -0.004   0.002  0.00  0.00    -0.112 NA
ATOM     25  N   UNL     1      -0.015   1.282   0.009  0.00  0.00    -0.107 NA
ATOM     26  C   UNL     1       1.218   1.732  -0.000  0.00  0.00    +0.248 A 
ATOM     27  O   UNL     1       2.034   0.659  -0.014  0.00  0.00    -0.420 OA
BRANCH  26  28
ATOM     28  C   UNL     1       1.634   3.151   0.002  0.00  0.00    +0.038 A 
ATOM     29  C   UNL     1       2.989   3.483  -0.003  0.00  0.00    +0.013 A 
ATOM     30  C   UNL     1       3.371   4.809  -0.006  0.00  0.00    +0.001 A 
ATOM     31  C   UNL     1       2.413   5.808   0.008  0.00  0.00    +0.000 A 
ATOM     32  C   UNL     1       1.068   5.485   0.019  0.00  0.00    +0.001 A 
ATOM     33  C   UNL     1       0.673   4.163   0.017  0.00  0.00    +0.013 A 
ENDBRANCH  26  28
ENDBRANCH  22  23
ENDBRANCH  21  22
ENDBRANCH   2  21
TORSDOF 7
