REMARK  Name = ZINC08456792
REMARK  5 active torsions:
REMARK  status: ('A' for Active; 'I' for Inactive)
REMARK    1  A    between atoms: C_10  and  S_12
REMARK    2  A    between atoms: S_12  and  C_13
REMARK    3  A    between atoms: C_13  and  C_14
REMARK    4  A    between atoms: N_16  and  C_17
REMARK    5  A    between atoms: C_17  and  C_23
REMARK                            x       y       z     vdW  Elec       q    Type
REMARK                         _______ _______ _______ _____ _____    ______ ____
ROOT
ATOM      1  C   UNL     1       3.614   2.177   0.990  0.00  0.00    +0.173 C 
ENDROOT
BRANCH   1   2
ATOM      2  C   UNL     1       2.200   1.655   1.001  0.00  0.00    +0.224 C 
ATOM      3  O   UNL     1       1.822   0.948   1.910  0.00  0.00    -0.275 OA
ATOM      4  N   UNL     1       1.357   1.975  -0.000  0.00  0.00    -0.297 N 
ATOM      5  H   UNL     1       1.659   2.541  -0.728  0.00  0.00    +0.150 HD
BRANCH   4   6
ATOM      6  C   UNL     1      -0.018   1.468   0.010  0.00  0.00    +0.121 C 
ATOM      7  C   UNL     1      -0.734   1.961   1.269  0.00  0.00    +0.041 C 
ATOM      8  C   UNL     1      -2.169   1.432   1.280  0.00  0.00    +0.003 C 
ATOM      9  C   UNL     1      -2.909   1.938   0.040  0.00  0.00    +0.000 C 
ATOM     10  C   UNL     1      -2.193   1.445  -1.219  0.00  0.00    +0.003 C 
ATOM     11  C   UNL     1      -0.758   1.975  -1.229  0.00  0.00    +0.041 C 
BRANCH   6  12
ATOM     12  C   UNL     1       0.002  -0.004   0.002  0.00  0.00    +0.088 C 
ATOM     13  N   UNL     1       0.018  -1.140  -0.004  0.00  0.00    -0.194 NA
ENDBRANCH   6  12
ENDBRANCH   4   6
ENDBRANCH   1   2
BRANCH   1  14
ATOM     14  S   UNL     1       4.490   1.577   2.457  0.00  0.00    -0.078 S 
BRANCH  14  24
ATOM     15  C   UNL     1       9.748   4.159   1.388  0.00  0.00    +0.023 A 
ATOM     16  C   UNL     1       9.756   4.873   0.253  0.00  0.00    +0.048 A 
ATOM     17  S   UNL     1       8.102   4.668  -0.379  0.00  0.00    -0.077 S 
ATOM     18  C   UNL     1       7.446   3.627   0.901  0.00  0.00    +0.116 A 
ATOM     19  C   UNL     1       8.532   3.470   1.783  0.00  0.00    +0.072 A 
ATOM     20  C   UNL     1       8.284   2.658   2.935  0.00  0.00    +0.260 A 
ATOM     21  O   UNL     1       9.165   2.465   3.755  0.00  0.00    -0.267 OA
ATOM     22  N   UNL     1       7.066   2.111   3.102  0.00  0.00    -0.301 N 
ATOM     23  H   UNL     1       6.889   1.544   3.906  0.00  0.00    +0.171 HD
ATOM     24  C   UNL     1       6.067   2.316   2.194  0.00  0.00    +0.170 A 
ATOM     25  N   UNL     1       6.269   3.055   1.122  0.00  0.00    -0.216 NA
ENDBRANCH  14  24
ENDBRANCH   1  14
TORSDOF 5
