REMARK  Name = ZINC14896279
REMARK  7 active torsions:
REMARK  status: ('A' for Active; 'I' for Inactive)
REMARK    1  A    between atoms: C_1  and  C_2
REMARK    2  A    between atoms: N_7  and  C_8
REMARK    3  A    between atoms: C_8  and  C_9
REMARK    4  A    between atoms: C_9  and  C_10
REMARK    5  A    between atoms: N_12  and  C_13
REMARK    6  A    between atoms: C_16  and  S_19
REMARK    7  A    between atoms: S_19  and  N_22
REMARK                            x       y       z     vdW  Elec       q    Type
REMARK                         _______ _______ _______ _____ _____    ______ ____
ROOT
ATOM      1  C   UNL     1      -2.520   1.914   6.055  0.00  0.00    +0.033 A 
ATOM      2  C   UNL     1      -1.294   2.320   6.565  0.00  0.00    +0.025 A 
ATOM      3  C   UNL     1      -1.241   3.041   7.741  0.00  0.00    +0.031 A 
ATOM      4  C   UNL     1      -2.408   3.360   8.412  0.00  0.00    +0.113 A 
ATOM      5  C   UNL     1      -3.631   2.957   7.907  0.00  0.00    +0.031 A 
ATOM      6  C   UNL     1      -3.690   2.240   6.728  0.00  0.00    +0.025 A 
ENDROOT
BRANCH   1   9
ATOM      7  C   UNL     1      -3.597   1.372   4.004  0.00  0.00    +0.219 C 
ATOM      8  O   UNL     1      -4.510   2.114   4.301  0.00  0.00    -0.275 OA
ATOM      9  N   UNL     1      -2.577   1.183   4.864  0.00  0.00    -0.285 N 
ATOM     10  H   UNL     1      -1.881   0.539   4.656  0.00  0.00    +0.155 HD
BRANCH   7  11
ATOM     11  C   UNL     1      -3.605   0.663   2.675  0.00  0.00    +0.118 C 
BRANCH  11  12
ATOM     12  C   UNL     1      -4.865   1.049   1.898  0.00  0.00    +0.135 C 
BRANCH  12  19
ATOM     13  C   UNL     1      -6.099  -1.555   1.655  0.00  0.00    +0.064 C 
ATOM     14  C   UNL     1      -5.452  -0.869   0.480  0.00  0.00    +0.026 A 
ATOM     15  C   UNL     1      -5.426  -1.435  -0.730  0.00  0.00    +0.071 A 
ATOM     16  S   UNL     1      -4.561  -0.207  -1.690  0.00  0.00    -0.035 S 
ATOM     17  C   UNL     1      -4.302   0.928  -0.477  0.00  0.00    +0.291 A 
ATOM     18  O   UNL     1      -3.739   2.006  -0.557  0.00  0.00    -0.259 OA
ATOM     19  N   UNL     1      -4.872   0.359   0.605  0.00  0.00    -0.306 N 
ENDBRANCH  12  19
ENDBRANCH  11  12
ENDBRANCH   7  11
ENDBRANCH   1   9
BRANCH   4  20
ATOM     20  S   UNL     1      -2.336   4.281   9.912  0.00  0.00    +0.100 S 
ATOM     21  O   UNL     1      -3.525   3.980  10.630  0.00  0.00    -0.146 OA
ATOM     22  O   UNL     1      -1.042   4.067  10.458  0.00  0.00    -0.146 OA
BRANCH  20  23
ATOM     23  N   UNL     1      -2.421   5.884   9.507  0.00  0.00    -0.118 NA
ATOM     24  C   UNL     1      -2.389   6.787  10.432  0.00  0.00    +0.117 C 
ATOM     25  C   UNL     1      -2.267   6.378  11.898  0.00  0.00    +0.073 C 
ATOM     26  C   UNL     1      -0.890   6.797  12.368  0.00  0.00    +0.008 C 
ATOM     27  C   UNL     1      -0.841   8.227  12.910  0.00  0.00    +0.002 C 
ATOM     28  C   UNL     1      -1.629   9.220  12.055  0.00  0.00    +0.019 C 
ATOM     29  C   UNL     1      -1.425   9.020  10.569  0.00  0.00    +0.102 C 
ATOM     30  N   UNL     1      -2.456   8.064  10.111  0.00  0.00    -0.331 N 
ATOM     31  H   UNL     1      -3.193   8.384   9.568  0.00  0.00    +0.147 HD
ENDBRANCH  20  23
ENDBRANCH   4  20
TORSDOF 6
