REMARK  Name = ZINC16906837
REMARK  8 active torsions:
REMARK  status: ('A' for Active; 'I' for Inactive)
REMARK    1  A    between atoms: C_1  and  C_2
REMARK    2  A    between atoms: C_7  and  C_8
REMARK    3  A    between atoms: N_10  and  N_11
REMARK    4  A    between atoms: C_15  and  C_16
REMARK    5  A    between atoms: C_19  and  O_22
REMARK    6  A    between atoms: O_22  and  C_23
REMARK    7  A    between atoms: C_23  and  C_25
REMARK    8  A    between atoms: C_23  and  C_26
REMARK                            x       y       z     vdW  Elec       q    Type
REMARK                         _______ _______ _______ _____ _____    ______ ____
ROOT
ATOM      1  N   UNL     1      -2.724   5.803   0.691  0.00  0.00    -0.169 N 
ATOM      2  C   UNL     1      -2.251   4.582   0.503  0.00  0.00    +0.275 C 
ATOM      3  O   UNL     1      -2.985   3.611   0.464  0.00  0.00    -0.267 OA
ATOM      4  C   UNL     1      -0.788   4.455   0.349  0.00  0.00    +0.079 C 
ATOM      5  C   UNL     1      -0.032   3.346   0.150  0.00  0.00    +0.028 C 
ATOM      6  S   UNL     1      -0.288   6.166   0.486  0.00  0.00    -0.059 S 
ATOM      7  C   UNL     1      -1.908   6.876   0.727  0.00  0.00    +0.138 C 
ATOM      8  S   UNL     1      -2.325   8.522   0.949  0.00  0.00    -0.026 S 
ENDROOT
BRANCH   5   9
ATOM      9  C   UNL     1      -0.651   2.015   0.206  0.00  0.00    -0.024 A 
ATOM     10  C   UNL     1      -0.249   1.015  -0.688  0.00  0.00    +0.011 A 
ATOM     11  C   UNL     1      -0.833  -0.231  -0.630  0.00  0.00    +0.046 A 
ATOM     12  C   UNL     1      -1.820  -0.496   0.312  0.00  0.00    +0.122 A 
ATOM     13  C   UNL     1      -2.227   0.495   1.198  0.00  0.00    +0.046 A 
ATOM     14  C   UNL     1      -1.646   1.742   1.153  0.00  0.00    +0.011 A 
BRANCH  12  15
ATOM     15  O   UNL     1      -2.392  -1.726   0.364  0.00  0.00    -0.478 OA
BRANCH  15  16
ATOM     16  C   UNL     1      -2.028  -2.655  -0.659  0.00  0.00    +0.282 C 
ATOM     17  C   UNL     1      -0.702  -3.323  -0.293  0.00  0.00    +0.064 C 
BRANCH  16  18
ATOM     18  C   UNL     1      -3.101  -3.705  -0.790  0.00  0.00    +0.395 C 
ATOM     19  O   UNL     1      -4.078  -3.662  -0.079  0.00  0.00    -0.242 OA
ATOM     20  O   UNL     1      -2.973  -4.687  -1.695  0.00  0.00    -0.242 OA
ENDBRANCH  16  18
ENDBRANCH  15  16
ENDBRANCH  12  15
ENDBRANCH   5   9
BRANCH   1  23
ATOM     21  C   UNL     1      -4.837   6.494  -0.161  0.00  0.00    +0.261 C 
ATOM     22  O   UNL     1      -4.301   6.793  -1.210  0.00  0.00    -0.269 OA
ATOM     23  N   UNL     1      -4.104   5.986   0.850  0.00  0.00    -0.222 N 
ATOM     24  H   UNL     1      -4.531   5.747   1.687  0.00  0.00    +0.174 HD
BRANCH  21  31
ATOM     25  C   UNL     1      -6.360   7.779  -2.258  0.00  0.00    +0.044 C 
ATOM     26  C   UNL     1      -7.038   7.306  -0.998  0.00  0.00    -0.038 A 
ATOM     27  C   UNL     1      -8.396   7.483  -0.836  0.00  0.00    +0.004 A 
ATOM     28  C   UNL     1      -9.020   7.048   0.320  0.00  0.00    +0.000 A 
ATOM     29  C   UNL     1      -8.287   6.434   1.320  0.00  0.00    +0.001 A 
ATOM     30  C   UNL     1      -6.929   6.246   1.168  0.00  0.00    +0.013 A 
ATOM     31  C   UNL     1      -6.293   6.687   0.007  0.00  0.00    +0.041 A 
ENDBRANCH  21  31
ENDBRANCH   1  23
TORSDOF 6
