REMARK  Name = ZINC11789741
REMARK  7 active torsions:
REMARK  status: ('A' for Active; 'I' for Inactive)
REMARK    1  A    between atoms: C_1  and  N_2
REMARK    2  A    between atoms: C_4  and  C_26
REMARK    3  A    between atoms: C_6  and  N_17
REMARK    4  A    between atoms: C_10  and  C_11
REMARK    5  A    between atoms: C_18  and  C_20
REMARK    6  A    between atoms: C_20  and  C_21
REMARK    7  A    between atoms: N_28  and  C_29
REMARK                            x       y       z     vdW  Elec       q    Type
REMARK                         _______ _______ _______ _____ _____    ______ ____
ROOT
ATOM      1  C   UNL     1       1.068  -3.038  -5.186  0.00  0.00    +0.150 C 
ATOM      2  N   UNL     1       1.263  -4.421  -4.743  0.00  0.00    -0.328 N 
ATOM      3  C   UNL     1       1.192  -4.879  -3.446  0.00  0.00    +0.081 A 
ATOM      4  C   UNL     1       0.951  -4.265  -2.209  0.00  0.00    +0.064 A 
ATOM      5  C   UNL     1       0.956  -5.034  -1.047  0.00  0.00    +0.038 A 
ATOM      6  C   UNL     1       1.204  -6.400  -1.113  0.00  0.00    +0.036 A 
ATOM      7  C   UNL     1       1.450  -7.012  -2.330  0.00  0.00    +0.053 A 
ATOM      8  C   UNL     1       1.448  -6.258  -3.506  0.00  0.00    +0.092 A 
ATOM      9  N   UNL     1       1.650  -6.567  -4.814  0.00  0.00    -0.230 NA
ATOM     10  C   UNL     1       1.541  -5.491  -5.537  0.00  0.00    +0.140 A 
ENDROOT
BRANCH  10  11
ATOM     11  C   UNL     1       1.699  -5.437  -7.034  0.00  0.00    +0.184 C 
ATOM     12  C   UNL     1       0.453  -6.029  -7.729  0.00  0.00    +0.042 C 
ATOM     13  C   UNL     1       1.025  -6.777  -8.953  0.00  0.00    +0.031 C 
ATOM     14  C   UNL     1       2.550  -6.549  -8.854  0.00  0.00    +0.161 C 
ATOM     15  O   UNL     1       2.792  -6.282  -7.455  0.00  0.00    -0.369 OA
ENDBRANCH  10  11
BRANCH   6  16
ATOM     16  N   UNL     1       1.207  -7.163   0.062  0.00  0.00    -0.285 N 
ATOM     17  C   UNL     1       0.778  -8.440   0.037  0.00  0.00    +0.217 C 
ATOM     18  O   UNL     1       0.312  -8.904  -0.983  0.00  0.00    -0.275 OA
ATOM     19  H   UNL     1       1.518  -6.772   0.893  0.00  0.00    +0.155 HD
BRANCH  17  20
ATOM     20  C   UNL     1       0.876  -9.293   1.276  0.00  0.00    +0.099 C 
BRANCH  20  21
ATOM     21  C   UNL     1       0.324 -10.688   0.979  0.00  0.00    -0.002 C 
ATOM     22  C   UNL     1      -1.194 -10.612   0.720  0.00  0.00    +0.004 C 
ATOM     23  C   UNL     1      -1.755 -11.904   1.367  0.00  0.00    +0.000 C 
ATOM     24  C   UNL     1      -0.892 -12.049   2.645  0.00  0.00    +0.000 C 
ATOM     25  C   UNL     1       0.517 -11.602   2.203  0.00  0.00    +0.004 C 
ENDBRANCH  20  21
ENDBRANCH  17  20
ENDBRANCH   6  16
BRANCH   4  26
ATOM     26  C   UNL     1       0.686  -2.816  -2.139  0.00  0.00    +0.246 C 
ATOM     27  O   UNL     1      -0.009  -2.283  -2.982  0.00  0.00    -0.270 OA
ATOM     28  N   UNL     1       1.216  -2.082  -1.140  0.00  0.00    -0.308 N 
ATOM     29  H   UNL     1       1.771  -2.507  -0.467  0.00  0.00    +0.149 HD
BRANCH  28  30
ATOM     30  C   UNL     1       0.954  -0.642  -1.070  0.00  0.00    +0.078 C 
ATOM     31  C   UNL     1       1.096  -0.165   0.379  0.00  0.00    +0.050 C 
ATOM     32  C   UNL     1       0.898   1.352   0.430  0.00  0.00    +0.161 C 
ATOM     33  O   UNL     1       1.849   1.984  -0.428  0.00  0.00    -0.380 OA
ATOM     34  C   UNL     1       1.733   1.613  -1.802  0.00  0.00    +0.161 C 
ATOM     35  C   UNL     1       1.965   0.106  -1.944  0.00  0.00    +0.050 C 
ENDBRANCH  28  30
ENDBRANCH   4  26
TORSDOF 6
