REMARK  Name = ZINC39464549
REMARK  7 active torsions:
REMARK  status: ('A' for Active; 'I' for Inactive)
REMARK    1  A    between atoms: C_1  and  C_2
REMARK    2  A    between atoms: C_2  and  C_3
REMARK    3  A    between atoms: C_2  and  S_4
REMARK    4  A    between atoms: S_4  and  C_7
REMARK    5  A    between atoms: C_12  and  O_13
REMARK    6  A    between atoms: P_18  and  C_24
REMARK    7  A    between atoms: C_29  and  O_30
REMARK                            x       y       z     vdW  Elec       q    Type
REMARK                         _______ _______ _______ _____ _____    ______ ____
ROOT
ATOM      1  C   UNL     1       0.058  -0.034   2.800  0.00  0.00    +0.130 A 
ATOM      2  C   UNL     1      -0.511  -0.878   3.732  0.00  0.00    +0.034 A 
ATOM      3  C   UNL     1      -1.486  -0.410   4.599  0.00  0.00    -0.039 A 
ATOM      4  C   UNL     1      -1.893   0.906   4.536  0.00  0.00    -0.020 A 
ATOM      5  C   UNL     1      -1.323   1.756   3.600  0.00  0.00    +0.053 A 
ATOM      6  C   UNL     1      -0.345   1.292   2.736  0.00  0.00    +0.142 A 
ATOM      7  C   UNL     1      -2.946   1.464   5.457  0.00  0.00    +0.130 C 
ATOM      8  C   UNL     1      -3.891   2.360   4.651  0.00  0.00    +0.194 C 
ATOM      9  O   UNL     1      -4.822   2.982   5.558  0.00  0.00    -0.311 OA
ATOM     10  P   UNL     1      -5.612   2.037   6.620  0.00  0.00    +0.318 P 
ATOM     11  O   UNL     1      -6.062   2.837   7.781  0.00  0.00    -0.266 OA
ATOM     12  N   UNL     1      -4.516   0.897   7.102  0.00  0.00    -0.175 NA
ATOM     13  N   UNL     1      -3.696   0.393   6.113  0.00  0.00    -0.225 NA
ATOM     14  C   UNL     1      -2.786  -0.602   6.701  0.00  0.00    +0.108 C 
ATOM     15  C   UNL     1      -2.081  -1.369   5.598  0.00  0.00    +0.052 C 
ATOM     16  H   UNL     1      -4.463   0.599   8.024  0.00  0.00    +0.151 HD
ENDROOT
BRANCH  10  17
ATOM     17  C   UNL     1      -7.033   1.245   5.818  0.00  0.00    +0.094 A 
ATOM     18  C   UNL     1      -6.885   0.015   5.207  0.00  0.00    +0.018 A 
ATOM     19  C   UNL     1      -7.968  -0.589   4.595  0.00  0.00    +0.001 A 
ATOM     20  C   UNL     1      -9.201   0.036   4.593  0.00  0.00    +0.004 A 
ATOM     21  C   UNL     1      -9.355   1.266   5.202  0.00  0.00    +0.046 A 
ATOM     22  C   UNL     1      -8.271   1.872   5.822  0.00  0.00    +0.131 A 
BRANCH  22  23
ATOM     23  O   UNL     1      -8.420   3.079   6.428  0.00  0.00    -0.506 OA
ATOM     24  H   UNL     1      -8.261   3.834   5.845  0.00  0.00    +0.292 HD
ENDBRANCH  22  23
ENDBRANCH  10  17
BRANCH   1  25
ATOM     25  S   UNL     1       1.297  -0.636   1.701  0.00  0.00    +0.003 S 
ATOM     26  O   UNL     1       0.856  -0.245   0.408  0.00  0.00    -0.169 OA
ATOM     27  O   UNL     1       1.439  -2.010   2.033  0.00  0.00    -0.169 OA
BRANCH  25  29
ATOM     28  C   UNL     1       3.156  -0.018   3.609  0.00  0.00    +0.032 C 
ATOM     29  C   UNL     1       2.800   0.274   2.150  0.00  0.00    +0.130 C 
ATOM     30  C   UNL     1       3.953  -0.168   1.246  0.00  0.00    +0.032 C 
ENDBRANCH  25  29
ENDBRANCH   1  25
BRANCH   6  31
ATOM     31  O   UNL     1       0.214   2.131   1.825  0.00  0.00    -0.505 OA
ATOM     32  H   UNL     1      -0.292   2.216   1.006  0.00  0.00    +0.292 HD
ENDBRANCH   6  31
TORSDOF 5
