REMARK  Name = ZINC63234566
REMARK  5 active torsions:
REMARK  status: ('A' for Active; 'I' for Inactive)
REMARK    1  A    between atoms: C_1  and  C_2
REMARK    2  A    between atoms: C_5  and  N_9
REMARK    3  A    between atoms: C_10  and  C_17
REMARK    4  A    between atoms: C_14  and  S_16
REMARK    5  A    between atoms: C_17  and  C_18
REMARK                            x       y       z     vdW  Elec       q    Type
REMARK                         _______ _______ _______ _____ _____    ______ ____
ROOT
ATOM      1  N   UNL     1       0.059  -4.168  -0.023  0.00  0.00    -0.287 N 
ATOM      2  C   UNL     1      -1.112  -5.069  -0.028  0.00  0.00    +0.162 C 
ATOM      3  N   UNL     1      -0.595  -6.338  -0.603  0.00  0.00    -0.234 NA
ATOM      4  N   UNL     1       0.759  -6.431  -0.036  0.00  0.00    -0.226 NA
ATOM      5  C   UNL     1       1.252  -5.034  -0.034  0.00  0.00    +0.214 C 
ATOM      6  H   UNL     1      -1.162  -7.122  -0.316  0.00  0.00    +0.143 HD
ATOM      7  H   UNL     1       1.350  -7.019  -0.604  0.00  0.00    +0.143 HD
ENDROOT
BRANCH   1  12
ATOM      8  C   UNL     1      -0.018   1.503   0.010  0.00  0.00    +0.044 C 
ATOM      9  C   UNL     1       0.002  -0.004   0.002  0.00  0.00    -0.049 A 
ATOM     10  C   UNL     1       0.006  -0.687  -1.200  0.00  0.00    +0.005 A 
ATOM     11  C   UNL     1       0.025  -2.068  -1.212  0.00  0.00    +0.024 A 
ATOM     12  C   UNL     1       0.041  -2.771  -0.014  0.00  0.00    +0.047 A 
ATOM     13  C   UNL     1       0.037  -2.082   1.192  0.00  0.00    +0.039 A 
ATOM     14  C   UNL     1       0.023  -0.700   1.196  0.00  0.00    +0.020 A 
ATOM     15 BR   UNL     1       0.057  -3.034   2.826  0.00  0.00    -0.048 Br
ENDBRANCH   1  12
BRANCH   5  16
ATOM     16  S   UNL     1       2.253  -4.734   1.448  0.00  0.00    -0.139 S 
ATOM     17  H   UNL     1       3.294  -5.575   1.314  0.00  0.00    +0.105 HD
ENDBRANCH   5  16
BRANCH   2  18
ATOM     18  C   UNL     1      -2.225  -4.494  -0.906  0.00  0.00    +0.073 C 
BRANCH  18  19
ATOM     19  C   UNL     1      -3.450  -5.364  -0.798  0.00  0.00    -0.038 C 
ATOM     20  C   UNL     1      -4.507  -5.182   0.025  0.00  0.00    -0.001 A 
ATOM     21  C   UNL     1      -4.821  -4.158   1.029  0.00  0.00    +0.010 A 
ATOM     22  C   UNL     1      -5.985  -4.244   1.712  0.00  0.00    +0.001 A 
ATOM     23  C   UNL     1      -6.897  -5.284   1.486  0.00  0.00    +0.002 A 
ATOM     24  C   UNL     1      -6.679  -6.261   0.580  0.00  0.00    +0.026 A 
ATOM     25  C   UNL     1      -5.487  -6.269  -0.195  0.00  0.00    +0.043 A 
ATOM     26  N   UNL     1      -5.053  -7.092  -1.119  0.00  0.00    -0.380 N 
ATOM     27  C   UNL     1      -3.749  -6.615  -1.594  0.00  0.00    +0.144 C 
ATOM     28  H   UNL     1      -5.518  -7.881  -1.438  0.00  0.00    +0.160 HD
ENDBRANCH  18  19
ENDBRANCH   2  18
TORSDOF 4
