REMARK  Name = ZINC32526646
REMARK  8 active torsions:
REMARK  status: ('A' for Active; 'I' for Inactive)
REMARK    1  A    between atoms: C_1  and  C_2
REMARK    2  A    between atoms: N_6  and  C_13
REMARK    3  A    between atoms: C_13  and  C_14
REMARK    4  A    between atoms: C_14  and  C_15
REMARK    5  A    between atoms: N_17  and  C_18
REMARK    6  A    between atoms: C_19  and  C_25
REMARK    7  A    between atoms: C_20  and  C_24
REMARK    8  A    between atoms: C_21  and  C_23
REMARK                            x       y       z     vdW  Elec       q    Type
REMARK                         _______ _______ _______ _____ _____    ______ ____
ROOT
ATOM      1  C   UNL     1      -1.156  -0.694   0.009  0.00  0.00    +0.219 C 
ATOM      2  O   UNL     1      -2.214  -0.102   0.023  0.00  0.00    -0.275 OA
ATOM      3  N   UNL     1       0.002  -0.004   0.002  0.00  0.00    -0.279 N 
ATOM      4  H   UNL     1       0.962  -0.541  -0.010  0.00  0.00    +0.155 HD
ENDROOT
BRANCH   3   5
ATOM      5  C   UNL     1      -0.017   1.382   0.010  0.00  0.00    +0.084 A 
ATOM      6  C   UNL     1       1.061   2.260   0.004  0.00  0.00    +0.068 A 
ATOM      7  C   UNL     1       0.749   3.670   0.015  0.00  0.00    -0.027 A 
ATOM      8  C   UNL     1      -0.552   4.012   0.029  0.00  0.00    -0.008 A 
ATOM      9  S   UNL     1      -1.388   2.439   0.021  0.00  0.00    -0.078 S 
ATOM     10  C   UNL     1      -1.156   5.392   0.041  0.00  0.00    +0.052 C 
ATOM     11  C   UNL     1       1.836   4.714   0.010  0.00  0.00    +0.045 C 
BRANCH   6  12
ATOM     12  C   UNL     1       2.445   1.779  -0.011  0.00  0.00    +0.244 C 
ATOM     13  O   UNL     1       3.010   1.585  -1.072  0.00  0.00    -0.270 OA
ATOM     14  N   UNL     1       3.092   1.551   1.149  0.00  0.00    -0.325 N 
ATOM     15  H   UNL     1       4.131   1.190   1.137  0.00  0.00    +0.145 HD
ATOM     16  H   UNL     1       2.582   1.726   2.107  0.00  0.00    +0.145 HD
ENDBRANCH   6  12
ENDBRANCH   3   5
BRANCH   1  17
ATOM     17  C   UNL     1      -1.135  -2.201   0.001  0.00  0.00    +0.118 C 
BRANCH  17  18
ATOM     18  C   UNL     1      -2.571  -2.730   0.012  0.00  0.00    +0.134 C 
BRANCH  18  24
ATOM     19  C   UNL     1      -2.490  -8.501   0.101  0.00  0.00    +0.044 C 
ATOM     20  C   UNL     1      -2.512  -6.994   0.066  0.00  0.00    -0.036 A 
ATOM     21  C   UNL     1      -2.511  -6.274   1.215  0.00  0.00    +0.074 A 
ATOM     22  C   UNL     1      -2.531  -4.864   1.170  0.00  0.00    +0.252 A 
ATOM     23  O   UNL     1      -2.529  -4.236   2.215  0.00  0.00    -0.268 OA
ATOM     24  N   UNL     1      -2.551  -4.195   0.004  0.00  0.00    -0.308 N 
ATOM     25  C   UNL     1      -2.559  -4.868  -1.199  0.00  0.00    +0.052 A 
ATOM     26  C   UNL     1      -2.534  -6.276  -1.210  0.00  0.00    +0.002 A 
ATOM     27  C   UNL     1      -2.537  -6.963  -2.428  0.00  0.00    +0.010 A 
ATOM     28  C   UNL     1      -2.575  -6.263  -3.600  0.00  0.00    +0.001 A 
ATOM     29  C   UNL     1      -2.595  -4.875  -3.594  0.00  0.00    +0.002 A 
ATOM     30  C   UNL     1      -2.586  -4.177  -2.406  0.00  0.00    +0.026 A 
ENDBRANCH  18  24
ENDBRANCH  17  18
ENDBRANCH   1  17
TORSDOF 5
