REMARK  Name = ZINC12556208
REMARK  4 active torsions:
REMARK  status: ('A' for Active; 'I' for Inactive)
REMARK    1  A    between atoms: N_9  and  C_21
REMARK    2  A    between atoms: C_10  and  C_13
REMARK    3  A    between atoms: C_16  and  C_19
REMARK    4  A    between atoms: C_21  and  C_22
REMARK                            x       y       z     vdW  Elec       q    Type
REMARK                         _______ _______ _______ _____ _____    ______ ____
ROOT
ATOM      1  C   UNL     1      -0.246   5.569  -2.204  0.00  0.00    +0.001 A 
ATOM      2  C   UNL     1      -1.436   4.925  -2.505  0.00  0.00    +0.002 A 
ATOM      3  C   UNL     1      -1.619   3.596  -2.174  0.00  0.00    +0.024 A 
ATOM      4  C   UNL     1      -0.605   2.904  -1.535  0.00  0.00    +0.041 A 
ATOM      5  C   UNL     1       0.605   3.553  -1.231  0.00  0.00    +0.058 A 
ATOM      6  C   UNL     1       0.775   4.893  -1.569  0.00  0.00    +0.015 A 
ATOM      7  C   UNL     1       1.664   2.782  -0.555  0.00  0.00    +0.250 C 
ATOM      8  O   UNL     1       2.799   3.216  -0.497  0.00  0.00    -0.270 OA
ATOM      9  N   UNL     1       1.361   1.589  -0.002  0.00  0.00    -0.272 N 
ATOM     10  C   UNL     1      -0.013   1.086   0.008  0.00  0.00    +0.193 C 
ATOM     11  N   UNL     1      -0.740   1.569  -1.172  0.00  0.00    -0.321 N 
ATOM     12  H   UNL     1      -1.303   0.969  -1.687  0.00  0.00    +0.148 HD
ENDROOT
BRANCH  10  13
ATOM     13  C   UNL     1      -0.712   1.569   1.253  0.00  0.00    -0.009 A 
ATOM     14  C   UNL     1       0.017   1.795   2.408  0.00  0.00    +0.008 A 
ATOM     15  C   UNL     1      -0.616   2.242   3.549  0.00  0.00    +0.015 A 
ATOM     16  C   UNL     1      -1.996   2.455   3.541  0.00  0.00    +0.063 A 
ATOM     17  C   UNL     1      -2.725   2.220   2.374  0.00  0.00    +0.015 A 
ATOM     18  C   UNL     1      -2.079   1.778   1.238  0.00  0.00    +0.008 A 
BRANCH  16  19
ATOM     19  C   UNL     1      -2.681   2.928   4.761  0.00  0.00    +0.387 C 
ATOM     20  O   UNL     1      -3.881   3.113   4.751  0.00  0.00    -0.241 OA
ATOM     21  O   UNL     1      -1.974   3.155   5.885  0.00  0.00    -0.241 OA
ENDBRANCH  16  19
ENDBRANCH  10  13
BRANCH   9  22
ATOM     22  C   UNL     1       2.426   0.783   0.598  0.00  0.00    +0.141 C 
BRANCH  22  23
ATOM     23  C   UNL     1       3.024  -0.144  -0.463  0.00  0.00    +0.136 C 
ATOM     24  C   UNL     1       4.064  -1.091   0.175  0.00  0.00    +0.035 C 
ATOM     25  C   UNL     1       5.169  -1.214  -0.898  0.00  0.00    +0.031 C 
ATOM     26  C   UNL     1       4.666  -0.326  -2.057  0.00  0.00    +0.160 C 
ATOM     27  O   UNL     1       3.770   0.621  -1.435  0.00  0.00    -0.375 OA
ENDBRANCH  22  23
ENDBRANCH   9  22
TORSDOF 4
