REMARK  Name = ZINC39652738
REMARK  10 active torsions:
REMARK  status: ('A' for Active; 'I' for Inactive)
REMARK    1  A    between atoms: C_1  and  C_2
REMARK    2  A    between atoms: C_2  and  O_3
REMARK    3  A    between atoms: O_3  and  C_4
REMARK    4  A    between atoms: C_9  and  C_10
REMARK    5  A    between atoms: C_10  and  C_11
REMARK    6  A    between atoms: C_11  and  N_12
REMARK    7  A    between atoms: C_13  and  C_15
REMARK    8  A    between atoms: C_26  and  C_28
REMARK    9  A    between atoms: C_31  and  C_35
REMARK   10  A    between atoms: C_32  and  C_34
REMARK                            x       y       z     vdW  Elec       q    Type
REMARK                         _______ _______ _______ _____ _____    ______ ____
ROOT
ATOM      1  C   UNL     1      -7.271   0.508  -2.717  0.00  0.00    +0.100 C 
ATOM      2  C   UNL     1      -8.609   0.027  -2.111  0.00  0.00    +0.121 C 
ATOM      3  N   UNL     1      -9.651   0.660  -2.954  0.00  0.00    -0.296 N 
ATOM      4  C   UNL     1      -9.111   0.577  -4.332  0.00  0.00    +0.115 C 
ATOM      5  C   UNL     1      -7.605   0.867  -4.175  0.00  0.00    -0.004 C 
ATOM      6  C   UNL     1      -7.323   2.344  -4.433  0.00  0.00    -0.010 C 
ATOM      7  C   UNL     1      -7.608   2.665  -5.903  0.00  0.00    -0.082 C 
ATOM      8  N   UNL     1      -6.762   1.827  -6.761  0.00  0.00    +0.379 N 
ATOM      9  C   UNL     1      -7.104   0.412  -6.574  0.00  0.00    -0.082 C 
ATOM     10  C   UNL     1      -6.798  -0.004  -5.133  0.00  0.00    -0.010 C 
ATOM     11  C   UNL     1     -10.824   1.190  -2.557  0.00  0.00    +0.247 C 
ATOM     12  O   UNL     1     -11.072   1.300  -1.371  0.00  0.00    -0.270 OA
ATOM     13  H   UNL     1      -6.907   2.082  -7.726  0.00  0.00    -0.086 HD
ATOM     14  H   UNL     1      -5.793   1.972  -6.520  0.00  0.00    -0.086 HD
ENDROOT
BRANCH  11  15
ATOM     15  C   UNL     1     -11.810   1.639  -3.562  0.00  0.00    +0.037 A 
ATOM     16  C   UNL     1     -11.754   1.148  -4.868  0.00  0.00    +0.013 A 
ATOM     17  C   UNL     1     -12.677   1.570  -5.801  0.00  0.00    +0.004 A 
ATOM     18  C   UNL     1     -13.658   2.479  -5.446  0.00  0.00    -0.047 A 
ATOM     19  C   UNL     1     -13.720   2.970  -4.154  0.00  0.00    -0.047 A 
ATOM     20  C   UNL     1     -12.806   2.551  -3.209  0.00  0.00    +0.016 A 
ATOM     21  C   UNL     1     -14.792   3.960  -3.776  0.00  0.00    +0.044 C 
ATOM     22  C   UNL     1     -14.663   2.937  -6.471  0.00  0.00    +0.044 C 
ENDBRANCH  11  15
BRANCH   1  24
ATOM     23  N   UNL     1      -4.938  -0.296  -2.558  0.00  0.00    -0.315 N 
ATOM     24  C   UNL     1      -6.247  -0.596  -2.671  0.00  0.00    +0.218 C 
ATOM     25  O   UNL     1      -6.600  -1.755  -2.735  0.00  0.00    -0.275 OA
ATOM     26  H   UNL     1      -4.655   0.630  -2.506  0.00  0.00    +0.149 HD
BRANCH  23  27
ATOM     27  C   UNL     1      -3.942  -1.370  -2.512  0.00  0.00    +0.109 C 
BRANCH  27  28
ATOM     28  C   UNL     1      -2.543  -0.763  -2.382  0.00  0.00    +0.057 C 
BRANCH  28  34
ATOM     29  C   UNL     1      -1.029  -2.410  -3.515  0.00  0.00    +0.124 A 
ATOM     30  C   UNL     1      -0.082  -3.423  -3.468  0.00  0.00    +0.046 A 
ATOM     31  C   UNL     1       0.367  -3.892  -2.249  0.00  0.00    +0.004 A 
ATOM     32  C   UNL     1      -0.127  -3.353  -1.075  0.00  0.00    +0.000 A 
ATOM     33  C   UNL     1      -1.071  -2.344  -1.119  0.00  0.00    +0.007 A 
ATOM     34  C   UNL     1      -1.519  -1.867  -2.336  0.00  0.00    -0.004 A 
BRANCH  29  35
ATOM     35  O   UNL     1      -1.471  -1.946  -4.713  0.00  0.00    -0.492 OA
BRANCH  35  37
ATOM     36  C   UNL     1      -1.537  -1.904  -7.128  0.00  0.00    +0.048 C 
ATOM     37  C   UNL     1      -0.923  -2.552  -5.885  0.00  0.00    +0.225 C 
ENDBRANCH  35  37
ENDBRANCH  29  35
ENDBRANCH  28  34
ENDBRANCH  27  28
ENDBRANCH  23  27
ENDBRANCH   1  24
TORSDOF 7
