REMARK  Name = ZINC39599690
REMARK  7 active torsions:
REMARK  status: ('A' for Active; 'I' for Inactive)
REMARK    1  A    between atoms: C_6  and  C_7
REMARK    2  A    between atoms: C_7  and  C_8
REMARK    3  A    between atoms: C_12  and  C_21
REMARK    4  A    between atoms: N_23  and  C_24
REMARK    5  A    between atoms: C_24  and  C_25
REMARK    6  A    between atoms: C_28  and  O_31
REMARK    7  A    between atoms: O_31  and  C_32
REMARK                            x       y       z     vdW  Elec       q    Type
REMARK                         _______ _______ _______ _____ _____    ______ ____
ROOT
ATOM      1  C   UNL     1      -1.739  -1.063  -1.567  0.00  0.00    +0.220 C 
ATOM      2  O   UNL     1      -1.120  -0.620  -2.512  0.00  0.00    -0.275 OA
ATOM      3  N   UNL     1      -2.902  -1.713  -1.770  0.00  0.00    -0.300 N 
ATOM      4  C   UNL     1      -3.796  -2.313  -0.751  0.00  0.00    +0.121 C 
ATOM      5  C   UNL     1      -5.224  -1.994  -1.249  0.00  0.00    +0.100 C 
ATOM      6  C   UNL     1      -5.074  -1.784  -2.765  0.00  0.00    -0.004 C 
ATOM      7  C   UNL     1      -3.580  -1.983  -3.060  0.00  0.00    +0.115 C 
ATOM      8  C   UNL     1      -5.497  -0.368  -3.147  0.00  0.00    -0.010 C 
ATOM      9  C   UNL     1      -5.393  -0.202  -4.665  0.00  0.00    -0.082 C 
ATOM     10  N   UNL     1      -6.256  -1.188  -5.327  0.00  0.00    +0.379 N 
ATOM     11  C   UNL     1      -5.785  -2.546  -5.029  0.00  0.00    -0.082 C 
ATOM     12  C   UNL     1      -5.905  -2.811  -3.526  0.00  0.00    -0.010 C 
ATOM     13  H   UNL     1      -7.202  -1.081  -4.996  0.00  0.00    -0.086 HD
ATOM     14  H   UNL     1      -6.233  -1.037  -6.325  0.00  0.00    -0.086 HD
ENDROOT
BRANCH   5  15
ATOM     15  C   UNL     1      -6.149  -3.150  -0.966  0.00  0.00    +0.218 C 
ATOM     16  O   UNL     1      -5.717  -4.283  -0.955  0.00  0.00    -0.275 OA
ATOM     17  N   UNL     1      -7.455  -2.924  -0.725  0.00  0.00    -0.311 N 
ATOM     18  H   UNL     1      -7.801  -2.017  -0.733  0.00  0.00    +0.149 HD
BRANCH  17  19
ATOM     19  C   UNL     1      -8.354  -4.047  -0.450  0.00  0.00    +0.139 C 
BRANCH  19  20
ATOM     20  C   UNL     1      -9.750  -3.529  -0.216  0.00  0.00    -0.030 A 
ATOM     21  C   UNL     1     -10.154  -3.186   1.061  0.00  0.00    +0.009 A 
ATOM     22  C   UNL     1     -11.433  -2.711   1.278  0.00  0.00    +0.046 A 
ATOM     23  C   UNL     1     -12.312  -2.577   0.213  0.00  0.00    +0.130 A 
ATOM     24  C   UNL     1     -11.904  -2.921  -1.067  0.00  0.00    +0.046 A 
ATOM     25  C   UNL     1     -10.622  -3.391  -1.280  0.00  0.00    +0.009 A 
BRANCH  23  26
ATOM     26  O   UNL     1     -13.570  -2.110   0.424  0.00  0.00    -0.406 OA
BRANCH  26  27
ATOM     27  C   UNL     1     -14.421  -1.998  -0.719  0.00  0.00    +0.575 C 
ATOM     28  F   UNL     1     -14.581  -3.258  -1.306  0.00  0.00    -0.133 F 
ATOM     29  F   UNL     1     -15.670  -1.506  -0.324  0.00  0.00    -0.133 F 
ATOM     30  F   UNL     1     -13.845  -1.122  -1.645  0.00  0.00    -0.133 F 
ENDBRANCH  26  27
ENDBRANCH  23  26
ENDBRANCH  19  20
ENDBRANCH  17  19
ENDBRANCH   5  15
BRANCH   1  31
ATOM     31  C   UNL     1      -1.207  -0.887  -0.168  0.00  0.00    +0.131 C 
BRANCH  31  37
ATOM     32  C   UNL     1       0.100   1.247  -0.145  0.00  0.00    +0.005 A 
ATOM     33  C   UNL     1       1.296   1.938  -0.189  0.00  0.00    +0.020 A 
ATOM     34  C   UNL     1       2.490   1.249  -0.307  0.00  0.00    +0.041 A 
ATOM     35  C   UNL     1       2.486  -0.133  -0.380  0.00  0.00    +0.020 A 
ATOM     36  C   UNL     1       1.289  -0.823  -0.335  0.00  0.00    +0.005 A 
ATOM     37  C   UNL     1       0.097  -0.134  -0.218  0.00  0.00    -0.039 A 
ATOM     38 CL   UNL     1       3.992   2.117  -0.364  0.00  0.00    -0.084 Cl
ENDBRANCH  31  37
ENDBRANCH   1  31
TORSDOF 7
