REMARK  Name = ZINC39791817
REMARK  6 active torsions:
REMARK  status: ('A' for Active; 'I' for Inactive)
REMARK    1  A    between atoms: C_1  and  C_2
REMARK    2  A    between atoms: C_5  and  C_8
REMARK    3  A    between atoms: C_11  and  N_14
REMARK    4  A    between atoms: C_15  and  C_17
REMARK    5  A    between atoms: C_17  and  C_18
REMARK    6  A    between atoms: C_18  and  C_19
REMARK                            x       y       z     vdW  Elec       q    Type
REMARK                         _______ _______ _______ _____ _____    ______ ____
ROOT
ATOM      1  N   UNL     1       4.547  -3.439  -5.388  0.00  0.00    -0.285 N 
ATOM      2  C   UNL     1       4.255  -3.025  -6.637  0.00  0.00    +0.218 C 
ATOM      3  O   UNL     1       3.428  -2.155  -6.809  0.00  0.00    -0.275 OA
ATOM      4  H   UNL     1       5.262  -4.079  -5.244  0.00  0.00    +0.155 HD
ENDROOT
BRANCH   1   8
ATOM      5  C   UNL     1       2.384  -1.968  -2.145  0.00  0.00    -0.003 A 
ATOM      6  C   UNL     1       1.756  -2.154  -3.380  0.00  0.00    +0.011 A 
ATOM      7  C   UNL     1       2.474  -2.640  -4.449  0.00  0.00    +0.024 A 
ATOM      8  C   UNL     1       3.823  -2.946  -4.302  0.00  0.00    +0.033 A 
ATOM      9  C   UNL     1       4.451  -2.763  -3.075  0.00  0.00    +0.024 A 
ATOM     10  C   UNL     1       3.741  -2.271  -2.002  0.00  0.00    +0.011 A 
BRANCH   5  14
ATOM     11  C   UNL     1       1.641  -1.576   2.532  0.00  0.00    +0.044 C 
ATOM     12  C   UNL     1       1.401  -0.744   1.271  0.00  0.00    +0.160 C 
ATOM     13  N   UNL     1       2.178  -1.268   0.130  0.00  0.00    -0.273 NA
ATOM     14  C   UNL     1       1.619  -1.447  -0.997  0.00  0.00    +0.054 C 
ATOM     15  C   UNL     1       0.141  -1.112  -1.135  0.00  0.00    +0.126 C 
ATOM     16  S   UNL     1      -0.323  -0.962   0.647  0.00  0.00    -0.128 S 
ENDBRANCH   5  14
ENDBRANCH   1   8
BRANCH   2  17
ATOM     17  C   UNL     1       4.955  -3.644  -7.819  0.00  0.00    +0.104 C 
BRANCH  17  18
ATOM     18  C   UNL     1       4.443  -3.000  -9.109  0.00  0.00    +0.083 C 
BRANCH  18  19
ATOM     19  C   UNL     1       5.143  -3.619 -10.292  0.00  0.00    +0.111 A 
ATOM     20  N   UNL     1       4.842  -3.189 -11.544  0.00  0.00    -0.310 N 
ATOM     21  H   UNL     1       4.181  -2.489 -11.660  0.00  0.00    +0.170 HD
ATOM     22  C   UNL     1       5.443  -3.715 -12.628  0.00  0.00    +0.260 A 
ATOM     23  O   UNL     1       5.163  -3.319 -13.747  0.00  0.00    -0.267 OA
ATOM     24  C   UNL     1       6.418  -4.748 -12.443  0.00  0.00    +0.075 A 
ATOM     25  C   UNL     1       7.193  -5.459 -13.470  0.00  0.00    -0.023 A 
ATOM     26  C   UNL     1       8.053  -6.398 -13.041  0.00  0.00    -0.004 A 
ATOM     27  S   UNL     1       7.893  -6.393 -11.270  0.00  0.00    -0.073 S 
ATOM     28  C   UNL     1       6.662  -5.126 -11.116  0.00  0.00    +0.116 A 
ATOM     29  N   UNL     1       6.031  -4.556 -10.092  0.00  0.00    -0.227 NA
ATOM     30  C   UNL     1       8.784  -7.061 -14.178  0.00  0.00    +0.043 C 
ATOM     31  C   UNL     1       7.953  -6.710 -15.431  0.00  0.00    +0.010 C 
ATOM     32  C   UNL     1       7.274  -5.395 -14.998  0.00  0.00    +0.037 C 
ENDBRANCH  18  19
ENDBRANCH  17  18
ENDBRANCH   2  17
TORSDOF 5
