REMARK  Name = ZINC52901649
REMARK  4 active torsions:
REMARK  status: ('A' for Active; 'I' for Inactive)
REMARK    1  A    between atoms: C_1  and  N_2
REMARK    2  A    between atoms: C_3  and  N_21
REMARK    3  A    between atoms: C_4  and  C_16
REMARK    4  A    between atoms: C_5  and  C_7
REMARK                            x       y       z     vdW  Elec       q    Type
REMARK                         _______ _______ _______ _____ _____    ______ ____
ROOT
ATOM      1  C   UNL     1      -0.018   1.461   0.010  0.00  0.00    +0.174 C 
ATOM      2  N   UNL     1       0.002  -0.004   0.002  0.00  0.00    -0.253 N 
ATOM      3  C   UNL     1       0.008  -0.782  -1.110  0.00  0.00    +0.123 A 
ATOM      4  C   UNL     1       0.028  -2.103  -0.698  0.00  0.00    +0.056 A 
ATOM      5  C   UNL     1       0.035  -2.081   0.767  0.00  0.00    +0.109 A 
ATOM      6  N   UNL     1       0.024  -0.818   1.139  0.00  0.00    -0.169 NA
ENDROOT
BRANCH   5   7
ATOM      7  C   UNL     1       0.056  -3.257   1.661  0.00  0.00    +0.041 A 
ATOM      8  C   UNL     1       0.669  -3.388   2.862  0.00  0.00    +0.026 A 
ATOM      9  C   UNL     1       0.557  -4.647   3.577  0.00  0.00    -0.010 A 
ATOM     10  C   UNL     1       1.110  -5.003   4.832  0.00  0.00    +0.009 A 
ATOM     11  C   UNL     1       0.901  -6.239   5.357  0.00  0.00    +0.001 A 
ATOM     12  C   UNL     1       0.145  -7.194   4.689  0.00  0.00    +0.001 A 
ATOM     13  C   UNL     1      -0.411  -6.886   3.463  0.00  0.00    +0.015 A 
ATOM     14  C   UNL     1      -0.208  -5.636   2.919  0.00  0.00    +0.020 A 
ATOM     15  S   UNL     1      -0.726  -4.841   1.420  0.00  0.00    -0.087 S 
ENDBRANCH   5   7
BRANCH   4  16
ATOM     16  C   UNL     1       0.041  -3.300  -1.564  0.00  0.00    +0.025 A 
ATOM     17  C   UNL     1       1.009  -3.725  -2.435  0.00  0.00    +0.016 A 
ATOM     18  C   UNL     1       0.796  -4.888  -3.145  0.00  0.00    +0.008 A 
ATOM     19  C   UNL     1      -0.360  -5.573  -2.960  0.00  0.00    +0.046 A 
ATOM     20  S   UNL     1      -1.199  -4.572  -1.743  0.00  0.00    -0.096 S 
ENDBRANCH   4  16
BRANCH   3  21
ATOM     21  N   UNL     1      -0.005  -0.333  -2.424  0.00  0.00    -0.343 N 
ATOM     22  H   UNL     1      -0.019   0.619  -2.612  0.00  0.00    +0.144 HD
ATOM     23  H   UNL     1      -0.000  -0.971  -3.155  0.00  0.00    +0.144 HD
ENDBRANCH   3  21
TORSDOF 3
