REMARK  Name = ZINC47688981
REMARK  11 active torsions:
REMARK  status: ('A' for Active; 'I' for Inactive)
REMARK    1  A    between atoms: C_1  and  C_2
REMARK    2  A    between atoms: C_2  and  C_3
REMARK    3  A    between atoms: C_2  and  C_4
REMARK    4  A    between atoms: C_2  and  C_5
REMARK    5  A    between atoms: C_9  and  N_14
REMARK    6  A    between atoms: C_15  and  C_17
REMARK    7  A    between atoms: C_17  and  C_19
REMARK    8  A    between atoms: C_17  and  N_23
REMARK    9  A    between atoms: C_19  and  C_20
REMARK   10  A    between atoms: C_20  and  S_21
REMARK   11  A    between atoms: S_21  and  C_22
REMARK                            x       y       z     vdW  Elec       q    Type
REMARK                         _______ _______ _______ _____ _____    ______ ____
ROOT
ATOM      1  N   UNL     1       4.523  -1.650  -5.498  0.00  0.00    -0.284 N 
ATOM      2  C   UNL     1       5.338  -0.580  -5.581  0.00  0.00    +0.238 C 
ATOM      3  O   UNL     1       5.127   0.398  -4.896  0.00  0.00    -0.273 OA
ATOM      4  H   UNL     1       4.729  -2.457  -5.995  0.00  0.00    +0.155 HD
ENDROOT
BRANCH   1   9
ATOM      5  C   UNL     1       0.733  -0.509  -1.210  0.00  0.00    +0.202 A 
ATOM      6  N   UNL     1       1.965  -0.240  -1.522  0.00  0.00    -0.213 NA
ATOM      7  C   UNL     1       2.257  -0.835  -2.710  0.00  0.00    +0.111 A 
ATOM      8  C   UNL     1       3.401  -0.886  -3.508  0.00  0.00    +0.055 A 
ATOM      9  C   UNL     1       3.377  -1.596  -4.694  0.00  0.00    +0.036 A 
ATOM     10  C   UNL     1       2.218  -2.258  -5.093  0.00  0.00    +0.027 A 
ATOM     11  C   UNL     1       1.084  -2.212  -4.311  0.00  0.00    +0.050 A 
ATOM     12  C   UNL     1       1.093  -1.504  -3.118  0.00  0.00    +0.155 A 
ATOM     13  O   UNL     1       0.172  -1.280  -2.155  0.00  0.00    -0.439 OA
BRANCH   5  15
ATOM     14  C   UNL     1       0.017   1.500   0.054  0.00  0.00    +0.020 C 
ATOM     15  C   UNL     1       0.035  -0.030   0.036  0.00  0.00    +0.039 C 
ATOM     16  C   UNL     1       0.781  -0.545   1.269  0.00  0.00    +0.020 C 
ATOM     17  C   UNL     1      -1.401  -0.557   0.052  0.00  0.00    +0.020 C 
ENDBRANCH   5  15
ENDBRANCH   1   9
BRANCH   2  18
ATOM     18  C   UNL     1       6.513  -0.600  -6.525  0.00  0.00    +0.161 C 
BRANCH  18  19
ATOM     19  N   UNL     1       7.488   0.412  -6.112  0.00  0.00    -0.288 N 
ATOM     20  C   UNL     1       7.132   1.711  -6.063  0.00  0.00    +0.298 C 
ATOM     21  O   UNL     1       6.001   2.043  -6.361  0.00  0.00    -0.253 OA
ATOM     22  N   UNL     1       8.029   2.643  -5.683  0.00  0.00    -0.313 N 
ATOM     23  H   UNL     1       8.391   0.148  -5.874  0.00  0.00    +0.151 HD
ATOM     24  H   UNL     1       8.931   2.378  -5.445  0.00  0.00    +0.146 HD
ATOM     25  H   UNL     1       7.772   3.577  -5.647  0.00  0.00    +0.146 HD
ENDBRANCH  18  19
BRANCH  18  26
ATOM     26  C   UNL     1       6.032  -0.295  -7.945  0.00  0.00    +0.042 C 
BRANCH  26  27
ATOM     27  C   UNL     1       7.201  -0.437  -8.921  0.00  0.00    +0.071 C 
BRANCH  27  28
ATOM     28  S   UNL     1       6.630  -0.075 -10.605  0.00  0.00    -0.164 S 
ATOM     29  C   UNL     1       8.115  -0.285 -11.626  0.00  0.00    +0.084 C 
ENDBRANCH  27  28
ENDBRANCH  26  27
ENDBRANCH  18  26
ENDBRANCH   2  18
TORSDOF 7
