REMARK  Name = ZINC01194045
REMARK  8 active torsions:
REMARK  status: ('A' for Active; 'I' for Inactive)
REMARK    1  A    between atoms: C_1  and  C_2
REMARK    2  A    between atoms: C_12  and  C_13
REMARK    3  A    between atoms: C_12  and  C_24
REMARK    4  A    between atoms: C_14  and  O_23
REMARK    5  A    between atoms: N_15  and  C_22
REMARK    6  A    between atoms: N_18  and  C_21
REMARK    7  A    between atoms: C_24  and  C_25
REMARK    8  A    between atoms: C_24  and  C_27
REMARK                            x       y       z     vdW  Elec       q    Type
REMARK                         _______ _______ _______ _____ _____    ______ ____
ROOT
ATOM      1  C   UNL     1       0.098   2.316  -0.202  0.00  0.00    +0.045 C 
ATOM      2  C   UNL     1      -0.646   2.490   1.097  0.00  0.00    -0.036 A 
ATOM      3  C   UNL     1      -2.028   2.421   1.121  0.00  0.00    +0.011 A 
ATOM      4  C   UNL     1      -2.703   2.575   2.310  0.00  0.00    -0.004 A 
ATOM      5  C   UNL     1      -2.015   2.811   3.494  0.00  0.00    +0.039 A 
ATOM      6  C   UNL     1      -0.625   2.885   3.463  0.00  0.00    +0.039 A 
ATOM      7  C   UNL     1       0.051   2.725   2.269  0.00  0.00    +0.023 A 
ATOM      8 BR   UNL     1       1.939   2.826   2.237  0.00  0.00    -0.050 Br
ATOM      9  N   UNL     1      -2.912   2.937   4.556  0.00  0.00    -0.284 N 
ATOM     10  C   UNL     1      -4.189   2.799   4.162  0.00  0.00    +0.235 C 
ATOM     11  O   UNL     1      -5.172   2.861   4.871  0.00  0.00    -0.274 OA
ATOM     12  C   UNL     1      -4.171   2.551   2.669  0.00  0.00    +0.137 C 
ATOM     13  H   UNL     1      -2.644   3.105   5.473  0.00  0.00    +0.155 HD
ENDROOT
BRANCH  12  14
ATOM     14  C   UNL     1      -4.910   3.646   1.943  0.00  0.00    +0.098 A 
ATOM     15  C   UNL     1      -5.453   4.688   2.634  0.00  0.00    +0.206 A 
ATOM     16  N   UNL     1      -6.121   5.674   1.952  0.00  0.00    -0.267 N 
ATOM     17  C   UNL     1      -6.241   5.616   0.613  0.00  0.00    +0.334 A 
ATOM     18  O   UNL     1      -6.836   6.499   0.026  0.00  0.00    -0.246 OA
ATOM     19  N   UNL     1      -5.712   4.596  -0.086  0.00  0.00    -0.264 N 
ATOM     20  C   UNL     1      -5.044   3.609   0.544  0.00  0.00    +0.265 A 
ATOM     21  O   UNL     1      -4.562   2.690  -0.095  0.00  0.00    -0.267 OA
ATOM     22  C   UNL     1      -5.859   4.559  -1.543  0.00  0.00    +0.157 C 
ATOM     23  C   UNL     1      -6.707   6.798   2.687  0.00  0.00    +0.157 C 
BRANCH  15  24
ATOM     24  O   UNL     1      -5.335   4.750   3.977  0.00  0.00    -0.493 OA
ATOM     25  H   UNL     1      -5.753   5.527   4.373  0.00  0.00    +0.294 HD
ENDBRANCH  15  24
ENDBRANCH  12  14
BRANCH  12  26
ATOM     26  C   UNL     1      -4.781   1.187   2.342  0.00  0.00    +0.217 C 
BRANCH  26  27
ATOM     27  C   UNL     1      -6.249   1.297   2.321  0.00  0.00    +0.083 C 
ATOM     28  N   UNL     1      -7.381   1.383   2.304  0.00  0.00    -0.195 NA
ENDBRANCH  26  27
BRANCH  26  29
ATOM     29  C   UNL     1      -4.304   0.739   1.023  0.00  0.00    +0.083 C 
ATOM     30  N   UNL     1      -3.935   0.394   0.006  0.00  0.00    -0.195 NA
ENDBRANCH  26  29
ENDBRANCH  12  26
TORSDOF 5
