REMARK  Name = ZINC21050571
REMARK  4 active torsions:
REMARK  status: ('A' for Active; 'I' for Inactive)
REMARK    1  A    between atoms: C_1  and  C_2
REMARK    2  A    between atoms: C_2  and  C_3
REMARK    3  A    between atoms: C_6  and  N_9
REMARK    4  A    between atoms: C_10  and  C_12
REMARK                            x       y       z     vdW  Elec       q    Type
REMARK                         _______ _______ _______ _____ _____    ______ ____
ROOT
ATOM      1  C   UNL     1      -1.304  -1.883   0.391  0.00  0.00    +0.247 C 
ATOM      2  N   UNL     1      -0.009  -1.980  -0.278  0.00  0.00    -0.319 N 
ATOM      3  C   UNL     1       0.744  -3.150  -0.324  0.00  0.00    +0.055 A 
ATOM      4  C   UNL     1       2.112  -3.060  -0.577  0.00  0.00    +0.025 A 
ATOM      5  C   UNL     1       2.878  -4.203  -0.662  0.00  0.00    +0.002 A 
ATOM      6  C   UNL     1       2.296  -5.447  -0.498  0.00  0.00    +0.002 A 
ATOM      7  C   UNL     1       0.941  -5.545  -0.241  0.00  0.00    +0.030 A 
ATOM      8  C   UNL     1       0.172  -4.403  -0.150  0.00  0.00    +0.126 A 
ATOM      9  S   UNL     1      -1.557  -4.532   0.196  0.00  0.00    +0.062 S 
ATOM     10  O   UNL     1      -2.119  -5.374  -0.801  0.00  0.00    -0.153 OA
ATOM     11  O   UNL     1      -1.683  -4.794   1.587  0.00  0.00    -0.153 OA
ATOM     12  N   UNL     1      -2.158  -2.998  -0.067  0.00  0.00    -0.161 NA
ATOM     13  H   UNL     1       0.418  -1.098  -0.779  0.00  0.00    +0.148 HD
ATOM     14  H   UNL     1      -3.189  -2.801  -0.396  0.00  0.00    +0.151 HD
ENDROOT
BRANCH   1  16
ATOM     15  N   UNL     1      -2.130  -1.683   2.714  0.00  0.00    -0.283 N 
ATOM     16  C   UNL     1      -1.110  -1.975   1.883  0.00  0.00    +0.254 C 
ATOM     17  O   UNL     1      -0.036  -2.312   2.335  0.00  0.00    -0.272 OA
ATOM     18  H   UNL     1      -3.125  -1.452   2.304  0.00  0.00    +0.155 HD
BRANCH  15  22
ATOM     19  C   UNL     1      -1.517  -1.656   6.835  0.00  0.00    -0.048 A 
ATOM     20  C   UNL     1      -2.387  -0.748   6.261  0.00  0.00    +0.005 A 
ATOM     21  C   UNL     1      -2.593  -0.754   4.895  0.00  0.00    +0.023 A 
ATOM     22  C   UNL     1      -1.924  -1.674   4.098  0.00  0.00    +0.034 A 
ATOM     23  C   UNL     1      -1.055  -2.589   4.678  0.00  0.00    +0.023 A 
ATOM     24  C   UNL     1      -0.850  -2.573   6.044  0.00  0.00    +0.005 A 
BRANCH  19  26
ATOM     25  C   UNL     1      -2.306  -2.577   8.998  0.00  0.00    +0.009 C 
ATOM     26  C   UNL     1      -1.295  -1.646   8.325  0.00  0.00    +0.032 C 
ENDBRANCH  19  26
ENDBRANCH  15  22
ENDBRANCH   1  16
TORSDOF 3
