REMARK  Name = ZINC55949642
REMARK  2 active torsions:
REMARK  status: ('A' for Active; 'I' for Inactive)
REMARK    1  A    between atoms: C_6  and  S_7
REMARK    2  A    between atoms: S_7  and  N_10
REMARK                            x       y       z     vdW  Elec       q    Type
REMARK                         _______ _______ _______ _____ _____    ______ ____
ROOT
ATOM      1  C   UNL     1      -2.793  -1.960   2.178  0.00  0.00    +0.037 A 
ATOM      2  C   UNL     1      -3.909  -2.298   2.918  0.00  0.00    -0.024 A 
ATOM      3  C   UNL     1      -5.178  -2.008   2.435  0.00  0.00    +0.039 A 
ATOM      4  C   UNL     1      -5.322  -1.379   1.206  0.00  0.00    +0.064 A 
ATOM      5  C   UNL     1      -4.202  -1.044   0.467  0.00  0.00    +0.151 A 
ATOM      6  C   UNL     1      -2.938  -1.334   0.954  0.00  0.00    +0.141 A 
ATOM      7  F   UNL     1      -4.341  -0.433  -0.730  0.00  0.00    -0.203 F 
ATOM      8  N   UNL     1      -6.306  -2.349   3.187  0.00  0.00    -0.285 N 
ATOM      9  C   UNL     1      -6.196  -2.607   4.503  0.00  0.00    +0.218 C 
ATOM     10  O   UNL     1      -7.182  -2.916   5.138  0.00  0.00    -0.275 OA
ATOM     11  C   UNL     1      -4.863  -2.516   5.197  0.00  0.00    +0.101 C 
ATOM     12  C   UNL     1      -3.753  -2.981   4.253  0.00  0.00    +0.046 C 
ATOM     13  H   UNL     1      -7.174  -2.400   2.757  0.00  0.00    +0.155 HD
ENDROOT
BRANCH   6  14
ATOM     14  S   UNL     1      -1.513  -0.904   0.012  0.00  0.00    +0.064 S 
ATOM     15  O   UNL     1      -1.689   0.445  -0.399  0.00  0.00    -0.153 OA
ATOM     16  O   UNL     1      -0.385  -1.330   0.764  0.00  0.00    -0.153 OA
BRANCH  14  17
ATOM     17  N   UNL     1      -1.540  -1.825  -1.364  0.00  0.00    -0.176 NA
ATOM     18  C   UNL     1      -2.072  -1.273  -2.618  0.00  0.00    +0.109 C 
ATOM     19  C   UNL     1      -1.135  -0.182  -3.118  0.00  0.00    +0.017 C 
ATOM     20  C   UNL     1       0.149  -0.830  -3.664  0.00  0.00    +0.001 C 
ATOM     21  C   UNL     1       1.048  -1.233  -2.500  0.00  0.00    +0.000 C 
ATOM     22  C   UNL     1       1.181  -2.765  -2.420  0.00  0.00    +0.001 C 
ATOM     23  C   UNL     1      -0.192  -3.412  -2.606  0.00  0.00    +0.017 C 
ATOM     24  C   UNL     1      -1.031  -3.187  -1.346  0.00  0.00    +0.109 C 
ENDBRANCH  14  17
ENDBRANCH   6  14
TORSDOF 2
