REMARK  Name = ZINC39638492
REMARK  13 active torsions:
REMARK  status: ('A' for Active; 'I' for Inactive)
REMARK    1  A    between atoms: C_1  and  C_2
REMARK    2  A    between atoms: C_2  and  C_3
REMARK    3  A    between atoms: C_2  and  C_4
REMARK    4  A    between atoms: C_4  and  C_6
REMARK    5  A    between atoms: C_4  and  O_33
REMARK    6  A    between atoms: C_10  and  C_19
REMARK    7  A    between atoms: N_21  and  C_22
REMARK    8  A    between atoms: C_22  and  C_23
REMARK    9  A    between atoms: C_27  and  O_31
REMARK   10  A    between atoms: C_28  and  O_29
REMARK   11  A    between atoms: O_29  and  C_30
REMARK   12  A    between atoms: O_31  and  C_32
REMARK   13  A    between atoms: O_33  and  C_34
REMARK                            x       y       z     vdW  Elec       q    Type
REMARK                         _______ _______ _______ _____ _____    ______ ____
ROOT
ATOM      1  C   UNL     1      -1.129  -1.595   0.246  0.00  0.00    +0.257 C 
ATOM      2  O   UNL     1      -1.451  -2.372  -0.628  0.00  0.00    -0.272 OA
ATOM      3  N   UNL     1      -0.653  -2.061   1.419  0.00  0.00    -0.297 N 
ATOM      4  C   UNL     1      -0.324  -1.285   2.637  0.00  0.00    +0.121 C 
ATOM      5  C   UNL     1      -0.806  -2.172   3.807  0.00  0.00    +0.100 C 
ATOM      6  C   UNL     1      -0.814  -3.601   3.239  0.00  0.00    -0.004 C 
ATOM      7  C   UNL     1      -0.347  -3.465   1.782  0.00  0.00    +0.115 C 
ATOM      8  C   UNL     1       0.150  -4.486   4.023  0.00  0.00    -0.010 C 
ATOM      9  C   UNL     1       0.082  -5.915   3.477  0.00  0.00    -0.082 C 
ATOM     10  N   UNL     1      -1.290  -6.423   3.598  0.00  0.00    +0.379 N 
ATOM     11  C   UNL     1      -2.196  -5.621   2.767  0.00  0.00    -0.082 C 
ATOM     12  C   UNL     1      -2.224  -4.180   3.283  0.00  0.00    -0.010 C 
ATOM     13  H   UNL     1      -1.320  -7.385   3.295  0.00  0.00    -0.086 HD
ATOM     14  H   UNL     1      -1.583  -6.368   4.562  0.00  0.00    -0.086 HD
ENDROOT
BRANCH   5  15
ATOM     15  C   UNL     1       0.147  -2.072   4.969  0.00  0.00    +0.218 C 
ATOM     16  O   UNL     1       1.312  -1.792   4.776  0.00  0.00    -0.275 OA
ATOM     17  N   UNL     1      -0.293  -2.293   6.224  0.00  0.00    -0.311 N 
ATOM     18  H   UNL     1      -1.224  -2.517   6.378  0.00  0.00    +0.149 HD
BRANCH  17  19
ATOM     19  C   UNL     1       0.634  -2.196   7.354  0.00  0.00    +0.143 C 
BRANCH  19  20
ATOM     20  C   UNL     1      -0.104  -2.487   8.635  0.00  0.00    +0.015 A 
ATOM     21  C   UNL     1      -0.528  -1.446   9.440  0.00  0.00    +0.009 A 
ATOM     22  C   UNL     1      -1.205  -1.709  10.616  0.00  0.00    +0.004 A 
ATOM     23  C   UNL     1      -1.460  -3.015  10.993  0.00  0.00    +0.049 A 
ATOM     24  C   UNL     1      -1.037  -4.063  10.191  0.00  0.00    +0.162 A 
ATOM     25  C   UNL     1      -0.361  -3.797   9.004  0.00  0.00    +0.166 A 
BRANCH  25  26
ATOM     26  O   UNL     1       0.051  -4.822   8.211  0.00  0.00    -0.491 OA
ATOM     27  C   UNL     1       1.354  -5.352   8.460  0.00  0.00    +0.277 C 
ENDBRANCH  25  26
BRANCH  24  28
ATOM     28  O   UNL     1      -1.287  -5.347  10.561  0.00  0.00    -0.491 OA
ATOM     29  C   UNL     1      -1.991  -5.544  11.789  0.00  0.00    +0.277 C 
ENDBRANCH  24  28
ENDBRANCH  19  20
ENDBRANCH  17  19
ENDBRANCH   5  15
BRANCH   1  30
ATOM     30  C   UNL     1      -1.260  -0.111   0.022  0.00  0.00    +0.261 C 
BRANCH  30  32
ATOM     31  C   UNL     1      -0.029   1.974  -0.593  0.00  0.00    +0.011 C 
ATOM     32  C   UNL     1       0.089   0.459  -0.421  0.00  0.00    +0.033 C 
ATOM     33  C   UNL     1       1.148   0.147   0.638  0.00  0.00    +0.011 C 
ENDBRANCH  30  32
BRANCH  30  34
ATOM     34  O   UNL     1      -2.237   0.133  -0.991  0.00  0.00    -0.479 OA
BRANCH  34  35
ATOM     35  C   UNL     1      -3.097   1.164  -0.783  0.00  0.00    +0.122 A 
ATOM     36  C   UNL     1      -4.149   1.380  -1.662  0.00  0.00    +0.045 A 
ATOM     37  C   UNL     1      -5.023   2.428  -1.448  0.00  0.00    +0.004 A 
ATOM     38  C   UNL     1      -4.850   3.262  -0.359  0.00  0.00    +0.000 A 
ATOM     39  C   UNL     1      -3.802   3.050   0.518  0.00  0.00    +0.004 A 
ATOM     40  C   UNL     1      -2.929   1.999   0.312  0.00  0.00    +0.045 A 
ENDBRANCH  34  35
ENDBRANCH  30  34
ENDBRANCH   1  30
TORSDOF 9
