REMARK  Name = ZINC39653976
REMARK  10 active torsions:
REMARK  status: ('A' for Active; 'I' for Inactive)
REMARK    1  A    between atoms: C_1  and  C_2
REMARK    2  A    between atoms: C_2  and  O_3
REMARK    3  A    between atoms: O_3  and  C_4
REMARK    4  A    between atoms: C_7  and  C_10
REMARK    5  A    between atoms: C_10  and  C_11
REMARK    6  A    between atoms: C_11  and  N_12
REMARK    7  A    between atoms: C_13  and  C_15
REMARK    8  A    between atoms: C_26  and  C_28
REMARK    9  A    between atoms: C_32  and  O_33
REMARK   10  A    between atoms: O_33  and  C_34
REMARK                            x       y       z     vdW  Elec       q    Type
REMARK                         _______ _______ _______ _____ _____    ______ ____
ROOT
ATOM      1  C   UNL     1       3.737 -10.124   0.908  0.00  0.00    +0.100 C 
ATOM      2  C   UNL     1       3.982 -10.493   2.389  0.00  0.00    +0.121 C 
ATOM      3  N   UNL     1       4.925 -11.635   2.338  0.00  0.00    -0.296 N 
ATOM      4  C   UNL     1       5.864 -11.290   1.244  0.00  0.00    +0.115 C 
ATOM      5  C   UNL     1       4.975 -10.648   0.161  0.00  0.00    -0.004 C 
ATOM      6  C   UNL     1       5.713  -9.494  -0.511  0.00  0.00    -0.010 C 
ATOM      7  C   UNL     1       6.907 -10.046  -1.296  0.00  0.00    -0.082 C 
ATOM      8  N   UNL     1       6.432 -11.003  -2.303  0.00  0.00    +0.379 N 
ATOM      9  C   UNL     1       5.805 -12.154  -1.644  0.00  0.00    -0.082 C 
ATOM     10  C   UNL     1       4.565 -11.691  -0.873  0.00  0.00    -0.010 C 
ATOM     11  C   UNL     1       4.928 -12.738   3.113  0.00  0.00    +0.251 C 
ATOM     12  O   UNL     1       4.028 -12.926   3.909  0.00  0.00    -0.270 OA
ATOM     13  H   UNL     1       5.757 -10.551  -2.902  0.00  0.00    -0.086 HD
ATOM     14  H   UNL     1       7.212 -11.319  -2.859  0.00  0.00    -0.086 HD
ENDROOT
BRANCH  11  15
ATOM     15  C   UNL     1       6.021 -13.716   2.995  0.00  0.00    +0.087 A 
ATOM     16  C   UNL     1       7.314 -13.324   2.721  0.00  0.00    +0.063 A 
ATOM     17  S   UNL     1       8.182 -14.758   2.685  0.00  0.00    -0.081 S 
ATOM     18  C   UNL     1       6.880 -15.922   3.028  0.00  0.00    +0.120 A 
ATOM     19  C   UNL     1       5.792 -15.132   3.168  0.00  0.00    +0.158 A 
ATOM     20 CL   UNL     1       6.984 -17.650   3.159  0.00  0.00    -0.072 Cl
BRANCH  19  21
ATOM     21  O   UNL     1       4.559 -15.638   3.447  0.00  0.00    -0.492 OA
ATOM     22  C   UNL     1       3.736 -15.993   2.334  0.00  0.00    +0.277 C 
ENDBRANCH  19  21
ENDBRANCH  11  15
BRANCH   1  24
ATOM     23  N   UNL     1       3.011  -8.109  -0.330  0.00  0.00    -0.315 N 
ATOM     24  C   UNL     1       3.623  -8.629   0.752  0.00  0.00    +0.218 C 
ATOM     25  O   UNL     1       4.082  -7.894   1.601  0.00  0.00    -0.275 OA
ATOM     26  H   UNL     1       2.644  -8.697  -1.009  0.00  0.00    +0.149 HD
BRANCH  23  27
ATOM     27  C   UNL     1       2.901  -6.657  -0.481  0.00  0.00    +0.109 C 
BRANCH  27  28
ATOM     28  C   UNL     1       2.169  -6.334  -1.786  0.00  0.00    +0.054 C 
BRANCH  28  32
ATOM     29  C   UNL     1       1.846  -2.096  -2.228  0.00  0.00    +0.121 A 
ATOM     30  C   UNL     1       2.947  -2.766  -2.740  0.00  0.00    +0.046 A 
ATOM     31  C   UNL     1       3.050  -4.136  -2.596  0.00  0.00    +0.007 A 
ATOM     32  C   UNL     1       2.055  -4.839  -1.942  0.00  0.00    -0.046 A 
ATOM     33  C   UNL     1       0.956  -4.174  -1.431  0.00  0.00    +0.007 A 
ATOM     34  C   UNL     1       0.852  -2.803  -1.568  0.00  0.00    +0.046 A 
BRANCH  29  35
ATOM     35  O   UNL     1       1.743  -0.748  -2.369  0.00  0.00    -0.492 OA
BRANCH  35  37
ATOM     36  C   UNL     1       2.514   1.416  -3.119  0.00  0.00    +0.048 C 
ATOM     37  C   UNL     1       2.804  -0.085  -3.060  0.00  0.00    +0.225 C 
ENDBRANCH  35  37
ENDBRANCH  29  35
ENDBRANCH  28  32
ENDBRANCH  27  28
ENDBRANCH  23  27
ENDBRANCH   1  24
TORSDOF 8
