REMARK  Name = ZINC10033953
REMARK  9 active torsions:
REMARK  status: ('A' for Active; 'I' for Inactive)
REMARK    1  A    between atoms: C_1  and  C_2
REMARK    2  A    between atoms: C_5  and  N_8
REMARK    3  A    between atoms: C_9  and  N_18
REMARK    4  A    between atoms: C_19  and  C_21
REMARK    5  A    between atoms: N_23  and  C_24
REMARK    6  A    between atoms: C_24  and  C_25
REMARK    7  A    between atoms: C_25  and  C_26
REMARK    8  A    between atoms: C_29  and  O_32
REMARK    9  A    between atoms: O_32  and  C_33
REMARK                            x       y       z     vdW  Elec       q    Type
REMARK                         _______ _______ _______ _____ _____    ______ ____
ROOT
ATOM      1  N   UNL     1       1.557  -2.814  -1.977  0.00  0.00    -0.262 N 
ATOM      2  C   UNL     1       0.903  -2.094  -1.044  0.00  0.00    +0.304 C 
ATOM      3  O   UNL     1       0.174  -2.650  -0.248  0.00  0.00    -0.265 OA
ATOM      4  H   UNL     1       2.090  -2.365  -2.651  0.00  0.00    +0.157 HD
ENDROOT
BRANCH   1   6
ATOM      5  N   UNL     1       1.592  -5.017  -3.050  0.00  0.00    -0.218 N 
ATOM      6  C   UNL     1       1.466  -4.203  -1.973  0.00  0.00    +0.134 A 
ATOM      7  C   UNL     1       1.240  -5.000  -0.873  0.00  0.00    +0.038 A 
ATOM      8  C   UNL     1       1.219  -6.316  -1.302  0.00  0.00    +0.091 A 
ATOM      9  N   UNL     1       1.434  -6.332  -2.609  0.00  0.00    -0.168 NA
ATOM     10  C   UNL     1       0.974  -7.382  -0.235  0.00  0.00    +0.223 C 
ATOM     11  S   UNL     1       1.287  -6.439   1.316  0.00  0.00    -0.021 S 
ATOM     12  O   UNL     1       2.650  -6.579   1.694  0.00  0.00    -0.174 OA
ATOM     13  O   UNL     1       0.261  -6.730   2.255  0.00  0.00    -0.174 OA
ATOM     14  C   UNL     1       1.017  -4.758   0.619  0.00  0.00    +0.206 C 
BRANCH   5  19
ATOM     15  C   UNL     1       2.581  -3.374  -8.392  0.00  0.00    +0.044 C 
ATOM     16  C   UNL     1       2.318  -3.810  -6.973  0.00  0.00    -0.050 A 
ATOM     17  C   UNL     1       2.926  -4.949  -6.478  0.00  0.00    +0.005 A 
ATOM     18  C   UNL     1       2.688  -5.351  -5.178  0.00  0.00    +0.028 A 
ATOM     19  C   UNL     1       1.836  -4.611  -4.369  0.00  0.00    +0.067 A 
ATOM     20  C   UNL     1       1.223  -3.471  -4.871  0.00  0.00    +0.028 A 
ATOM     21  C   UNL     1       1.469  -3.071  -6.170  0.00  0.00    +0.005 A 
ENDBRANCH   5  19
ENDBRANCH   1   6
BRANCH   2  22
ATOM     22  C   UNL     1       1.077  -0.612  -0.988  0.00  0.00    +0.299 C 
ATOM     23  O   UNL     1       1.806  -0.056  -1.783  0.00  0.00    -0.265 OA
ATOM     24  N   UNL     1       0.424   0.109  -0.055  0.00  0.00    -0.307 N 
ATOM     25  H   UNL     1      -0.159  -0.336   0.581  0.00  0.00    +0.149 HD
BRANCH  24  26
ATOM     26  C   UNL     1       0.595   1.563   0.000  0.00  0.00    +0.109 C 
BRANCH  26  27
ATOM     27  C   UNL     1      -0.250   2.133   1.141  0.00  0.00    +0.054 C 
BRANCH  27  28
ATOM     28  C   UNL     1      -0.075   3.628   1.198  0.00  0.00    -0.046 A 
ATOM     29  C   UNL     1       0.925   4.177   1.979  0.00  0.00    +0.007 A 
ATOM     30  C   UNL     1       1.091   5.548   2.028  0.00  0.00    +0.046 A 
ATOM     31  C   UNL     1       0.247   6.374   1.301  0.00  0.00    +0.120 A 
ATOM     32  C   UNL     1      -0.759   5.821   0.522  0.00  0.00    +0.046 A 
ATOM     33  C   UNL     1      -0.918   4.450   0.472  0.00  0.00    +0.007 A 
BRANCH  31  34
ATOM     34  O   UNL     1       0.405   7.723   1.351  0.00  0.00    -0.495 OA
ATOM     35  C   UNL     1       1.462   8.222   2.174  0.00  0.00    +0.277 C 
ENDBRANCH  31  34
ENDBRANCH  27  28
ENDBRANCH  26  27
ENDBRANCH  24  26
ENDBRANCH   2  22
TORSDOF 7
