REMARK  Name = ZINC64701641
REMARK  7 active torsions:
REMARK  status: ('A' for Active; 'I' for Inactive)
REMARK    1  A    between atoms: C_7  and  C_10
REMARK    2  A    between atoms: C_10  and  C_11
REMARK    3  A    between atoms: C_11  and  C_13
REMARK    4  A    between atoms: C_11  and  N_28
REMARK    5  A    between atoms: N_18  and  C_21
REMARK    6  A    between atoms: C_21  and  C_22
REMARK    7  A    between atoms: C_29  and  C_31
REMARK                            x       y       z     vdW  Elec       q    Type
REMARK                         _______ _______ _______ _____ _____    ______ ____
ROOT
ATOM      1  C   UNL     1       0.423  -3.473  -1.454  0.00  0.00    +0.163 C 
ENDROOT
BRANCH   1   2
ATOM      2  C   UNL     1      -0.977  -3.922  -1.784  0.00  0.00    +0.236 C 
ATOM      3  O   UNL     1      -1.153  -4.910  -2.463  0.00  0.00    -0.274 OA
ATOM      4  N   UNL     1      -2.034  -3.224  -1.323  0.00  0.00    -0.298 N 
ATOM      5  C   UNL     1      -1.845  -1.961  -0.593  0.00  0.00    +0.123 C 
ATOM      6  C   UNL     1      -2.636  -2.032   0.717  0.00  0.00    +0.103 C 
ATOM      7  N   UNL     1      -4.034  -2.376   0.423  0.00  0.00    -0.295 NA
ATOM      8  C   UNL     1      -4.137  -3.708  -0.189  0.00  0.00    +0.103 C 
ATOM      9  C   UNL     1      -3.408  -3.702  -1.542  0.00  0.00    +0.123 C 
BRANCH   7  10
ATOM     10  C   UNL     1      -4.863  -2.287   1.633  0.00  0.00    +0.119 C 
BRANCH  10  11
ATOM     11  C   UNL     1      -6.317  -2.403   1.254  0.00  0.00    -0.031 A 
ATOM     12  C   UNL     1      -7.061  -1.276   0.941  0.00  0.00    +0.024 A 
ATOM     13  C   UNL     1      -8.392  -1.422   0.599  0.00  0.00    +0.111 A 
ATOM     14  N   UNL     1      -8.954  -2.614   0.568  0.00  0.00    -0.263 NA
ATOM     15  C   UNL     1      -8.277  -3.708   0.860  0.00  0.00    +0.111 A 
ATOM     16  C   UNL     1      -6.941  -3.640   1.205  0.00  0.00    +0.024 A 
ENDBRANCH  10  11
ENDBRANCH   7  10
ENDBRANCH   1   2
BRANCH   1  17
ATOM     17  N   UNL     1       1.365  -4.082  -2.397  0.00  0.00    -0.300 N 
ATOM     18  C   UNL     1       2.183  -3.302  -3.131  0.00  0.00    +0.245 C 
ATOM     19  O   UNL     1       2.140  -2.093  -3.010  0.00  0.00    -0.270 OA
ATOM     20  H   UNL     1       1.400  -5.046  -2.493  0.00  0.00    +0.150 HD
BRANCH  18  21
ATOM     21  C   UNL     1       3.133  -3.916  -4.081  0.00  0.00    +0.037 A 
ATOM     22  C   UNL     1       3.181  -5.304  -4.226  0.00  0.00    +0.016 A 
ATOM     23  C   UNL     1       4.069  -5.871  -5.114  0.00  0.00    +0.039 A 
ATOM     24  C   UNL     1       4.915  -5.066  -5.863  0.00  0.00    +0.123 A 
ATOM     25  C   UNL     1       4.871  -3.688  -5.723  0.00  0.00    +0.039 A 
ATOM     26  C   UNL     1       3.982  -3.109  -4.843  0.00  0.00    +0.016 A 
ATOM     27  F   UNL     1       5.784  -5.628  -6.731  0.00  0.00    -0.205 F 
ENDBRANCH  18  21
ENDBRANCH   1  17
BRANCH   1  28
ATOM     28  C   UNL     1       0.776  -3.906  -0.030  0.00  0.00    +0.065 C 
BRANCH  28  35
ATOM     29  C   UNL     1       2.021  -0.123   2.250  0.00  0.00    +0.001 A 
ATOM     30  C   UNL     1       3.409   0.023   2.381  0.00  0.00    +0.002 A 
ATOM     31  C   UNL     1       4.287  -0.872   1.880  0.00  0.00    +0.026 A 
ATOM     32  C   UNL     1       3.822  -2.022   1.184  0.00  0.00    +0.043 A 
ATOM     33  N   UNL     1       4.462  -3.016   0.616  0.00  0.00    -0.380 N 
ATOM     34  C   UNL     1       3.476  -3.937   0.039  0.00  0.00    +0.144 C 
ATOM     35  C   UNL     1       2.121  -3.342   0.348  0.00  0.00    -0.039 C 
ATOM     36  C   UNL     1       2.361  -2.200   1.032  0.00  0.00    -0.001 A 
ATOM     37  C   UNL     1       1.474  -1.181   1.607  0.00  0.00    +0.010 A 
ATOM     38  H   UNL     1       5.425  -3.124   0.583  0.00  0.00    +0.160 HD
ENDBRANCH  28  35
ENDBRANCH   1  28
TORSDOF 7
