REMARK  Name = ZINC55412678
REMARK  5 active torsions:
REMARK  status: ('A' for Active; 'I' for Inactive)
REMARK    1  A    between atoms: C_1  and  C_2
REMARK    2  A    between atoms: C_6  and  S_8
REMARK    3  A    between atoms: S_8  and  N_11
REMARK    4  A    between atoms: N_11  and  C_12
REMARK    5  A    between atoms: C_17  and  C_18
REMARK                            x       y       z     vdW  Elec       q    Type
REMARK                         _______ _______ _______ _____ _____    ______ ____
ROOT
ATOM      1  C   UNL     1       2.436  -2.032   3.184  0.00  0.00    +0.059 A 
ATOM      2  C   UNL     1       1.958  -0.913   3.851  0.00  0.00    +0.025 A 
ATOM      3  C   UNL     1       2.821   0.110   4.192  0.00  0.00    +0.002 A 
ATOM      4  C   UNL     1       4.166   0.027   3.874  0.00  0.00    +0.001 A 
ATOM      5  C   UNL     1       4.657  -1.079   3.212  0.00  0.00    +0.013 A 
ATOM      6  C   UNL     1       3.798  -2.122   2.865  0.00  0.00    +0.042 A 
ENDROOT
BRANCH   6   7
ATOM      7  C   UNL     1       4.319  -3.312   2.161  0.00  0.00    +0.166 A 
ATOM      8  N   UNL     1       4.076  -4.571   2.461  0.00  0.00    -0.129 NA
ATOM      9  N   UNL     1       4.689  -5.341   1.631  0.00  0.00    -0.134 NA
ATOM     10  C   UNL     1       5.348  -4.626   0.763  0.00  0.00    +0.134 A 
ATOM     11  N   UNL     1       5.141  -3.317   1.072  0.00  0.00    -0.311 N 
ATOM     12  C   UNL     1       5.707  -2.159   0.380  0.00  0.00    +0.125 C 
ATOM     13  C   UNL     1       5.966  -2.522  -1.086  0.00  0.00    +0.022 C 
ATOM     14  C   UNL     1       7.371  -3.103  -1.232  0.00  0.00    +0.002 C 
ATOM     15  C   UNL     1       7.511  -4.381  -0.410  0.00  0.00    +0.008 C 
ATOM     16  C   UNL     1       6.181  -5.130  -0.387  0.00  0.00    +0.076 C 
ENDBRANCH   6   7
BRANCH   1  17
ATOM     17  N   UNL     1       1.567  -3.065   2.839  0.00  0.00    -0.216 N 
ATOM     18  H   UNL     1       1.872  -3.986   2.866  0.00  0.00    +0.174 HD
BRANCH  17  19
ATOM     19  S   UNL     1       0.013  -2.722   2.382  0.00  0.00    +0.072 S 
ATOM     20  O   UNL     1      -0.547  -1.921   3.414  0.00  0.00    -0.150 OA
ATOM     21  O   UNL     1      -0.571  -3.951   1.971  0.00  0.00    -0.150 OA
BRANCH  19  27
ATOM     22  C   UNL     1       0.272   1.971   0.095  0.00  0.00    +0.044 C 
ATOM     23  C   UNL     1       0.221   0.471  -0.048  0.00  0.00    -0.049 A 
ATOM     24  C   UNL     1       0.247  -0.105  -1.304  0.00  0.00    +0.003 A 
ATOM     25  C   UNL     1       0.200  -1.480  -1.435  0.00  0.00    +0.002 A 
ATOM     26  C   UNL     1       0.129  -2.280  -0.309  0.00  0.00    +0.029 A 
ATOM     27  C   UNL     1       0.104  -1.704   0.947  0.00  0.00    +0.109 A 
ATOM     28  C   UNL     1       0.155  -0.328   1.078  0.00  0.00    +0.032 A 
ENDBRANCH  19  27
ENDBRANCH  17  19
ENDBRANCH   1  17
TORSDOF 4
