REMARK  Name = ZINC19790938
REMARK  8 active torsions:
REMARK  status: ('A' for Active; 'I' for Inactive)
REMARK    1  A    between atoms: C_4  and  C_7
REMARK    2  A    between atoms: C_7  and  C_8
REMARK    3  A    between atoms: C_7  and  C_28
REMARK    4  A    between atoms: C_8  and  N_9
REMARK    5  A    between atoms: C_15  and  C_17
REMARK    6  A    between atoms: C_17  and  C_18
REMARK    7  A    between atoms: N_20  and  C_21
REMARK    8  A    between atoms: C_21  and  C_22
REMARK                            x       y       z     vdW  Elec       q    Type
REMARK                         _______ _______ _______ _____ _____    ______ ____
ROOT
ATOM      1  N   UNL     1       8.089   2.130  -2.335  0.00  0.00    +0.389 N 
ATOM      2  C   UNL     1       9.544   2.178  -2.551  0.00  0.00    -0.059 C 
ATOM      3  C   UNL     1       9.812   2.486  -4.026  0.00  0.00    +0.085 C 
ATOM      4  N   UNL     1       9.039   1.583  -4.874  0.00  0.00    -0.318 N 
ATOM      5  C   UNL     1       7.984   0.896  -4.428  0.00  0.00    +0.200 C 
ATOM      6  O   UNL     1       7.379   0.193  -5.210  0.00  0.00    -0.278 OA
ATOM      7  C   UNL     1       7.516   0.953  -3.002  0.00  0.00    +0.028 C 
ATOM      8  H   UNL     1       9.317   1.447  -5.929  0.00  0.00    +0.149 HD
ATOM      9  H   UNL     1       7.640   3.032  -2.775  0.00  0.00    -0.081 HD
ENDROOT
BRANCH   1  10
ATOM     10  C   UNL     1       7.770   2.131  -0.901  0.00  0.00    -0.065 C 
BRANCH  10  11
ATOM     11  C   UNL     1       7.914   3.550  -0.347  0.00  0.00    +0.032 C 
BRANCH  11  15
ATOM     12  C   UNL     1       6.427   3.672   3.656  0.00  0.00    +0.000 A 
ATOM     13  C   UNL     1       5.831   4.441   2.673  0.00  0.00    +0.000 A 
ATOM     14  C   UNL     1       6.313   4.402   1.378  0.00  0.00    +0.004 A 
ATOM     15  C   UNL     1       7.390   3.593   1.065  0.00  0.00    -0.042 A 
ATOM     16  C   UNL     1       7.981   2.820   2.047  0.00  0.00    +0.004 A 
ATOM     17  C   UNL     1       7.504   2.864   3.343  0.00  0.00    +0.000 A 
ENDBRANCH  11  15
BRANCH  11  18
ATOM     18  C   UNL     1       9.368   3.946  -0.355  0.00  0.00    -0.042 A 
ATOM     19  C   UNL     1      10.317   3.107   0.199  0.00  0.00    +0.004 A 
ATOM     20  C   UNL     1      11.651   3.469   0.186  0.00  0.00    +0.000 A 
ATOM     21  C   UNL     1      12.035   4.675  -0.369  0.00  0.00    +0.000 A 
ATOM     22  C   UNL     1      11.086   5.516  -0.919  0.00  0.00    +0.000 A 
ATOM     23  C   UNL     1       9.752   5.152  -0.911  0.00  0.00    +0.004 A 
ENDBRANCH  11  18
ENDBRANCH  10  11
ENDBRANCH   1  10
BRANCH   7  24
ATOM     24  C   UNL     1       5.989   1.046  -2.971  0.00  0.00    +0.089 C 
BRANCH  24  25
ATOM     25  C   UNL     1       5.548   2.306  -3.669  0.00  0.00    +0.212 C 
ATOM     26  O   UNL     1       6.373   3.106  -4.055  0.00  0.00    -0.276 OA
ATOM     27  N   UNL     1       4.236   2.543  -3.866  0.00  0.00    -0.308 N 
ATOM     28  H   UNL     1       3.487   1.817  -3.516  0.00  0.00    +0.149 HD
BRANCH  27  29
ATOM     29  C   UNL     1       3.807   3.768  -4.545  0.00  0.00    +0.178 C 
BRANCH  29  30
ATOM     30  C   UNL     1       2.303   3.792  -4.636  0.00  0.00    +0.124 A 
ATOM     31  N   UNL     1       1.471   4.404  -3.767  0.00  0.00    -0.347 N 
ATOM     32  H   UNL     1       1.881   4.945  -2.901  0.00  0.00    +0.167 HD
ATOM     33  C   UNL     1       0.193   4.187  -4.207  0.00  0.00    +0.104 A 
ATOM     34  C   UNL     1       0.288   3.450  -5.330  0.00  0.00    +0.130 A 
ATOM     35  N   UNL     1       1.589   3.223  -5.569  0.00  0.00    -0.239 NA
ENDBRANCH  29  30
ENDBRANCH  27  29
ENDBRANCH  24  25
ENDBRANCH   7  24
TORSDOF 8
