REMARK  Name = ZINC08600271
REMARK  8 active torsions:
REMARK  status: ('A' for Active; 'I' for Inactive)
REMARK    1  A    between atoms: C_1  and  C_2
REMARK    2  A    between atoms: C_2  and  C_4
REMARK    3  A    between atoms: C_7  and  N_10
REMARK    4  A    between atoms: C_11  and  C_13
REMARK    5  A    between atoms: C_16  and  C_19
REMARK    6  A    between atoms: C_19  and  N_20
REMARK    7  A    between atoms: N_20  and  S_21
REMARK    8  A    between atoms: S_21  and  C_24
REMARK                            x       y       z     vdW  Elec       q    Type
REMARK                         _______ _______ _______ _____ _____    ______ ____
ROOT
ATOM      1  C   UNL     1      -6.114  -4.991  -0.178  0.00  0.00    +0.075 C 
ATOM      2  C   UNL     1      -6.875  -4.532  -1.424  0.00  0.00    +0.013 C 
ATOM      3  C   UNL     1      -8.191  -5.306  -1.531  0.00  0.00    +0.005 C 
ATOM      4  C   UNL     1      -7.894  -6.803  -1.637  0.00  0.00    +0.005 C 
ATOM      5  C   UNL     1      -7.133  -7.262  -0.392  0.00  0.00    +0.005 C 
ATOM      6  C   UNL     1      -5.818  -6.488  -0.284  0.00  0.00    +0.013 C 
ENDROOT
BRANCH   1   8
ATOM      7  N   UNL     1      -4.834  -2.885   0.031  0.00  0.00    -0.285 N 
ATOM      8  C   UNL     1      -4.819  -4.228  -0.073  0.00  0.00    +0.220 C 
ATOM      9  O   UNL     1      -3.762  -4.824  -0.081  0.00  0.00    -0.275 OA
ATOM     10  H   UNL     1      -5.678  -2.414   0.115  0.00  0.00    +0.155 HD
BRANCH   7  14
ATOM     11  C   UNL     1      -1.260  -0.754  -0.008  0.00  0.00    +0.017 A 
ATOM     12  C   UNL     1      -1.388  -1.926  -0.764  0.00  0.00    +0.013 A 
ATOM     13  C   UNL     1      -2.567  -2.625  -0.748  0.00  0.00    +0.024 A 
ATOM     14  C   UNL     1      -3.637  -2.171   0.018  0.00  0.00    +0.033 A 
ATOM     15  C   UNL     1      -3.515  -1.006   0.771  0.00  0.00    +0.024 A 
ATOM     16  C   UNL     1      -2.338  -0.304   0.766  0.00  0.00    +0.013 A 
BRANCH  11  18
ATOM     17  C   UNL     1       1.159  -0.489  -0.854  0.00  0.00    +0.091 C 
ATOM     18  C   UNL     1       0.001  -0.003  -0.021  0.00  0.00    +0.160 C 
ATOM     19  O   UNL     1       0.111   1.010   0.638  0.00  0.00    -0.292 OA
ENDBRANCH  11  18
ENDBRANCH   7  14
ENDBRANCH   1   8
BRANCH   4  20
ATOM     20  C   UNL     1      -9.210  -7.577  -1.745  0.00  0.00    +0.109 C 
BRANCH  20  21
ATOM     21  N   UNL     1      -8.924  -8.997  -1.966  0.00  0.00    -0.190 NA
ATOM     22  H   UNL     1      -8.036  -9.277  -2.236  0.00  0.00    +0.148 HD
BRANCH  21  23
ATOM     23  S   UNL     1     -10.118 -10.125  -1.753  0.00  0.00    +0.058 S 
ATOM     24  O   UNL     1      -9.545 -11.387  -2.065  0.00  0.00    -0.153 OA
ATOM     25  O   UNL     1     -10.716  -9.850  -0.494  0.00  0.00    -0.153 OA
BRANCH  23  26
ATOM     26  C   UNL     1     -11.350  -9.816  -2.974  0.00  0.00    +0.106 A 
ATOM     27  C   UNL     1     -12.397  -8.952  -2.706  0.00  0.00    +0.030 A 
ATOM     28  C   UNL     1     -13.346  -8.719  -3.670  0.00  0.00    +0.025 A 
ATOM     29  C   UNL     1     -13.284  -9.343  -4.928  0.00  0.00    +0.037 A 
ATOM     30  C   UNL     1     -12.242 -10.206  -5.188  0.00  0.00    -0.024 A 
ATOM     31  C   UNL     1     -11.276 -10.427  -4.204  0.00  0.00    +0.034 A 
ATOM     32  C   UNL     1     -12.042 -10.956  -6.465  0.00  0.00    +0.037 C 
ATOM     33  C   UNL     1     -13.290 -11.425  -7.146  0.00  0.00    +0.014 C 
ATOM     34  C   UNL     1     -14.015 -10.331  -7.891  0.00  0.00    +0.096 C 
ATOM     35  C   UNL     1     -14.706  -9.394  -6.967  0.00  0.00    +0.217 C 
ATOM     36  O   UNL     1     -15.769  -8.948  -7.345  0.00  0.00    -0.275 OA
ATOM     37  N   UNL     1     -14.295  -8.999  -5.795  0.00  0.00    -0.285 N 
ATOM     38  H   UNL     1     -14.842  -8.278  -5.445  0.00  0.00    +0.155 HD
ENDBRANCH  23  26
ENDBRANCH  21  23
ENDBRANCH  20  21
ENDBRANCH   4  20
TORSDOF 7
