REMARK  Name = ZINC08299565
REMARK  4 active torsions:
REMARK  status: ('A' for Active; 'I' for Inactive)
REMARK    1  A    between atoms: C_4  and  N_7
REMARK    2  A    between atoms: C_14  and  C_17
REMARK    3  A    between atoms: N_19  and  C_20
REMARK    4  A    between atoms: C_28  and  C_30
REMARK                            x       y       z     vdW  Elec       q    Type
REMARK                         _______ _______ _______ _____ _____    ______ ____
ROOT
ATOM      1  N   UNL     1       5.985  -0.492   3.046  0.00  0.00    -0.296 N 
ATOM      2  C   UNL     1       4.654  -0.648   3.191  0.00  0.00    +0.303 C 
ATOM      3  O   UNL     1       4.212  -1.230   4.163  0.00  0.00    -0.253 OA
ATOM      4  N   UNL     1       3.813  -0.160   2.258  0.00  0.00    -0.282 N 
ATOM      5  C   UNL     1       2.368  -0.415   2.347  0.00  0.00    +0.128 C 
ATOM      6  C   UNL     1       1.630   0.935   2.328  0.00  0.00    +0.127 C 
ATOM      7  N   UNL     1       2.142   1.728   1.202  0.00  0.00    -0.287 N 
ATOM      8  C   UNL     1       3.586   1.983   1.113  0.00  0.00    +0.179 C 
ATOM      9  C   UNL     1       4.324   0.638   1.134  0.00  0.00    +0.141 C 
ATOM     10  C   UNL     1       1.300   2.217   0.269  0.00  0.00    +0.219 C 
ATOM     11  O   UNL     1       1.740   2.811  -0.692  0.00  0.00    -0.275 OA
ATOM     12  H   UNL     1       6.334   0.034   2.310  0.00  0.00    +0.151 HD
ENDROOT
BRANCH  10  13
ATOM     13  C   UNL     1      -0.187   2.026   0.422  0.00  0.00    +0.072 C 
ATOM     14  C   UNL     1      -0.684   2.826   1.629  0.00  0.00    -0.007 C 
ATOM     15  C   UNL     1      -2.204   2.677   1.741  0.00  0.00    -0.082 C 
ATOM     16  C   UNL     1      -2.411   2.381  -0.655  0.00  0.00    -0.082 C 
ATOM     17  C   UNL     1      -0.898   2.523  -0.840  0.00  0.00    -0.007 C 
ATOM     18  N   UNL     1      -2.846   3.175   0.510  0.00  0.00    +0.379 N 
ATOM     19  H   UNL     1      -2.586   4.157   0.366  0.00  0.00    -0.086 HD
ATOM     20  H   UNL     1      -3.866   3.102   0.607  0.00  0.00    -0.086 HD
ENDBRANCH  10  13
BRANCH   1  24
ATOM     21  C   UNL     1       9.394  -1.075   5.544  0.00  0.00    +0.000 C 
ATOM     22  C   UNL     1       9.222  -1.989   4.329  0.00  0.00    +0.002 C 
ATOM     23  C   UNL     1       8.262  -1.337   3.332  0.00  0.00    +0.022 C 
ATOM     24  C   UNL     1       6.904  -1.116   4.001  0.00  0.00    +0.074 C 
ATOM     25  C   UNL     1       7.076  -0.202   5.215  0.00  0.00    +0.022 C 
ATOM     26  C   UNL     1       8.036  -0.853   6.213  0.00  0.00    +0.002 C 
ENDBRANCH   1  24
BRANCH   8  27
ATOM     27  C   UNL     1       3.894   2.711  -0.170  0.00  0.00    +0.236 C 
ATOM     28  O   UNL     1       3.804   2.133  -1.232  0.00  0.00    -0.274 OA
ATOM     29  N   UNL     1       4.268   4.005  -0.137  0.00  0.00    -0.302 N 
ATOM     30  H   UNL     1       4.340   4.468   0.713  0.00  0.00    +0.150 HD
BRANCH  29  31
ATOM     31  C   UNL     1       4.567   4.714  -1.384  0.00  0.00    +0.159 C 
ATOM     32  C   UNL     1       4.342   6.214  -1.183  0.00  0.00    +0.033 C 
ATOM     33  C   UNL     1       4.917   6.957  -2.395  0.00  0.00    +0.021 C 
ATOM     34  C   UNL     1       6.439   6.806  -2.385  0.00  0.00    +0.104 C 
ATOM     35  N   UNL     1       6.811   5.405  -2.238  0.00  0.00    -0.314 N 
ATOM     36  C   UNL     1       5.995   4.459  -1.773  0.00  0.00    +0.233 C 
ATOM     37  O   UNL     1       6.429   3.332  -1.657  0.00  0.00    -0.274 OA
ATOM     38  H   UNL     1       7.709   5.144  -2.496  0.00  0.00    +0.149 HD
ENDBRANCH  29  31
ENDBRANCH   8  27
TORSDOF 4
