REMARK  Name = ZINC33021180
REMARK  6 active torsions:
REMARK  status: ('A' for Active; 'I' for Inactive)
REMARK    1  A    between atoms: C_1  and  C_2
REMARK    2  A    between atoms: C_5  and  N_9
REMARK    3  A    between atoms: C_6  and  C_8
REMARK    4  A    between atoms: C_10  and  C_12
REMARK    5  A    between atoms: N_17  and  S_19
REMARK    6  A    between atoms: S_19  and  C_22
REMARK                            x       y       z     vdW  Elec       q    Type
REMARK                         _______ _______ _______ _____ _____    ______ ____
ROOT
ATOM      1  C   UNL     1      -1.323   5.774  -3.539  0.00  0.00    +0.091 C 
ATOM      2  C   UNL     1      -0.077   6.130  -4.354  0.00  0.00    +0.015 C 
ATOM      3  C   UNL     1       1.177   5.773  -3.553  0.00  0.00    +0.018 C 
ATOM      4  C   UNL     1       1.198   6.593  -2.253  0.00  0.00    +0.109 C 
ATOM      5  N   UNL     1      -0.062   6.362  -1.535  0.00  0.00    -0.176 NA
ATOM      6  C   UNL     1      -1.330   6.588  -2.241  0.00  0.00    +0.122 C 
ENDROOT
BRANCH   1   8
ATOM      7  N   UNL     1      -2.766   5.494  -5.529  0.00  0.00    -0.285 N 
ATOM      8  C   UNL     1      -2.558   6.096  -4.341  0.00  0.00    +0.222 C 
ATOM      9  O   UNL     1      -3.364   6.897  -3.919  0.00  0.00    -0.275 OA
ATOM     10  H   UNL     1      -1.993   4.837  -5.955  0.00  0.00    +0.155 HD
BRANCH   7  15
ATOM     11  C   UNL     1      -7.625   6.345  -8.330  0.00  0.00    +0.044 C 
ATOM     12  C   UNL     1      -6.334   6.119  -7.586  0.00  0.00    -0.050 A 
ATOM     13  C   UNL     1      -6.293   6.276  -6.212  0.00  0.00    +0.005 A 
ATOM     14  C   UNL     1      -5.111   6.070  -5.528  0.00  0.00    +0.024 A 
ATOM     15  C   UNL     1      -3.964   5.704  -6.220  0.00  0.00    +0.036 A 
ATOM     16  C   UNL     1      -4.008   5.552  -7.599  0.00  0.00    -0.029 A 
ATOM     17  C   UNL     1      -5.194   5.754  -8.277  0.00  0.00    +0.008 A 
ATOM     18  C   UNL     1      -2.764   5.161  -8.355  0.00  0.00    +0.045 C 
ENDBRANCH   7  15
ENDBRANCH   1   8
BRANCH   5  19
ATOM     19  S   UNL     1      -0.054   5.863   0.044  0.00  0.00    +0.061 S 
ATOM     20  O   UNL     1      -1.296   6.267   0.604  0.00  0.00    -0.153 OA
ATOM     21  O   UNL     1       1.194   6.266   0.591  0.00  0.00    -0.153 OA
BRANCH  19  22
ATOM     22  C   UNL     1      -0.055   4.101   0.034  0.00  0.00    +0.107 A 
ATOM     23  C   UNL     1      -1.254   3.413   0.036  0.00  0.00    +0.032 A 
ATOM     24  C   UNL     1      -1.264   2.030   0.022  0.00  0.00    +0.049 A 
ATOM     25  C   UNL     1      -0.068   1.332   0.018  0.00  0.00    +0.142 A 
ATOM     26  C   UNL     1       1.140   2.026   0.016  0.00  0.00    +0.078 A 
ATOM     27  C   UNL     1       1.143   3.411   0.024  0.00  0.00    +0.055 A 
ATOM     28  N   UNL     1       2.344   1.307   0.007  0.00  0.00    -0.280 N 
ATOM     29  C   UNL     1       2.321  -0.005  -0.314  0.00  0.00    +0.255 C 
ATOM     30  O   UNL     1       3.345  -0.654  -0.299  0.00  0.00    -0.272 OA
ATOM     31  C   UNL     1       1.016  -0.658  -0.692  0.00  0.00    +0.325 C 
ATOM     32  O   UNL     1      -0.059  -0.028   0.009  0.00  0.00    -0.481 OA
ATOM     33  H   UNL     1       3.288   1.812   0.259  0.00  0.00    +0.155 HD
ENDBRANCH  19  22
ENDBRANCH   5  19
TORSDOF 4
