REMARK  Name = ZINC16647038
REMARK  9 active torsions:
REMARK  status: ('A' for Active; 'I' for Inactive)
REMARK    1  A    between atoms: C_1  and  C_2
REMARK    2  A    between atoms: C_2  and  C_3
REMARK    3  A    between atoms: C_3  and  C_4
REMARK    4  A    between atoms: C_4  and  N_5
REMARK    5  A    between atoms: C_6  and  C_8
REMARK    6  A    between atoms: C_8  and  N_9
REMARK    7  A    between atoms: N_11  and  C_32
REMARK    8  A    between atoms: C_20  and  C_22
REMARK    9  A    between atoms: C_25  and  N_29
REMARK                            x       y       z     vdW  Elec       q    Type
REMARK                         _______ _______ _______ _____ _____    ______ ____
ROOT
ATOM      1  N   UNL     1       4.336   7.505   2.206  0.00  0.00    -0.275 N 
ATOM      2  C   UNL     1       4.400   6.047   2.044  0.00  0.00    +0.217 C 
ATOM      3  N   UNL     1       3.908   5.762   0.676  0.00  0.00    -0.300 N 
ATOM      4  C   UNL     1       3.012   6.904   0.398  0.00  0.00    +0.115 C 
ATOM      5  C   UNL     1       3.525   8.029   1.264  0.00  0.00    +0.241 C 
ATOM      6  O   UNL     1       3.254   9.204   1.134  0.00  0.00    -0.273 OA
ATOM      7  C   UNL     1       1.579   6.549   0.781  0.00  0.00    +0.054 C 
ATOM      8  C   UNL     1       0.670   7.758   0.533  0.00  0.00    +0.110 C 
ATOM      9  N   UNL     1       0.845   8.201  -0.858  0.00  0.00    -0.297 N 
ATOM     10  C   UNL     1       2.200   8.502  -1.340  0.00  0.00    +0.110 C 
ATOM     11  C   UNL     1       3.096   7.287  -1.077  0.00  0.00    +0.054 C 
ATOM     12  C   UNL     1      -0.219   8.330  -1.675  0.00  0.00    +0.248 C 
ATOM     13  O   UNL     1      -1.343   8.164  -1.242  0.00  0.00    -0.270 OA
ENDROOT
BRANCH  12  14
ATOM     14  C   UNL     1      -0.020   8.672  -3.099  0.00  0.00    +0.055 A 
ATOM     15  C   UNL     1       1.092   8.185  -3.788  0.00  0.00    +0.017 A 
ATOM     16  C   UNL     1       1.273   8.509  -5.117  0.00  0.00    +0.033 A 
ATOM     17  C   UNL     1       0.354   9.314  -5.767  0.00  0.00    +0.128 A 
ATOM     18  C   UNL     1      -0.750   9.801  -5.092  0.00  0.00    +0.053 A 
ATOM     19  C   UNL     1      -0.946   9.481  -3.762  0.00  0.00    +0.055 A 
ATOM     20 CL   UNL     1      -2.336  10.086  -2.917  0.00  0.00    -0.083 Cl
BRANCH  17  21
ATOM     21  N   UNL     1       0.555   9.656  -7.194  0.00  0.00    +0.056 N 
ATOM     22  O   UNL     1       1.526   9.229  -7.792  0.00  0.00    -0.126 OA
ATOM     23  O   UNL     1      -0.252  10.365  -7.769  0.00  0.00    -0.126 OA
ENDBRANCH  17  21
ENDBRANCH  12  14
BRANCH   3  24
ATOM     24  C   UNL     1       3.206   4.555   0.638  0.00  0.00    +0.032 A 
ATOM     25  C   UNL     1       2.514   4.188  -0.509  0.00  0.00    +0.023 A 
ATOM     26  C   UNL     1       1.821   2.993  -0.543  0.00  0.00    +0.002 A 
ATOM     27  C   UNL     1       1.812   2.166   0.565  0.00  0.00    +0.000 A 
ATOM     28  C   UNL     1       2.505   2.525   1.706  0.00  0.00    +0.002 A 
ATOM     29  C   UNL     1       3.200   3.718   1.747  0.00  0.00    +0.023 A 
ENDBRANCH   3  24
BRANCH   1  30
ATOM     30  C   UNL     1       5.044   8.273   3.233  0.00  0.00    +0.205 C 
BRANCH  30  32
ATOM     31  N   UNL     1       4.625   9.060   5.541  0.00  0.00    -0.314 N 
ATOM     32  C   UNL     1       4.177   8.391   4.460  0.00  0.00    +0.230 C 
ATOM     33  O   UNL     1       3.075   7.883   4.474  0.00  0.00    -0.274 OA
ATOM     34  H   UNL     1       5.506   9.466   5.529  0.00  0.00    +0.149 HD
BRANCH  31  35
ATOM     35  C   UNL     1       3.781   9.175   6.733  0.00  0.00    +0.104 C 
BRANCH  35  36
ATOM     36  C   UNL     1       4.521   9.976   7.806  0.00  0.00    +0.018 C 
BRANCH  36  38
ATOM     37  C   UNL     1       4.379  10.898  10.124  0.00  0.00    +0.004 C 
ATOM     38  C   UNL     1       3.640  10.096   9.051  0.00  0.00    -0.002 C 
ENDBRANCH  36  38
ENDBRANCH  35  36
ENDBRANCH  31  35
ENDBRANCH  30  32
ENDBRANCH   1  30
TORSDOF 8
