REMARK  Name = ZINC43666781
REMARK  6 active torsions:
REMARK  status: ('A' for Active; 'I' for Inactive)
REMARK    1  A    between atoms: C_1  and  C_2
REMARK    2  A    between atoms: C_5  and  C_11
REMARK    3  A    between atoms: C_7  and  N_8
REMARK    4  A    between atoms: C_11  and  C_13
REMARK    5  A    between atoms: C_11  and  N_14
REMARK    6  A    between atoms: C_15  and  N_20
REMARK                            x       y       z     vdW  Elec       q    Type
REMARK                         _______ _______ _______ _____ _____    ______ ____
ROOT
ATOM      1  C   UNL     1       0.578  -4.220  -0.099  0.00  0.00    +0.136 C 
ATOM      2  C   UNL     1      -0.667  -4.968  -0.581  0.00  0.00    +0.038 C 
ENDROOT
BRANCH   1   7
ATOM      3  C   UNL     1      -0.537   1.447   0.088  0.00  0.00    +0.046 C 
ATOM      4  C   UNL     1      -0.246  -0.031   0.039  0.00  0.00    -0.020 A 
ATOM      5  C   UNL     1      -0.347  -0.716  -1.157  0.00  0.00    +0.006 A 
ATOM      6  C   UNL     1      -0.080  -2.071  -1.202  0.00  0.00    +0.006 A 
ATOM      7  C   UNL     1       0.288  -2.742  -0.051  0.00  0.00    -0.021 A 
ATOM      8  C   UNL     1       0.390  -2.057   1.145  0.00  0.00    +0.038 A 
ATOM      9  C   UNL     1       0.127  -0.700   1.190  0.00  0.00    +0.129 A 
BRANCH   9  10
ATOM     10  N   UNL     1       0.241   0.035   2.470  0.00  0.00    +0.057 N 
ATOM     11  O   UNL     1       0.674   1.163   2.482  0.00  0.00    -0.126 OA
ATOM     12  O   UNL     1      -0.099  -0.494   3.502  0.00  0.00    -0.126 OA
ENDBRANCH   9  10
ENDBRANCH   1   7
BRANCH   1  13
ATOM     13  N   UNL     1       1.686  -4.470  -1.024  0.00  0.00    -0.243 N 
ATOM     14  C   UNL     1       2.873  -5.051  -0.712  0.00  0.00    +0.128 A 
ATOM     15  C   UNL     1       3.619  -5.096  -1.851  0.00  0.00    +0.072 A 
ATOM     16  C   UNL     1       2.864  -4.526  -2.880  0.00  0.00    +0.150 A 
ATOM     17  N   UNL     1       1.708  -4.157  -2.389  0.00  0.00    -0.176 NA
ATOM     18  I   UNL     1       5.554  -5.878  -2.028  0.00  0.00    -0.039 I 
BRANCH  14  19
ATOM     19  N   UNL     1       3.257  -5.517   0.543  0.00  0.00    -0.342 N 
ATOM     20  H   UNL     1       2.651  -5.439   1.296  0.00  0.00    +0.144 HD
ATOM     21  H   UNL     1       4.132  -5.919   0.664  0.00  0.00    +0.144 HD
ENDBRANCH  14  19
ENDBRANCH   1  13
TORSDOF 4
