REMARK  Name = ZINC39664559
REMARK  11 active torsions:
REMARK  status: ('A' for Active; 'I' for Inactive)
REMARK    1  A    between atoms: C_1  and  C_2
REMARK    2  A    between atoms: C_2  and  O_4
REMARK    3  A    between atoms: O_4  and  C_5
REMARK    4  A    between atoms: C_10  and  C_11
REMARK    5  A    between atoms: C_15  and  C_24
REMARK    6  A    between atoms: N_26  and  C_27
REMARK    7  A    between atoms: C_27  and  C_29
REMARK    8  A    between atoms: C_27  and  C_33
REMARK    9  A    between atoms: C_29  and  N_30
REMARK   10  A    between atoms: N_30  and  C_31
REMARK   11  A    between atoms: N_30  and  C_32
REMARK                            x       y       z     vdW  Elec       q    Type
REMARK                         _______ _______ _______ _____ _____    ______ ____
ROOT
ATOM      1  C   UNL     1      -3.212  -2.155   1.255  0.00  0.00    +0.250 C 
ATOM      2  O   UNL     1      -3.300  -0.953   1.413  0.00  0.00    -0.270 OA
ATOM      3  N   UNL     1      -4.327  -2.902   1.127  0.00  0.00    -0.296 N 
ATOM      4  C   UNL     1      -4.421  -4.353   0.842  0.00  0.00    +0.121 C 
ATOM      5  C   UNL     1      -5.582  -4.851   1.730  0.00  0.00    +0.100 C 
ATOM      6  C   UNL     1      -6.443  -3.603   1.987  0.00  0.00    -0.004 C 
ATOM      7  C   UNL     1      -5.736  -2.458   1.248  0.00  0.00    +0.115 C 
ATOM      8  C   UNL     1      -6.502  -3.301   3.482  0.00  0.00    -0.010 C 
ATOM      9  C   UNL     1      -7.409  -2.090   3.717  0.00  0.00    -0.082 C 
ATOM     10  N   UNL     1      -8.754  -2.376   3.202  0.00  0.00    +0.379 N 
ATOM     11  C   UNL     1      -8.701  -2.574   1.748  0.00  0.00    -0.082 C 
ATOM     12  C   UNL     1      -7.848  -3.805   1.429  0.00  0.00    -0.010 C 
ATOM     13  H   UNL     1      -9.110  -3.211   3.641  0.00  0.00    -0.086 HD
ATOM     14  H   UNL     1      -9.365  -1.601   3.413  0.00  0.00    -0.086 HD
ENDROOT
BRANCH   1  20
ATOM     15  C   UNL     1      -0.851  -2.349   2.035  0.00  0.00    +0.144 A 
ATOM     16  C   UNL     1       0.391  -2.963   1.982  0.00  0.00    +0.047 A 
ATOM     17  C   UNL     1       0.609  -4.009   1.107  0.00  0.00    +0.004 A 
ATOM     18  C   UNL     1      -0.408  -4.452   0.278  0.00  0.00    +0.001 A 
ATOM     19  C   UNL     1      -1.649  -3.852   0.318  0.00  0.00    +0.017 A 
ATOM     20  C   UNL     1      -1.884  -2.797   1.202  0.00  0.00    +0.079 A 
BRANCH  15  21
ATOM     21  O   UNL     1      -1.066  -1.321   2.895  0.00  0.00    -0.425 OA
BRANCH  21  23
ATOM     22  C   UNL     1      -1.741  -0.516   5.130  0.00  0.00    +0.136 C 
ATOM     23  C   UNL     1      -1.589  -1.604   4.099  0.00  0.00    +0.309 C 
ATOM     24  O   UNL     1      -1.937  -2.732   4.356  0.00  0.00    -0.251 OA
ENDBRANCH  21  23
ENDBRANCH  15  21
ENDBRANCH   1  20
BRANCH   5  25
ATOM     25  C   UNL     1      -6.383  -5.903   1.006  0.00  0.00    +0.219 C 
ATOM     26  O   UNL     1      -6.400  -5.924  -0.207  0.00  0.00    -0.275 OA
ATOM     27  N   UNL     1      -7.079  -6.821   1.706  0.00  0.00    -0.310 N 
ATOM     28  H   UNL     1      -7.122  -6.763   2.673  0.00  0.00    +0.149 HD
BRANCH  27  29
ATOM     29  C   UNL     1      -7.771  -7.905   1.005  0.00  0.00    +0.087 C 
BRANCH  29  30
ATOM     30  C   UNL     1      -9.078  -8.196   1.697  0.00  0.00    -0.029 A 
ATOM     31  C   UNL     1      -9.148  -8.182   3.077  0.00  0.00    +0.005 A 
ATOM     32  C   UNL     1     -10.347  -8.449   3.712  0.00  0.00    +0.000 A 
ATOM     33  C   UNL     1     -11.476  -8.730   2.965  0.00  0.00    +0.000 A 
ATOM     34  C   UNL     1     -11.406  -8.743   1.585  0.00  0.00    +0.000 A 
ATOM     35  C   UNL     1     -10.209  -8.472   0.950  0.00  0.00    +0.005 A 
ENDBRANCH  29  30
BRANCH  29  36
ATOM     36  C   UNL     1      -6.896  -9.161   1.019  0.00  0.00    -0.052 C 
BRANCH  36  37
ATOM     37  N   UNL     1      -5.607  -8.865   0.381  0.00  0.00    +0.377 N 
ATOM     38  C   UNL     1      -4.719 -10.028   0.511  0.00  0.00    -0.097 C 
ATOM     39  C   UNL     1      -5.820  -8.569  -1.042  0.00  0.00    -0.097 C 
ATOM     40  H   UNL     1      -5.184  -8.067   0.831  0.00  0.00    -0.083 HD
ENDBRANCH  36  37
ENDBRANCH  29  36
ENDBRANCH  27  29
ENDBRANCH   5  25
TORSDOF 8
