REMARK  Name = ZINC32719018
REMARK  3 active torsions:
REMARK  status: ('A' for Active; 'I' for Inactive)
REMARK    1  A    between atoms: C_6  and  C_7
REMARK    2  A    between atoms: C_13  and  C_15
REMARK    3  A    between atoms: C_15  and  N_16
REMARK                            x       y       z     vdW  Elec       q    Type
REMARK                         _______ _______ _______ _____ _____    ______ ____
ROOT
ATOM      1  C   UNL     1       1.398   4.474  -4.474  0.00  0.00    +0.106 C 
ATOM      2  C   UNL     1       2.887   4.757  -4.181  0.00  0.00    +0.029 C 
ATOM      3  C   UNL     1       3.250   5.832  -5.239  0.00  0.00    +0.021 C 
ATOM      4  C   UNL     1       1.935   6.646  -5.320  0.00  0.00    +0.108 C 
ATOM      5  N   UNL     1       0.862   5.645  -5.183  0.00  0.00    -0.293 N 
ATOM      6  C   UNL     1      -0.401   5.781  -5.631  0.00  0.00    +0.234 C 
ATOM      7  O   UNL     1      -1.205   4.888  -5.461  0.00  0.00    -0.274 OA
ENDROOT
BRANCH   1  13
ATOM      8  C   UNL     1       0.296   5.363  -2.412  0.00  0.00    +0.009 A 
ATOM      9  C   UNL     1      -0.389   5.184  -1.223  0.00  0.00    +0.050 A 
ATOM     10  C   UNL     1      -0.719   3.906  -0.806  0.00  0.00    +0.162 A 
ATOM     11  C   UNL     1      -0.362   2.809  -1.579  0.00  0.00    +0.162 A 
ATOM     12  C   UNL     1       0.324   2.991  -2.767  0.00  0.00    +0.055 A 
ATOM     13  C   UNL     1       0.651   4.271  -3.181  0.00  0.00    -0.023 A 
ATOM     14  O   UNL     1      -0.692   1.553  -1.159  0.00  0.00    -0.488 OA
ATOM     15  C   UNL     1      -0.013   1.086   0.008  0.00  0.00    +0.232 C 
ATOM     16  C   UNL     1      -0.712   1.570   1.269  0.00  0.00    +0.082 C 
ATOM     17  C   UNL     1      -0.662   3.083   1.414  0.00  0.00    +0.232 C 
ATOM     18  O   UNL     1      -1.395   3.716   0.363  0.00  0.00    -0.488 OA
ENDBRANCH   1  13
BRANCH   6  19
ATOM     19  C   UNL     1      -0.816   7.042  -6.345  0.00  0.00    +0.213 C 
BRANCH  19  20
ATOM     20  N   UNL     1      -2.226   6.944  -6.730  0.00  0.00    -0.215 N 
ATOM     21  C   UNL     1      -2.658   6.445  -7.907  0.00  0.00    +0.247 C 
ATOM     22  O   UNL     1      -1.980   6.008  -8.812  0.00  0.00    -0.273 OA
ATOM     23  C   UNL     1      -4.164   6.541  -7.856  0.00  0.00    +0.113 C 
ATOM     24  C   UNL     1      -4.708   7.372  -8.983  0.00  0.00    +0.035 C 
ATOM     25  C   UNL     1      -5.927   8.214  -8.550  0.00  0.00    +0.003 C 
ATOM     26  C   UNL     1      -6.898   7.433  -7.642  0.00  0.00    +0.000 C 
ATOM     27  C   UNL     1      -7.107   6.017  -8.105  0.00  0.00    +0.000 C 
ATOM     28  C   UNL     1      -6.124   5.103  -7.345  0.00  0.00    +0.003 C 
ATOM     29  C   UNL     1      -4.785   5.132  -7.917  0.00  0.00    +0.035 C 
ATOM     30  N   UNL     1      -4.441   7.146  -6.547  0.00  0.00    -0.285 N 
ATOM     31  C   UNL     1      -3.246   7.345  -5.960  0.00  0.00    +0.310 C 
ATOM     32  O   UNL     1      -3.108   7.832  -4.855  0.00  0.00    -0.252 OA
ATOM     33  H   UNL     1      -5.480   7.342  -6.241  0.00  0.00    +0.151 HD
ENDBRANCH  19  20
ENDBRANCH   6  19
TORSDOF 3
