REMARK  Name = ZINC12368511
REMARK  5 active torsions:
REMARK  status: ('A' for Active; 'I' for Inactive)
REMARK    1  A    between atoms: C_1  and  C_2
REMARK    2  A    between atoms: C_2  and  C_15
REMARK    3  A    between atoms: N_3  and  N_4
REMARK    4  A    between atoms: C_9  and  C_12
REMARK    5  A    between atoms: C_12  and  C_13
REMARK                            x       y       z     vdW  Elec       q    Type
REMARK                         _______ _______ _______ _____ _____    ______ ____
ROOT
ATOM      1  N   UNL     1       4.769   0.633  -3.303  0.00  0.00    -0.126 NA
ATOM      2  C   UNL     1       4.094   0.890  -2.202  0.00  0.00    +0.183 C 
ATOM      3  N   UNL     1       4.356   1.849  -1.247  0.00  0.00    -0.263 N 
ATOM      4  C   UNL     1       3.596   2.008  -0.177  0.00  0.00    +0.233 C 
ATOM      5  O   UNL     1       3.831   2.853   0.660  0.00  0.00    -0.274 OA
ATOM      6  C   UNL     1       2.409   1.065  -0.061  0.00  0.00    +0.151 C 
ATOM      7  S   UNL     1       2.622   0.076  -1.594  0.00  0.00    -0.075 S 
ATOM      8  H   UNL     1       5.125   2.427  -1.364  0.00  0.00    +0.157 HD
ENDROOT
BRANCH   1  11
ATOM      9  C   UNL     1       4.516  -1.563  -6.180  0.00  0.00    +0.068 C 
ATOM     10  C   UNL     1       5.049  -0.565  -5.184  0.00  0.00    +0.068 C 
ATOM     11  N   UNL     1       4.380  -0.310  -4.093  0.00  0.00    -0.152 NA
BRANCH  10  12
ATOM     12  C   UNL     1       6.324   0.123  -5.443  0.00  0.00    -0.002 A 
ATOM     13  C   UNL     1       6.690   0.457  -6.751  0.00  0.00    +0.011 A 
ATOM     14  C   UNL     1       7.884   1.105  -6.985  0.00  0.00    +0.016 A 
ATOM     15  C   UNL     1       8.725   1.417  -5.930  0.00  0.00    +0.018 A 
ATOM     16  C   UNL     1       8.372   1.084  -4.633  0.00  0.00    +0.016 A 
ATOM     17  C   UNL     1       7.179   0.440  -4.383  0.00  0.00    +0.011 A 
ATOM     18 BR   UNL     1      10.364   2.300  -6.262  0.00  0.00    -0.050 Br
ENDBRANCH  10  12
ENDBRANCH   1  11
BRANCH   6  19
ATOM     19  C   UNL     1       1.087   1.835  -0.078  0.00  0.00    +0.149 C 
BRANCH  19  20
ATOM     20  C   UNL     1      -0.059   0.867   0.068  0.00  0.00    +0.358 C 
ATOM     21  O   UNL     1       0.159  -0.317   0.174  0.00  0.00    -0.246 OA
ATOM     22  O   UNL     1      -1.323   1.319   0.074  0.00  0.00    -0.246 OA
ENDBRANCH  19  20
ENDBRANCH   6  19
TORSDOF 4
