REMARK  Name = ZINC02098416
REMARK  9 active torsions:
REMARK  status: ('A' for Active; 'I' for Inactive)
REMARK    1  A    between atoms: CG1_1  and  CB_2
REMARK    2  A    between atoms: CB_2  and  CG2_4
REMARK    3  A    between atoms: CB_2  and  CA_5
REMARK    4  A    between atoms: CA_5  and  C_7
REMARK    5  A    between atoms: CA_5  and  N_9
REMARK    6  A    between atoms: C_10  and  C_12
REMARK    7  A    between atoms: C_12  and  C_14
REMARK    8  A    between atoms: C_12  and  O_15
REMARK    9  A    between atoms: O_15  and  C_16
REMARK                            x       y       z     vdW  Elec       q    Type
REMARK                         _______ _______ _______ _____ _____    ______ ____
ROOT
ATOM      1  C   UNK A   0       6.259   5.061   2.695  0.00  0.00    +0.125 A 
ATOM      2  C   UNK A   0       6.825   5.161   3.965  0.00  0.00    +0.046 A 
ATOM      3  C   UNK A   0       7.868   6.012   4.192  0.00  0.00    +0.015 A 
ATOM      4  C   UNK A   0       8.365   6.796   3.144  0.00  0.00    +0.021 A 
ATOM      5  C   UNK A   0       7.795   6.703   1.863  0.00  0.00    +0.143 A 
ATOM      6  C   UNK A   0       6.739   5.829   1.647  0.00  0.00    +0.092 A 
ATOM      7  O   UNK A   0       8.280   7.465   0.860  0.00  0.00    -0.422 OA
ATOM      8  C   UNK A   0       9.300   8.309   1.057  0.00  0.00    +0.341 A 
ATOM      9  O   UNK A   0       9.702   8.977   0.121  0.00  0.00    -0.245 OA
ATOM     10  C   UNK A   0       9.928   8.452   2.320  0.00  0.00    +0.041 A 
ATOM     11  C   UNK A   0       9.483   7.722   3.366  0.00  0.00    -0.027 A 
ATOM     12  C   UNK A   0      10.072   7.819   4.746  0.00  0.00    +0.036 C 
ATOM     13  C   UNK A   0      11.453   8.471   4.697  0.00  0.00    +0.005 C 
ATOM     14  C   UNK A   0      11.342   9.773   3.894  0.00  0.00    +0.005 C 
ATOM     15  C   UNK A   0      11.079   9.415   2.433  0.00  0.00    +0.042 C 
ENDROOT
BRANCH   1  16
ATOM     16  O   UNK A   0       5.226   4.206   2.485  0.00  0.00    -0.480 OA
BRANCH  16  17
ATOM     17  C   UNK A   0       4.608   4.240   1.197  0.00  0.00    +0.255 C 
ATOM     18  C   UNK A   0       5.390   3.346   0.232  0.00  0.00    +0.062 C 
BRANCH  17  20
ATOM     19  N   VAL A   1       2.378   3.778   0.232  0.00  0.00    -0.299 N 
ATOM     20  C   UNK A   0       3.190   3.741   1.306  0.00  0.00    +0.254 C 
ATOM     21  O   UNK A   0       2.780   3.306   2.362  0.00  0.00    -0.272 OA
ATOM     22  H   VAL A   1       2.705   4.126  -0.612  0.00  0.00    +0.150 HD
BRANCH  19  23
ATOM     23  CA  VAL A   1       1.000   3.293   0.338  0.00  0.00    +0.189 C 
BRANCH  23  25
ATOM     24  CG1 VAL A   1      -1.326   3.563  -0.534  0.00  0.00    +0.009 C 
ATOM     25  CB  VAL A   1       0.135   3.974  -0.724  0.00  0.00    +0.014 C 
ATOM     26  CG2 VAL A   1       0.608   3.549  -2.116  0.00  0.00    +0.009 C 
ENDBRANCH  23  25
BRANCH  23  27
ATOM     27  C   VAL A   1       0.974   1.801   0.126  0.00  0.00    +0.376 C 
ATOM     28  O   VAL A   1       2.002   1.205  -0.093  0.00  0.00    -0.244 OA
ATOM     29  OXT VAL A   1      -0.190   1.135   0.178  0.00  0.00    -0.244 OA
ENDBRANCH  23  27
ENDBRANCH  19  23
ENDBRANCH  17  20
ENDBRANCH  16  17
ENDBRANCH   1  16
TORSDOF 6
