REMARK  Name = ZINC63478605
REMARK  10 active torsions:
REMARK  status: ('A' for Active; 'I' for Inactive)
REMARK    1  A    between atoms: C_1  and  C_2
REMARK    2  A    between atoms: C_2  and  C_4
REMARK    3  A    between atoms: C_2  and  S_21
REMARK    4  A    between atoms: N_6  and  C_7
REMARK    5  A    between atoms: C_7  and  C_9
REMARK    6  A    between atoms: C_7  and  C_18
REMARK    7  A    between atoms: C_18  and  C_19
REMARK    8  A    between atoms: C_18  and  C_20
REMARK    9  A    between atoms: S_21  and  C_22
REMARK   10  A    between atoms: N_27  and  C_28
REMARK                            x       y       z     vdW  Elec       q    Type
REMARK                         _______ _______ _______ _____ _____    ______ ____
ROOT
ATOM      1  C   UNL     1       1.174  -1.171  -1.375  0.00  0.00    +0.226 C 
ATOM      2  O   UNL     1       2.360  -1.369  -1.535  0.00  0.00    -0.275 OA
ATOM      3  N   UNL     1       0.362  -1.039  -2.443  0.00  0.00    -0.308 N 
ATOM      4  H   UNL     1      -0.586  -0.880  -2.315  0.00  0.00    +0.149 HD
ENDROOT
BRANCH   1   6
ATOM      5  C   UNL     1       0.421   0.400   0.390  0.00  0.00    +0.029 C 
ATOM      6  C   UNL     1       0.608  -1.072   0.018  0.00  0.00    +0.132 C 
BRANCH   6   7
ATOM      7  S   UNL     1       1.750  -1.853   1.192  0.00  0.00    -0.104 S 
BRANCH   7   8
ATOM      8  C   UNL     1       0.866  -1.787   2.774  0.00  0.00    +0.261 C 
ATOM      9  N   UNL     1      -0.452  -2.442   2.663  0.00  0.00    -0.218 N 
ATOM     10  N   UNL     1      -1.398  -1.447   2.935  0.00  0.00    -0.063 NA
ATOM     11  N   UNL     1      -0.884  -0.358   3.177  0.00  0.00    -0.056 NA
ATOM     12  N   UNL     1       0.518  -0.396   3.121  0.00  0.00    -0.174 N 
ATOM     13  H   UNL     1      -0.626  -3.371   2.447  0.00  0.00    +0.173 HD
BRANCH  12  14
ATOM     14  C   UNL     1       1.402   0.660   3.346  0.00  0.00    +0.056 A 
ATOM     15  C   UNL     1       2.773   0.455   3.245  0.00  0.00    +0.025 A 
ATOM     16  C   UNL     1       3.644   1.503   3.469  0.00  0.00    +0.002 A 
ATOM     17  C   UNL     1       3.155   2.755   3.793  0.00  0.00    +0.000 A 
ATOM     18  C   UNL     1       1.791   2.962   3.895  0.00  0.00    +0.002 A 
ATOM     19  C   UNL     1       0.913   1.921   3.667  0.00  0.00    +0.025 A 
ENDBRANCH  12  14
ENDBRANCH   7   8
ENDBRANCH   6   7
ENDBRANCH   1   6
BRANCH   3  20
ATOM     20  C   UNL     1       0.913  -1.135  -3.797  0.00  0.00    +0.118 C 
BRANCH  20  21
ATOM     21  C   UNL     1      -0.188  -1.572  -4.766  0.00  0.00    +0.195 C 
ATOM     22  N   UNL     1      -0.642  -2.928  -4.433  0.00  0.00    -0.362 N 
ATOM     23  C   UNL     1      -0.410  -3.682  -5.468  0.00  0.00    +0.060 A 
ATOM     24  C   UNL     1      -0.641  -5.108  -5.738  0.00  0.00    +0.027 A 
ATOM     25  C   UNL     1      -0.290  -5.625  -6.932  0.00  0.00    +0.002 A 
ATOM     26  C   UNL     1       0.298  -4.852  -7.949  0.00  0.00    +0.002 A 
ATOM     27  C   UNL     1       0.554  -3.537  -7.806  0.00  0.00    +0.027 A 
ATOM     28  C   UNL     1       0.212  -2.864  -6.545  0.00  0.00    +0.060 A 
ATOM     29  N   UNL     1       0.340  -1.636  -6.134  0.00  0.00    -0.362 N 
ATOM     30  H   UNL     1      -1.042  -3.210  -3.596  0.00  0.00    +0.162 HD
ATOM     31  H   UNL     1       0.716  -0.898  -6.639  0.00  0.00    +0.162 HD
ENDBRANCH  20  21
BRANCH  20  32
ATOM     32  C   UNL     1       1.455   0.231  -4.225  0.00  0.00    +0.007 C 
ATOM     33  C   UNL     1       0.358   1.286  -4.074  0.00  0.00    +0.009 C 
ATOM     34  C   UNL     1       2.648   0.605  -3.342  0.00  0.00    +0.009 C 
ENDBRANCH  20  32
ENDBRANCH   3  20
TORSDOF 7
