REMARK  Name = ZINC13126821
REMARK  10 active torsions:
REMARK  status: ('A' for Active; 'I' for Inactive)
REMARK    1  A    between atoms: C_1  and  C_2
REMARK    2  A    between atoms: C_2  and  C_3
REMARK    3  A    between atoms: C_2  and  C_4
REMARK    4  A    between atoms: C_2  and  C_5
REMARK    5  A    between atoms: C_8  and  C_11
REMARK    6  A    between atoms: C_14  and  S_21
REMARK    7  A    between atoms: N_15  and  C_16
REMARK    8  A    between atoms: S_21  and  C_22
REMARK    9  A    between atoms: C_22  and  C_23
REMARK   10  A    between atoms: C_29  and  C_32
REMARK                            x       y       z     vdW  Elec       q    Type
REMARK                         _______ _______ _______ _____ _____    ______ ____
ROOT
ATOM      1  C   UNL     1      -0.007   0.009  -0.018  0.00  0.00    +0.165 A 
ATOM      2  N   UNL     1       1.206  -0.329   0.352  0.00  0.00    -0.128 NA
ATOM      3  N   UNL     1       1.994   0.680   0.244  0.00  0.00    -0.122 NA
ATOM      4  C   UNL     1       1.332   1.724  -0.202  0.00  0.00    +0.193 A 
ATOM      5  N   UNL     1       0.036   1.334  -0.385  0.00  0.00    -0.299 N 
ENDROOT
BRANCH   1   9
ATOM      6  C   UNL     1      -3.423  -2.515  -0.076  0.00  0.00    -0.042 A 
ATOM      7  C   UNL     1      -2.168  -3.050  -0.307  0.00  0.00    +0.005 A 
ATOM      8  C   UNL     1      -1.055  -2.235  -0.290  0.00  0.00    +0.012 A 
ATOM      9  C   UNL     1      -1.196  -0.870  -0.039  0.00  0.00    +0.019 A 
ATOM     10  C   UNL     1      -2.465  -0.338   0.200  0.00  0.00    +0.012 A 
ATOM     11  C   UNL     1      -3.571  -1.162   0.174  0.00  0.00    +0.005 A 
BRANCH   6  13
ATOM     12  C   UNL     1      -4.488  -4.492   0.977  0.00  0.00    +0.015 C 
ATOM     13  C   UNL     1      -4.635  -3.410  -0.096  0.00  0.00    -0.013 C 
ATOM     14  C   UNL     1      -5.888  -2.579   0.187  0.00  0.00    +0.015 C 
ATOM     15  C   UNL     1      -4.760  -4.070  -1.471  0.00  0.00    +0.015 C 
ENDBRANCH   6  13
ENDBRANCH   1   9
BRANCH   5  16
ATOM     16  C   UNL     1      -1.074   2.154  -0.875  0.00  0.00    +0.091 C 
ATOM     17  C   UNL     1      -0.692   2.815  -2.215  0.00  0.00    +0.025 C 
ATOM     18  C   UNL     1      -1.342   4.220  -2.144  0.00  0.00    +0.002 C 
ATOM     19  C   UNL     1      -1.143   4.614  -0.659  0.00  0.00    +0.002 C 
ATOM     20  C   UNL     1      -1.362   3.297   0.114  0.00  0.00    +0.025 C 
ENDBRANCH   5  16
BRANCH   4  21
ATOM     21  S   UNL     1       1.994   3.329  -0.508  0.00  0.00    -0.077 S 
BRANCH  21  22
ATOM     22  C   UNL     1       3.720   3.052  -0.038  0.00  0.00    +0.173 C 
BRANCH  22  23
ATOM     23  C   UNL     1       4.501   4.327  -0.223  0.00  0.00    +0.226 C 
ATOM     24  O   UNL     1       3.946   5.324  -0.632  0.00  0.00    -0.275 OA
ATOM     25  N   UNL     1       5.817   4.359   0.066  0.00  0.00    -0.300 N 
ATOM     26  C   UNL     1       6.504   3.158   0.563  0.00  0.00    +0.108 C 
ATOM     27  C   UNL     1       7.721   2.883  -0.326  0.00  0.00    +0.020 C 
ATOM     28  C   UNL     1       8.601   4.133  -0.380  0.00  0.00    +0.016 C 
ATOM     29  C   UNL     1       7.809   5.292  -0.991  0.00  0.00    +0.092 C 
ATOM     30  C   UNL     1       6.594   5.592  -0.115  0.00  0.00    +0.120 C 
BRANCH  29  31
ATOM     31  C   UNL     1       8.687   6.514  -1.073  0.00  0.00    +0.215 C 
ATOM     32  O   UNL     1       9.834   6.464  -0.681  0.00  0.00    -0.276 OA
ATOM     33  N   UNL     1       8.198   7.662  -1.582  0.00  0.00    -0.329 N 
ATOM     34  H   UNL     1       7.280   7.702  -1.895  0.00  0.00    +0.145 HD
ATOM     35  H   UNL     1       8.763   8.448  -1.635  0.00  0.00    +0.145 HD
ENDBRANCH  29  31
ENDBRANCH  22  23
ENDBRANCH  21  22
ENDBRANCH   4  21
TORSDOF 7
