REMARK  Name = ZINC12564805
REMARK  11 active torsions:
REMARK  status: ('A' for Active; 'I' for Inactive)
REMARK    1  A    between atoms: C_1  and  C_2
REMARK    2  A    between atoms: C_2  and  C_4
REMARK    3  A    between atoms: C_2  and  O_13
REMARK    4  A    between atoms: N_6  and  C_7
REMARK    5  A    between atoms: C_7  and  C_8
REMARK    6  A    between atoms: O_13  and  C_14
REMARK    7  A    between atoms: C_14  and  C_16
REMARK    8  A    between atoms: C_19  and  N_22
REMARK    9  A    between atoms: N_22  and  S_23
REMARK   10  A    between atoms: S_23  and  C_26
REMARK   11  A    between atoms: C_28  and  N_33
REMARK                            x       y       z     vdW  Elec       q    Type
REMARK                         _______ _______ _______ _____ _____    ______ ____
ROOT
ATOM      1  C   UNL     1      -7.268   5.346   1.984  0.00  0.00    +0.059 A 
ATOM      2  C   UNL     1      -8.026   4.273   2.465  0.00  0.00    +0.017 A 
ATOM      3  C   UNL     1      -7.580   2.988   2.290  0.00  0.00    +0.025 A 
ATOM      4  C   UNL     1      -6.375   2.750   1.634  0.00  0.00    +0.048 A 
ATOM      5  C   UNL     1      -5.616   3.816   1.159  0.00  0.00    +0.025 A 
ATOM      6  C   UNL     1      -6.058   5.103   1.325  0.00  0.00    +0.017 A 
ENDROOT
BRANCH   1   7
ATOM      7  C   UNL     1      -7.743   6.728   2.170  0.00  0.00    +0.340 C 
ATOM      8  O   UNL     1      -8.794   6.937   2.742  0.00  0.00    -0.245 OA
BRANCH   7   9
ATOM      9  O   UNL     1      -7.012   7.760   1.706  0.00  0.00    -0.449 OA
BRANCH   9  11
ATOM     10  C   UNL     1      -8.427   9.492   0.743  0.00  0.00    +0.062 C 
ATOM     11  C   UNL     1      -7.541   9.095   1.925  0.00  0.00    +0.259 C 
BRANCH  11  12
ATOM     12  C   UNL     1      -6.402  10.073   2.050  0.00  0.00    +0.254 C 
ATOM     13  O   UNL     1      -5.261   9.701   1.874  0.00  0.00    -0.272 OA
ATOM     14  N   UNL     1      -6.650  11.361   2.359  0.00  0.00    -0.305 N 
ATOM     15  H   UNL     1      -7.563  11.658   2.500  0.00  0.00    +0.149 HD
BRANCH  14  16
ATOM     16  C   UNL     1      -5.543  12.312   2.481  0.00  0.00    +0.178 C 
BRANCH  16  17
ATOM     17  C   UNL     1      -6.085  13.674   2.830  0.00  0.00    +0.122 A 
ATOM     18  C   UNL     1      -6.282  14.147   4.074  0.00  0.00    +0.046 A 
ATOM     19  C   UNL     1      -6.801  15.455   3.937  0.00  0.00    +0.041 A 
ATOM     20  C   UNL     1      -6.890  15.703   2.618  0.00  0.00    +0.195 A 
ATOM     21  O   UNL     1      -6.450  14.622   1.953  0.00  0.00    -0.466 OA
ENDBRANCH  16  17
ENDBRANCH  14  16
ENDBRANCH  11  12
ENDBRANCH   9  11
ENDBRANCH   7   9
ENDBRANCH   1   7
BRANCH   4  22
ATOM     22  N   UNL     1      -5.927   1.446   1.459  0.00  0.00    -0.216 N 
ATOM     23  H   UNL     1      -5.955   0.820   2.199  0.00  0.00    +0.174 HD
BRANCH  22  24
ATOM     24  S   UNL     1      -5.345   0.962  -0.014  0.00  0.00    +0.074 S 
ATOM     25  O   UNL     1      -5.074  -0.429   0.094  0.00  0.00    -0.150 OA
ATOM     26  O   UNL     1      -4.350   1.905  -0.388  0.00  0.00    -0.150 OA
BRANCH  24  27
ATOM     27  C   UNL     1      -6.660   1.130  -1.175  0.00  0.00    +0.129 A 
ATOM     28  C   UNL     1      -6.556   2.039  -2.211  0.00  0.00    +0.063 A 
ATOM     29  C   UNL     1      -7.587   2.170  -3.122  0.00  0.00    +0.128 A 
ATOM     30  C   UNL     1      -8.726   1.397  -2.994  0.00  0.00    +0.034 A 
ATOM     31  C   UNL     1      -8.829   0.484  -1.961  0.00  0.00    +0.024 A 
ATOM     32  C   UNL     1      -7.797   0.352  -1.049  0.00  0.00    +0.068 A 
ATOM     33 CL   UNL     1      -7.929  -0.790   0.252  0.00  0.00    -0.082 Cl
BRANCH  29  34
ATOM     34  N   UNL     1      -7.475   3.144  -4.231  0.00  0.00    +0.056 N 
ATOM     35  O   UNL     1      -6.474   3.829  -4.341  0.00  0.00    -0.126 OA
ATOM     36  O   UNL     1      -8.381   3.256  -5.037  0.00  0.00    -0.126 OA
ENDBRANCH  29  34
ENDBRANCH  24  27
ENDBRANCH  22  24
ENDBRANCH   4  22
TORSDOF 10
