REMARK  Name = ZINC39448330
REMARK  6 active torsions:
REMARK  status: ('A' for Active; 'I' for Inactive)
REMARK    1  A    between atoms: C_1  and  C_2
REMARK    2  A    between atoms: C_3  and  C_12
REMARK    3  A    between atoms: C_4  and  N_11
REMARK    4  A    between atoms: N_8  and  C_10
REMARK    5  A    between atoms: C_15  and  C_18
REMARK    6  A    between atoms: C_21  and  C_24
REMARK                            x       y       z     vdW  Elec       q    Type
REMARK                         _______ _______ _______ _____ _____    ______ ____
ROOT
ATOM      1  C   UNL     1      -2.426   0.105   0.009  0.00  0.00    +0.179 C 
ATOM      2  C   UNL     1      -3.224  -0.177  -1.252  0.00  0.00    +0.036 C 
ATOM      3  C   UNL     1      -4.364  -0.731  -0.794  0.00  0.00    +0.091 C 
ATOM      4  N   UNL     1      -4.342  -0.811   0.562  0.00  0.00    -0.153 NA
ATOM      5  N   UNL     1      -3.311  -0.370   1.085  0.00  0.00    -0.175 NA
ENDROOT
BRANCH   1   8
ATOM      6  C   UNL     1      -0.018   1.503   0.010  0.00  0.00    +0.062 C 
ATOM      7  C   UNL     1       0.002  -0.004   0.002  0.00  0.00    +0.019 C 
ATOM      8  C   UNL     1      -1.132  -0.667   0.004  0.00  0.00    -0.028 C 
ATOM      9  C   UNL     1      -1.183  -2.166   0.002  0.00  0.00    +0.045 C 
ATOM     10  C   UNL     1       0.139  -2.754  -0.399  0.00  0.00    +0.221 C 
ATOM     11  O   UNL     1       0.192  -3.914  -0.748  0.00  0.00    -0.276 OA
ATOM     12  N   UNL     1       1.266  -2.021  -0.379  0.00  0.00    -0.227 N 
ATOM     13  N   UNL     1       1.219  -0.671  -0.013  0.00  0.00    -0.267 N 
ATOM     14  C   UNL     1       2.545  -2.635  -0.746  0.00  0.00    +0.156 C 
ATOM     15  H   UNL     1       2.034  -0.205   0.232  0.00  0.00    +0.170 HD
BRANCH   9  16
ATOM     16  N   UNL     1      -1.530  -2.638   1.349  0.00  0.00    +0.388 N 
ATOM     17  H   UNL     1      -2.431  -2.269   1.613  0.00  0.00    -0.088 HD
ATOM     18  H   UNL     1      -1.566  -3.647   1.353  0.00  0.00    -0.088 HD
ATOM     19  H   UNL     1      -0.832  -2.324   2.006  0.00  0.00    -0.088 HD
ENDBRANCH   9  16
ENDBRANCH   1   8
BRANCH   3  20
ATOM     20  C   UNL     1      -5.486  -1.189  -1.651  0.00  0.00    +0.002 A 
ATOM     21  C   UNL     1      -5.403  -1.065  -3.037  0.00  0.00    +0.010 A 
ATOM     22  C   UNL     1      -6.449  -1.492  -3.829  0.00  0.00    +0.013 A 
ATOM     23  C   UNL     1      -7.578  -2.043  -3.249  0.00  0.00    +0.055 A 
ATOM     24  C   UNL     1      -7.665  -2.169  -1.875  0.00  0.00    +0.013 A 
ATOM     25  C   UNL     1      -6.623  -1.750  -1.073  0.00  0.00    +0.010 A 
BRANCH  23  26
ATOM     26  C   UNL     1      -8.718  -2.508  -4.119  0.00  0.00    +0.417 C 
ATOM     27  F   UNL     1      -8.524  -3.850  -4.464  0.00  0.00    -0.166 F 
ATOM     28  F   UNL     1      -9.922  -2.376  -3.421  0.00  0.00    -0.166 F 
ATOM     29  F   UNL     1      -8.764  -1.731  -5.281  0.00  0.00    -0.166 F 
ENDBRANCH  23  26
ENDBRANCH   3  20
TORSDOF 4
