REMARK  Name = ZINC25783956
REMARK  6 active torsions:
REMARK  status: ('A' for Active; 'I' for Inactive)
REMARK    1  A    between atoms: C_1  and  O_2
REMARK    2  A    between atoms: O_2  and  C_3
REMARK    3  A    between atoms: C_6  and  C_9
REMARK    4  A    between atoms: C_15  and  O_20
REMARK    5  A    between atoms: O_20  and  C_21
REMARK    6  A    between atoms: C_28  and  C_30
REMARK                            x       y       z     vdW  Elec       q    Type
REMARK                         _______ _______ _______ _____ _____    ______ ____
ROOT
ATOM      1  C   UNL     1       2.590  -2.595   4.232  0.00  0.00    +0.234 C 
ATOM      2  C   UNL     1       3.989  -2.978   3.848  0.00  0.00    +0.028 C 
ATOM      3  C   UNL     1       4.246  -4.182   3.295  0.00  0.00    +0.083 C 
ATOM      4  C   UNL     1       3.099  -5.103   3.095  0.00  0.00    +0.046 A 
ATOM      5  C   UNL     1       3.192  -6.205   2.257  0.00  0.00    +0.059 A 
ATOM      6  C   UNL     1       2.094  -7.037   2.098  0.00  0.00    +0.121 A 
ATOM      7  C   UNL     1       0.912  -6.768   2.774  0.00  0.00    +0.049 A 
ATOM      8  C   UNL     1       0.817  -5.671   3.610  0.00  0.00    +0.050 A 
ATOM      9  C   UNL     1       1.906  -4.834   3.778  0.00  0.00    +0.131 A 
ATOM     10  O   UNL     1       1.842  -3.757   4.597  0.00  0.00    -0.479 OA
ATOM     11  N   UNL     1       5.504  -4.538   2.937  0.00  0.00    -0.216 NA
ATOM     12  C   UNL     1       6.561  -3.774   3.097  0.00  0.00    +0.209 C 
ATOM     13  N   UNL     1       7.885  -3.970   2.801  0.00  0.00    -0.275 N 
ATOM     14  C   UNL     1       8.579  -2.845   3.179  0.00  0.00    +0.208 C 
ATOM     15  N   UNL     1       7.755  -1.983   3.682  0.00  0.00    -0.169 NA
ATOM     16  N   UNL     1       6.471  -2.529   3.648  0.00  0.00    -0.182 N 
ATOM     17  C   UNL     1       5.152  -2.035   4.068  0.00  0.00    +0.163 C 
ATOM     18  H   UNL     1       8.267  -4.764   2.396  0.00  0.00    +0.156 HD
ENDROOT
BRANCH  17  19
ATOM     19  C   UNL     1       4.868  -0.758   3.320  0.00  0.00    -0.021 A 
ATOM     20  C   UNL     1       4.949  -0.733   1.940  0.00  0.00    +0.008 A 
ATOM     21  C   UNL     1       4.688   0.438   1.254  0.00  0.00    +0.038 A 
ATOM     22  C   UNL     1       4.347   1.586   1.948  0.00  0.00    +0.123 A 
ATOM     23  C   UNL     1       4.266   1.560   3.330  0.00  0.00    +0.038 A 
ATOM     24  C   UNL     1       4.522   0.386   4.014  0.00  0.00    +0.008 A 
ATOM     25  F   UNL     1       4.092   2.731   1.278  0.00  0.00    -0.205 F 
ENDBRANCH  17  19
BRANCH   1  29
ATOM     26  C   UNL     1       0.692  -0.675   0.919  0.00  0.00    +0.120 A 
ATOM     27  C   UNL     1       0.924  -2.043   0.890  0.00  0.00    +0.046 A 
ATOM     28  C   UNL     1       1.538  -2.661   1.962  0.00  0.00    +0.011 A 
ATOM     29  C   UNL     1       1.921  -1.918   3.063  0.00  0.00    -0.003 A 
ATOM     30  C   UNL     1       1.690  -0.555   3.095  0.00  0.00    +0.011 A 
ATOM     31  C   UNL     1       1.082   0.069   2.023  0.00  0.00    +0.046 A 
BRANCH  26  33
ATOM     32  C   UNL     1      -0.286  -0.893  -1.237  0.00  0.00    +0.277 C 
ATOM     33  O   UNL     1       0.088  -0.065  -0.135  0.00  0.00    -0.495 OA
ENDBRANCH  26  33
ENDBRANCH   1  29
BRANCH   6  34
ATOM     34  O   UNL     1       2.176  -8.120   1.279  0.00  0.00    -0.495 OA
ATOM     35  C   UNL     1       1.008  -8.935   1.161  0.00  0.00    +0.277 C 
ENDBRANCH   6  34
TORSDOF 4
