REMARK  Name = ZINC07333733
REMARK  3 active torsions:
REMARK  status: ('A' for Active; 'I' for Inactive)
REMARK    1  A    between atoms: C_6  and  C_7
REMARK    2  A    between atoms: C_7  and  C_9
REMARK    3  A    between atoms: C_10  and  C_11
REMARK                            x       y       z     vdW  Elec       q    Type
REMARK                         _______ _______ _______ _____ _____    ______ ____
ROOT
ATOM      1  C   UNL     1       1.669   8.198  -4.466  0.00  0.00    +0.186 C 
ATOM      2  O   UNL     1       1.359   9.163  -3.791  0.00  0.00    -0.287 OA
ENDROOT
BRANCH   1   8
ATOM      3  C   UNL     1       2.756   7.281  -6.510  0.00  0.00    +0.015 A 
ATOM      4  C   UNL     1       3.439   7.457  -7.695  0.00  0.00    +0.048 A 
ATOM      5  C   UNL     1       3.772   8.733  -8.121  0.00  0.00    +0.142 A 
ATOM      6  C   UNL     1       3.420   9.844  -7.351  0.00  0.00    +0.076 A 
ATOM      7  C   UNL     1       2.732   9.676  -6.166  0.00  0.00    +0.038 A 
ATOM      8  C   UNL     1       2.400   8.388  -5.735  0.00  0.00    +0.024 A 
ATOM      9  N   UNL     1       3.768  11.127  -7.799  0.00  0.00    -0.280 N 
ATOM     10  C   UNL     1       4.143  11.291  -9.086  0.00  0.00    +0.255 C 
ATOM     11  O   UNL     1       4.476  12.386  -9.489  0.00  0.00    -0.272 OA
ATOM     12  C   UNL     1       4.143  10.108 -10.021  0.00  0.00    +0.325 C 
ATOM     13  O   UNL     1       4.442   8.917  -9.289  0.00  0.00    -0.481 OA
ATOM     14  H   UNL     1       3.740  11.884  -7.193  0.00  0.00    +0.155 HD
ENDBRANCH   1   8
BRANCH   1  15
ATOM     15  C   UNL     1       1.327   6.891  -4.033  0.00  0.00    +0.052 C 
ATOM     16  C   UNL     1       0.658   6.718  -2.871  0.00  0.00    +0.012 C 
BRANCH  16  17
ATOM     17  C   UNL     1       0.304   5.364  -2.422  0.00  0.00    -0.020 A 
ATOM     18  C   UNL     1      -0.390   5.182  -1.218  0.00  0.00    +0.057 A 
ATOM     19  C   UNL     1      -0.717   3.907  -0.806  0.00  0.00    +0.164 A 
ATOM     20  C   UNL     1      -0.361   2.807  -1.580  0.00  0.00    +0.180 A 
ATOM     21  C   UNL     1       0.327   2.983  -2.774  0.00  0.00    +0.087 A 
ATOM     22  C   UNL     1       0.660   4.253  -3.196  0.00  0.00    +0.031 A 
ATOM     23 CL   UNL     1       0.769   1.605  -3.733  0.00  0.00    -0.080 Cl
ATOM     24  O   UNL     1      -0.692   1.553  -1.159  0.00  0.00    -0.487 OA
ATOM     25  C   UNL     1      -0.013   1.086   0.008  0.00  0.00    +0.232 C 
ATOM     26  C   UNL     1      -0.712   1.570   1.269  0.00  0.00    +0.082 C 
ATOM     27  C   UNL     1      -0.661   3.083   1.414  0.00  0.00    +0.232 C 
ATOM     28  O   UNL     1      -1.394   3.716   0.364  0.00  0.00    -0.488 OA
ENDBRANCH  16  17
ENDBRANCH   1  15
TORSDOF 3
