REMARK  Name = ZINC54931037
REMARK  4 active torsions:
REMARK  status: ('A' for Active; 'I' for Inactive)
REMARK    1  A    between atoms: C_1  and  C_2
REMARK    2  A    between atoms: C_2  and  C_18
REMARK    3  A    between atoms: C_6  and  N_16
REMARK    4  A    between atoms: N_16  and  C_17
REMARK                            x       y       z     vdW  Elec       q    Type
REMARK                         _______ _______ _______ _____ _____    ______ ____
ROOT
ATOM      1  C   UNL     1      -0.019   1.526   0.010  0.00  0.00    +0.016 C 
ATOM      2  C   UNL     1       0.002  -0.004   0.002  0.00  0.00    -0.005 C 
ATOM      3  C   UNL     1       0.687  -0.490  -1.273  0.00  0.00    +0.048 C 
ATOM      4  C   UNL     1       0.926  -1.971  -1.212  0.00  0.00    -0.016 A 
ATOM      5  C   UNL     1       0.820  -2.760  -2.340  0.00  0.00    +0.051 A 
ATOM      6  C   UNL     1       1.075  -4.127  -2.200  0.00  0.00    +0.141 A 
ATOM      7  N   UNL     1       1.409  -4.620  -1.016  0.00  0.00    -0.134 NA
ATOM      8  N   UNL     1       1.502  -3.885   0.034  0.00  0.00    -0.147 NA
ATOM      9  C   UNL     1       1.268  -2.582  -0.004  0.00  0.00    +0.097 A 
ATOM     10  C   UNL     1       1.334  -1.754   1.223  0.00  0.00    +0.006 A 
ATOM     11  C   UNL     1       0.731  -0.496   1.223  0.00  0.00    -0.032 A 
ATOM     12  C   UNL     1       0.805   0.296   2.352  0.00  0.00    +0.005 A 
ATOM     13  C   UNL     1       1.450  -0.168   3.484  0.00  0.00    +0.000 A 
ATOM     14  C   UNL     1       2.018  -1.429   3.498  0.00  0.00    +0.001 A 
ATOM     15  C   UNL     1       1.958  -2.227   2.372  0.00  0.00    +0.010 A 
ATOM     16  C   UNL     1      -1.436  -0.527   0.030  0.00  0.00    +0.016 C 
ENDROOT
BRANCH   6  17
ATOM     17  N   UNL     1       0.980  -4.968  -3.302  0.00  0.00    -0.331 N 
ATOM     18  C   UNL     1       0.611  -4.422  -4.611  0.00  0.00    +0.127 C 
ATOM     19  H   UNL     1       1.157  -5.917  -3.205  0.00  0.00    +0.147 HD
ENDBRANCH   6  17
TORSDOF 1
