REMARK  Name = ZINC32819106
REMARK  7 active torsions:
REMARK  status: ('A' for Active; 'I' for Inactive)
REMARK    1  A    between atoms: C_4  and  C_7
REMARK    2  A    between atoms: C_7  and  C_9
REMARK    3  A    between atoms: C_7  and  N_31
REMARK    4  A    between atoms: C_9  and  N_10
REMARK    5  A    between atoms: C_11  and  C_13
REMARK    6  A    between atoms: C_13  and  N_14
REMARK    7  A    between atoms: C_21  and  C_24
REMARK                            x       y       z     vdW  Elec       q    Type
REMARK                         _______ _______ _______ _____ _____    ______ ____
ROOT
ATOM      1  N   UNL     1       1.447   6.964   4.118  0.00  0.00    -0.315 N 
ATOM      2  C   UNL     1       0.526   6.343   3.353  0.00  0.00    +0.233 C 
ATOM      3  O   UNL     1       0.291   6.752   2.236  0.00  0.00    -0.274 OA
ATOM      4  H   UNL     1       1.661   6.593   5.131  0.00  0.00    +0.149 HD
ENDROOT
BRANCH   1   5
ATOM      5  C   UNL     1       2.162   8.133   3.599  0.00  0.00    +0.093 C 
BRANCH   5   6
ATOM      6  C   UNL     1       3.055   8.713   4.698  0.00  0.00    -0.020 C 
BRANCH   6  10
ATOM      7  C   UNL     1       6.109   5.894   5.685  0.00  0.00    +0.000 A 
ATOM      8  C   UNL     1       4.989   6.009   6.488  0.00  0.00    +0.000 A 
ATOM      9  C   UNL     1       4.001   6.921   6.168  0.00  0.00    +0.002 A 
ATOM     10  C   UNL     1       4.133   7.718   5.046  0.00  0.00    -0.059 A 
ATOM     11  C   UNL     1       5.250   7.599   4.241  0.00  0.00    +0.002 A 
ATOM     12  C   UNL     1       6.240   6.691   4.563  0.00  0.00    +0.000 A 
ENDBRANCH   6  10
BRANCH   6  13
ATOM     13  N   UNL     1       3.673   9.957   4.221  0.00  0.00    +0.385 N 
ATOM     14  C   UNL     1       2.639  10.953   3.840  0.00  0.00    -0.078 C 
ATOM     15  C   UNL     1       3.408  12.297   3.884  0.00  0.00    -0.020 C 
ATOM     16  C   UNL     1       4.348  12.118   5.098  0.00  0.00    -0.020 C 
ATOM     17  C   UNL     1       4.473  10.595   5.288  0.00  0.00    -0.078 C 
ATOM     18  H   UNL     1       4.300   9.670   3.363  0.00  0.00    -0.081 HD
ENDBRANCH   6  13
ENDBRANCH   5   6
ENDBRANCH   1   5
BRANCH   2  19
ATOM     19  C   UNL     1      -0.209   5.141   3.887  0.00  0.00    +0.221 C 
BRANCH  19  20
ATOM     20  N   UNL     1      -1.147   4.653   2.872  0.00  0.00    -0.290 N 
ATOM     21  C   UNL     1      -2.414   5.140   2.848  0.00  0.00    +0.203 A 
ATOM     22  N   UNL     1      -3.279   4.730   1.959  0.00  0.00    -0.230 NA
ATOM     23  C   UNL     1      -2.945   3.820   1.048  0.00  0.00    +0.116 A 
ATOM     24  C   UNL     1      -1.658   3.260   0.995  0.00  0.00    +0.080 A 
ATOM     25  C   UNL     1      -0.736   3.731   1.983  0.00  0.00    +0.263 A 
ATOM     26  O   UNL     1       0.405   3.303   2.018  0.00  0.00    -0.267 OA
ATOM     27  C   UNL     1      -1.455   2.278  -0.064  0.00  0.00    +0.004 A 
ATOM     28  C   UNL     1      -2.486   1.992  -0.894  0.00  0.00    +0.056 A 
ATOM     29  S   UNL     1      -3.804   3.029  -0.288  0.00  0.00    -0.076 S 
BRANCH  27  30
ATOM     30  C   UNL     1      -0.143   1.609  -0.232  0.00  0.00    -0.016 A 
ATOM     31  C   UNL     1       1.026   2.367  -0.287  0.00  0.00    +0.011 A 
ATOM     32  C   UNL     1       2.245   1.740  -0.448  0.00  0.00    +0.039 A 
ATOM     33  C   UNL     1       2.308   0.360  -0.556  0.00  0.00    +0.123 A 
ATOM     34  C   UNL     1       1.149  -0.397  -0.502  0.00  0.00    +0.039 A 
ATOM     35  C   UNL     1      -0.074   0.221  -0.340  0.00  0.00    +0.011 A 
ATOM     36  F   UNL     1       3.503  -0.249  -0.715  0.00  0.00    -0.205 F 
ENDBRANCH  27  30
ENDBRANCH  19  20
ENDBRANCH   2  19
TORSDOF 7
