REMARK  Name = ZINC46656387
REMARK  5 active torsions:
REMARK  status: ('A' for Active; 'I' for Inactive)
REMARK    1  A    between atoms: C_6  and  C_7
REMARK    2  A    between atoms: C_14  and  C_17
REMARK    3  A    between atoms: C_17  and  C_18
REMARK    4  A    between atoms: N_20  and  N_21
REMARK    5  A    between atoms: C_22  and  C_24
REMARK                            x       y       z     vdW  Elec       q    Type
REMARK                         _______ _______ _______ _____ _____    ______ ____
ROOT
ATOM      1  C   UNL     1      -0.017   1.378   0.010  0.00  0.00    +0.013 A 
ATOM      2  C   UNL     1       1.173   2.084   0.002  0.00  0.00    +0.017 A 
ATOM      3  C   UNL     1       2.379   1.403  -0.016  0.00  0.00    +0.030 A 
ATOM      4  C   UNL     1       2.406   0.008  -0.032  0.00  0.00    +0.047 A 
ATOM      5  C   UNL     1       1.202  -0.688  -0.018  0.00  0.00    +0.036 A 
ATOM      6  C   UNL     1       0.002  -0.004   0.002  0.00  0.00    +0.057 A 
ATOM      7  N   UNL     1       3.601  -0.704  -0.073  0.00  0.00    -0.284 N 
ATOM      8  C   UNL     1       4.798  -0.227  -0.400  0.00  0.00    +0.231 C 
ATOM      9  O   UNL     1       5.761  -0.954  -0.279  0.00  0.00    -0.274 OA
ATOM     10  C   UNL     1       5.017   1.173  -0.913  0.00  0.00    +0.146 C 
ATOM     11  S   UNL     1       3.902   2.296  -0.015  0.00  0.00    -0.110 S 
ATOM     12  H   UNL     1       3.556  -1.644   0.160  0.00  0.00    +0.155 HD
ENDROOT
BRANCH   6  13
ATOM     13  C   UNL     1      -1.296  -0.770   0.016  0.00  0.00    +0.417 C 
ATOM     14  F   UNL     1      -2.368   0.129   0.035  0.00  0.00    -0.166 F 
ATOM     15  F   UNL     1      -1.378  -1.569  -1.130  0.00  0.00    -0.166 F 
ATOM     16  F   UNL     1      -1.346  -1.581   1.155  0.00  0.00    -0.166 F 
ENDBRANCH   6  13
BRANCH  10  17
ATOM     17  C   UNL     1       4.710   1.225  -2.411  0.00  0.00    +0.121 C 
BRANCH  17  18
ATOM     18  C   UNL     1       5.047   2.594  -2.945  0.00  0.00    +0.231 C 
ATOM     19  O   UNL     1       5.489   3.443  -2.200  0.00  0.00    -0.274 OA
ATOM     20  N   UNL     1       4.858   2.873  -4.250  0.00  0.00    -0.234 N 
ATOM     21  H   UNL     1       4.504   2.194  -4.845  0.00  0.00    +0.173 HD
BRANCH  20  22
ATOM     22  N   UNL     1       5.171   4.145  -4.746  0.00  0.00    -0.234 N 
ATOM     23  C   UNL     1       4.981   4.425  -6.051  0.00  0.00    +0.232 C 
ATOM     24  O   UNL     1       4.540   3.575  -6.795  0.00  0.00    -0.274 OA
ATOM     25  H   UNL     1       5.524   4.825  -4.151  0.00  0.00    +0.173 HD
BRANCH  23  26
ATOM     26  C   UNL     1       5.319   5.793  -6.585  0.00  0.00    +0.076 C 
ATOM     27  C   UNL     1       4.430   6.858  -5.909  0.00  0.00    +0.013 C 
ATOM     28  C   UNL     1       4.128   7.874  -7.038  0.00  0.00    +0.001 C 
ATOM     29  C   UNL     1       3.953   6.963  -8.279  0.00  0.00    +0.001 C 
ATOM     30  C   UNL     1       5.015   5.860  -8.092  0.00  0.00    +0.013 C 
ENDBRANCH  23  26
ENDBRANCH  20  22
ENDBRANCH  17  18
ENDBRANCH  10  17
TORSDOF 5
