REMARK  Name = ZINC13624687
REMARK  7 active torsions:
REMARK  status: ('A' for Active; 'I' for Inactive)
REMARK    1  A    between atoms: C_4  and  C_7
REMARK    2  A    between atoms: C_8  and  N_17
REMARK    3  A    between atoms: C_18  and  C_20
REMARK    4  A    between atoms: N_22  and  C_23
REMARK    5  A    between atoms: C_23  and  C_24
REMARK    6  A    between atoms: C_24  and  C_25
REMARK    7  A    between atoms: C_28  and  O_31
REMARK                            x       y       z     vdW  Elec       q    Type
REMARK                         _______ _______ _______ _____ _____    ______ ____
ROOT
ATOM      1  N   UNL     1       3.094   3.822   1.710  0.00  0.00    -0.275 N 
ATOM      2  C   UNL     1       3.609   4.600   2.683  0.00  0.00    +0.303 C 
ATOM      3  O   UNL     1       4.794   4.865   2.685  0.00  0.00    -0.265 OA
ATOM      4  H   UNL     1       2.138   3.665   1.669  0.00  0.00    +0.155 HD
ENDROOT
BRANCH   1   6
ATOM      5  C   UNL     1       4.190   3.709  -0.497  0.00  0.00    +0.069 A 
ATOM      6  C   UNL     1       3.938   3.242   0.759  0.00  0.00    +0.067 A 
ATOM      7  C   UNL     1       4.721   2.013   0.919  0.00  0.00    +0.022 A 
ATOM      8  C   UNL     1       4.878   1.097   1.963  0.00  0.00    +0.012 A 
ATOM      9  C   UNL     1       5.708   0.024   1.805  0.00  0.00    +0.001 A 
ATOM     10  C   UNL     1       6.397  -0.165   0.615  0.00  0.00    +0.002 A 
ATOM     11  C   UNL     1       6.258   0.726  -0.427  0.00  0.00    +0.026 A 
ATOM     12  C   UNL     1       5.418   1.827  -0.289  0.00  0.00    +0.049 A 
ATOM     13  N   UNL     1       5.080   2.865  -1.129  0.00  0.00    -0.353 N 
ATOM     14  H   UNL     1       5.418   2.985  -2.030  0.00  0.00    +0.166 HD
BRANCH   5  18
ATOM     15  C   UNL     1       2.513   7.222  -2.192  0.00  0.00    +0.000 A 
ATOM     16  C   UNL     1       3.001   7.247  -0.897  0.00  0.00    +0.001 A 
ATOM     17  C   UNL     1       3.546   6.110  -0.340  0.00  0.00    +0.010 A 
ATOM     18  C   UNL     1       3.607   4.931  -1.086  0.00  0.00    +0.000 A 
ATOM     19  C   UNL     1       3.113   4.913  -2.392  0.00  0.00    +0.010 A 
ATOM     20  C   UNL     1       2.569   6.058  -2.937  0.00  0.00    +0.001 A 
ENDBRANCH   5  18
ENDBRANCH   1   6
BRANCH   2  21
ATOM     21  C   UNL     1       2.722   5.134   3.758  0.00  0.00    +0.299 C 
ATOM     22  O   UNL     1       1.538   4.869   3.756  0.00  0.00    -0.265 OA
ATOM     23  N   UNL     1       3.237   5.912   4.731  0.00  0.00    -0.307 N 
ATOM     24  H   UNL     1       4.184   6.124   4.733  0.00  0.00    +0.149 HD
BRANCH  23  25
ATOM     25  C   UNL     1       2.367   6.437   5.786  0.00  0.00    +0.109 C 
BRANCH  25  26
ATOM     26  C   UNL     1       3.195   7.282   6.756  0.00  0.00    +0.054 C 
BRANCH  26  27
ATOM     27  C   UNL     1       2.300   7.822   7.842  0.00  0.00    -0.046 A 
ATOM     28  C   UNL     1       1.677   9.046   7.678  0.00  0.00    +0.007 A 
ATOM     29  C   UNL     1       0.852   9.540   8.669  0.00  0.00    +0.045 A 
ATOM     30  C   UNL     1       0.656   8.813   9.835  0.00  0.00    +0.117 A 
ATOM     31  C   UNL     1       1.287   7.588   9.999  0.00  0.00    +0.045 A 
ATOM     32  C   UNL     1       2.107   7.095   9.002  0.00  0.00    +0.007 A 
BRANCH  30  33
ATOM     33  O   UNL     1      -0.151   9.300  10.813  0.00  0.00    -0.507 OA
ATOM     34  H   UNL     1       0.307   9.846  11.466  0.00  0.00    +0.292 HD
ENDBRANCH  30  33
ENDBRANCH  26  27
ENDBRANCH  25  26
ENDBRANCH  23  25
ENDBRANCH   2  21
TORSDOF 7
