REMARK  Name = ZINC55580007
REMARK  4 active torsions:
REMARK  status: ('A' for Active; 'I' for Inactive)
REMARK    1  A    between atoms: C_1  and  C_2
REMARK    2  A    between atoms: C_3  and  C_22
REMARK    3  A    between atoms: C_8  and  C_10
REMARK    4  A    between atoms: C_22  and  C_23
REMARK                            x       y       z     vdW  Elec       q    Type
REMARK                         _______ _______ _______ _____ _____    ______ ____
ROOT
ATOM      1  C   UNL     1      -0.018   1.503   0.010  0.00  0.00    +0.066 C 
ATOM      2  C   UNL     1       0.002  -0.004   0.002  0.00  0.00    +0.051 A 
ATOM      3  C   UNL     1       0.006  -0.706  -1.158  0.00  0.00    +0.018 A 
ATOM      4  S   UNL     1       0.032  -2.379  -0.535  0.00  0.00    -0.056 S 
ATOM      5  C   UNL     1       0.036  -2.015   1.108  0.00  0.00    +0.165 A 
ATOM      6  N   UNL     1       0.023  -0.700   1.124  0.00  0.00    -0.230 NA
ATOM      7  N   UNL     1       0.053  -2.891   2.187  0.00  0.00    -0.264 N 
ATOM      8  C   UNL     1       0.053  -2.410   3.446  0.00  0.00    +0.227 C 
ATOM      9  O   UNL     1       0.038  -1.213   3.638  0.00  0.00    -0.275 OA
ATOM     10  H   UNL     1       0.065  -3.849   2.034  0.00  0.00    +0.157 HD
ENDROOT
BRANCH   8  11
ATOM     11  C   UNL     1       0.072  -3.361   4.616  0.00  0.00    +0.116 C 
ATOM     12  C   UNL     1       1.332  -4.225   4.550  0.00  0.00    +0.113 C 
ATOM     13  C   UNL     1       2.542  -3.392   4.879  0.00  0.00    +0.218 C 
ATOM     14  O   UNL     1       3.592  -3.612   4.314  0.00  0.00    -0.275 OA
ATOM     15  N   UNL     1       2.471  -2.407   5.793  0.00  0.00    -0.285 N 
ATOM     16  C   UNL     1       1.265  -2.127   6.442  0.00  0.00    +0.037 A 
ATOM     17  C   UNL     1       0.067  -2.575   5.901  0.00  0.00    -0.014 A 
ATOM     18  C   UNL     1      -1.124  -2.299   6.542  0.00  0.00    +0.006 A 
ATOM     19  C   UNL     1      -1.125  -1.577   7.722  0.00  0.00    +0.000 A 
ATOM     20  C   UNL     1       0.066  -1.130   8.263  0.00  0.00    +0.002 A 
ATOM     21  C   UNL     1       1.262  -1.403   7.627  0.00  0.00    +0.023 A 
ATOM     22  H   UNL     1       3.263  -1.887   6.003  0.00  0.00    +0.155 HD
ENDBRANCH   8  11
BRANCH   3  23
ATOM     23  C   UNL     1      -0.009  -0.210  -2.581  0.00  0.00    +0.082 C 
BRANCH  23  24
ATOM     24  C   UNL     1       1.407  -0.025  -3.063  0.00  0.00    -0.007 A 
ATOM     25  C   UNL     1       2.009   1.217  -2.979  0.00  0.00    +0.007 A 
ATOM     26  C   UNL     1       3.307   1.387  -3.421  0.00  0.00    +0.000 A 
ATOM     27  C   UNL     1       4.006   0.316  -3.948  0.00  0.00    +0.003 A 
ATOM     28  C   UNL     1       3.406  -0.926  -4.032  0.00  0.00    +0.038 A 
ATOM     29  C   UNL     1       2.107  -1.099  -3.584  0.00  0.00    +0.127 A 
ATOM     30  F   UNL     1       1.522  -2.314  -3.662  0.00  0.00    -0.205 F 
ENDBRANCH  23  24
ENDBRANCH   3  23
TORSDOF 3
