REMARK  Name = ZINC20721439
REMARK  5 active torsions:
REMARK  status: ('A' for Active; 'I' for Inactive)
REMARK    1  A    between atoms: C_3  and  C_8
REMARK    2  A    between atoms: C_8  and  O_9
REMARK    3  A    between atoms: O_9  and  C_10
REMARK    4  A    between atoms: C_14  and  C_16
REMARK    5  A    between atoms: C_25  and  O_28
REMARK                            x       y       z     vdW  Elec       q    Type
REMARK                         _______ _______ _______ _____ _____    ______ ____
ROOT
ATOM      1  C   UNL     1       5.252   3.110   1.494  0.00  0.00    +0.121 A 
ATOM      2  C   UNL     1       5.966   3.555   0.390  0.00  0.00    +0.045 A 
ATOM      3  C   UNL     1       7.143   4.256   0.566  0.00  0.00    +0.004 A 
ATOM      4  C   UNL     1       7.610   4.514   1.842  0.00  0.00    +0.005 A 
ATOM      5  C   UNL     1       6.902   4.072   2.943  0.00  0.00    -0.026 A 
ATOM      6  C   UNL     1       5.721   3.376   2.772  0.00  0.00    +0.050 A 
ENDROOT
BRANCH   5   7
ATOM      7  C   UNL     1       7.415   4.356   4.332  0.00  0.00    +0.112 C 
ATOM      8  C   UNL     1       7.471   5.840   4.533  0.00  0.00    +0.033 A 
ATOM      9  C   UNL     1       6.668   6.700   3.848  0.00  0.00    +0.112 A 
ATOM     10  N   UNL     1       6.947   7.952   4.254  0.00  0.00    -0.282 N 
ATOM     11  H   UNL     1       6.523   8.764   3.934  0.00  0.00    +0.188 HD
ATOM     12  N   UNL     1       7.953   7.877   5.218  0.00  0.00    -0.154 NA
ATOM     13  C   UNL     1       8.282   6.596   5.389  0.00  0.00    +0.182 A 
ATOM     14  N   UNL     1       9.252   6.231   6.258  0.00  0.00    -0.195 NA
ATOM     15  C   UNL     1       9.772   5.157   6.631  0.00  0.00    +0.199 C 
ATOM     16  C   UNL     1       9.451   3.764   6.263  0.00  0.00    +0.165 C 
ATOM     17  S   UNL     1       9.017   3.569   4.530  0.00  0.00    -0.138 S 
BRANCH  15  18
ATOM     18  O   UNL     1      10.787   5.293   7.510  0.00  0.00    -0.495 OA
ATOM     19  H   UNL     1      10.986   6.210   7.742  0.00  0.00    +0.293 HD
ENDBRANCH  15  18
ENDBRANCH   5   7
BRANCH   1  20
ATOM     20  O   UNL     1       4.094   2.421   1.323  0.00  0.00    -0.487 OA
BRANCH  20  21
ATOM     21  C   UNL     1       3.672   2.184  -0.021  0.00  0.00    +0.264 C 
BRANCH  21  24
ATOM     22  C   UNL     1      -0.017   1.378   0.010  0.00  0.00    +0.002 A 
ATOM     23  C   UNL     1       1.171   2.086   0.002  0.00  0.00    +0.007 A 
ATOM     24  C   UNL     1       2.378   1.412  -0.013  0.00  0.00    -0.009 A 
ATOM     25  C   UNL     1       2.398   0.029  -0.021  0.00  0.00    +0.027 A 
ATOM     26  C   UNL     1       1.210  -0.679  -0.013  0.00  0.00    +0.041 A 
ATOM     27  C   UNL     1       0.002  -0.004   0.002  0.00  0.00    +0.020 A 
ATOM     28 CL   UNL     1       1.234  -2.415  -0.024  0.00  0.00    -0.084 Cl
ENDBRANCH  21  24
ENDBRANCH  20  21
ENDBRANCH   1  20
TORSDOF 5
