REMARK  Name = ZINC36206748
REMARK  15 active torsions:
REMARK  status: ('A' for Active; 'I' for Inactive)
REMARK    1  A    between atoms: C_1  and  C_2
REMARK    2  A    between atoms: C_2  and  C_3
REMARK    3  A    between atoms: C_9  and  C_18
REMARK    4  A    between atoms: C_13  and  C_14
REMARK    5  A    between atoms: C_14  and  O_16
REMARK    6  A    between atoms: O_16  and  C_17
REMARK    7  A    between atoms: C_18  and  N_19
REMARK    8  A    between atoms: N_19  and  C_20
REMARK    9  A    between atoms: N_19  and  C_33
REMARK   10  A    between atoms: C_20  and  C_21
REMARK   11  A    between atoms: C_21  and  C_23
REMARK   12  A    between atoms: C_21  and  O_32
REMARK   13  A    between atoms: C_23  and  O_24
REMARK   14  A    between atoms: O_24  and  C_25
REMARK   15  A    between atoms: C_25  and  C_26
REMARK                            x       y       z     vdW  Elec       q    Type
REMARK                         _______ _______ _______ _____ _____    ______ ____
ROOT
ATOM      1  N   UNL     1      -0.621  -1.974  -7.147  0.00  0.00    +0.388 N 
ATOM      2  H   UNL     1       0.231  -1.437  -7.214  0.00  0.00    -0.081 HD
ENDROOT
BRANCH   1   3
ATOM      3  C   UNL     1      -0.298  -3.359  -6.779  0.00  0.00    -0.068 C 
ATOM      4  C   UNL     1       0.346  -3.382  -5.392  0.00  0.00    -0.015 C 
ATOM      5  C   UNL     1       0.682  -4.825  -5.009  0.00  0.00    -0.002 C 
ATOM      6  C   UNL     1      -0.601  -5.659  -4.990  0.00  0.00    -0.000 C 
ATOM      7  C   UNL     1      -1.245  -5.636  -6.378  0.00  0.00    -0.002 C 
ATOM      8  C   UNL     1      -1.581  -4.194  -6.761  0.00  0.00    -0.015 C 
ENDBRANCH   1   3
BRANCH   1   9
ATOM      9  C   UNL     1      -1.492  -1.385  -6.121  0.00  0.00    -0.003 C 
BRANCH   9  16
ATOM     10  C   UNL     1       1.865   0.489  -1.979  0.00  0.00    -0.012 A 
ATOM     11  C   UNL     1       0.921   0.059  -2.913  0.00  0.00    +0.076 A 
ATOM     12  C   UNL     1      -0.557   0.047  -2.813  0.00  0.00    +0.260 A 
ATOM     13  O   UNL     1      -1.118   0.450  -1.810  0.00  0.00    -0.267 OA
ATOM     14  N   UNL     1      -1.264  -0.421  -3.860  0.00  0.00    -0.312 N 
ATOM     15  H   UNL     1      -2.232  -0.436  -3.810  0.00  0.00    +0.170 HD
ATOM     16  C   UNL     1      -0.649  -0.872  -4.981  0.00  0.00    +0.094 A 
ATOM     17  N   UNL     1       0.650  -0.875  -5.102  0.00  0.00    -0.229 NA
ATOM     18  C   UNL     1       1.441  -0.436  -4.131  0.00  0.00    +0.116 A 
ATOM     19  S   UNL     1       3.196  -0.281  -3.918  0.00  0.00    -0.062 S 
ATOM     20  C   UNL     1       3.195   0.419  -2.277  0.00  0.00    +0.102 A 
BRANCH  10  22
ATOM     21  C   UNL     1       1.209   2.546  -0.760  0.00  0.00    +0.009 C 
ATOM     22  C   UNL     1       1.416   1.035  -0.648  0.00  0.00    +0.034 C 
ENDBRANCH  10  22
BRANCH  20  23
ATOM     23  C   UNL     1       4.338   0.818  -1.452  0.00  0.00    +0.346 C 
ATOM     24  O   UNL     1       4.156   1.281  -0.343  0.00  0.00    -0.244 OA
BRANCH  23  25
ATOM     25  O   UNL     1       5.594   0.671  -1.924  0.00  0.00    -0.464 OA
ATOM     26  C   UNL     1       6.661   1.080  -1.066  0.00  0.00    +0.280 C 
ENDBRANCH  23  25
ENDBRANCH  20  23
ENDBRANCH   9  16
ENDBRANCH   1   9
BRANCH   1  27
ATOM     27  C   UNL     1      -1.312  -1.959  -8.443  0.00  0.00    -0.044 C 
BRANCH  27  28
ATOM     28  C   UNL     1      -0.344  -2.403  -9.542  0.00  0.00    +0.124 C 
BRANCH  28  29
ATOM     29  O   UNL     1      -0.016  -3.782  -9.360  0.00  0.00    -0.391 OA
ATOM     30  H   UNL     1      -0.765  -4.383  -9.473  0.00  0.00    +0.210 HD
ENDBRANCH  28  29
BRANCH  28  31
ATOM     31  C   UNL     1      -1.004  -2.212 -10.909  0.00  0.00    +0.189 C 
BRANCH  31  32
ATOM     32  O   UNL     1      -0.061  -2.515 -11.939  0.00  0.00    -0.373 OA
BRANCH  32  33
ATOM     33  C   UNL     1      -0.578  -2.368 -13.263  0.00  0.00    +0.195 C 
BRANCH  33  34
ATOM     34  C   UNL     1       0.495  -2.712 -14.264  0.00  0.00    -0.022 A 
ATOM     35  C   UNL     1       1.346  -1.727 -14.730  0.00  0.00    +0.006 A 
ATOM     36  C   UNL     1       2.331  -2.043 -15.647  0.00  0.00    +0.000 A 
ATOM     37  C   UNL     1       2.465  -3.342 -16.098  0.00  0.00    +0.000 A 
ATOM     38  C   UNL     1       1.614  -4.327 -15.632  0.00  0.00    +0.000 A 
ATOM     39  C   UNL     1       0.632  -4.013 -14.711  0.00  0.00    +0.006 A 
ENDBRANCH  33  34
ENDBRANCH  32  33
ENDBRANCH  31  32
ENDBRANCH  28  31
ENDBRANCH  27  28
ENDBRANCH   1  27
TORSDOF 13
