REMARK  Name = ZINC60195284
REMARK  9 active torsions:
REMARK  status: ('A' for Active; 'I' for Inactive)
REMARK    1  A    between atoms: C_1  and  C_2
REMARK    2  A    between atoms: C_2  and  C_3
REMARK    3  A    between atoms: C_2  and  C_4
REMARK    4  A    between atoms: C_2  and  O_5
REMARK    5  A    between atoms: O_5  and  C_6
REMARK    6  A    between atoms: N_8  and  C_9
REMARK    7  A    between atoms: C_9  and  C_10
REMARK    8  A    between atoms: C_17  and  C_19
REMARK    9  A    between atoms: C_19  and  N_20
REMARK                            x       y       z     vdW  Elec       q    Type
REMARK                         _______ _______ _______ _____ _____    ______ ____
ROOT
ATOM      1  C   UNL     1       4.313  -1.018  -4.090  0.00  0.00    +0.093 C 
ATOM      2  C   UNL     1       5.816  -0.753  -4.219  0.00  0.00    +0.024 C 
ATOM      3  C   UNL     1       6.273  -1.104  -5.637  0.00  0.00    +0.003 C 
ATOM      4  C   UNL     1       5.537  -0.219  -6.646  0.00  0.00    +0.019 C 
ATOM      5  C   UNL     1       4.031  -0.479  -6.544  0.00  0.00    +0.108 C 
ATOM      6  N   UNL     1       3.608  -0.285  -5.150  0.00  0.00    -0.296 N 
ATOM      7  C   UNL     1       2.595   0.551  -4.849  0.00  0.00    +0.234 C 
ATOM      8  O   UNL     1       2.331   0.792  -3.690  0.00  0.00    -0.274 OA
ENDROOT
BRANCH   1   9
ATOM      9  C   UNL     1       3.824  -0.540  -2.722  0.00  0.00    +0.130 C 
BRANCH   9  12
ATOM     10  C   UNL     1       1.883  -0.863  -1.285  0.00  0.00    +0.401 C 
ATOM     11  O   UNL     1       2.435  -0.195  -0.433  0.00  0.00    -0.226 OA
ATOM     12  N   UNL     1       2.468  -1.042  -2.486  0.00  0.00    -0.279 N 
ATOM     13  H   UNL     1       1.991  -1.503  -3.193  0.00  0.00    +0.152 HD
BRANCH  10  14
ATOM     14  O   UNL     1       0.686  -1.424  -1.029  0.00  0.00    -0.445 OA
BRANCH  14  16
ATOM     15  C   UNL     1      -0.043   0.163   0.642  0.00  0.00    +0.055 C 
ATOM     16  C   UNL     1       0.189  -1.311   0.307  0.00  0.00    +0.107 C 
ATOM     17  C   UNL     1       1.209  -1.902   1.282  0.00  0.00    +0.055 C 
ATOM     18  C   UNL     1      -1.131  -2.075   0.425  0.00  0.00    +0.055 C 
ENDBRANCH  14  16
ENDBRANCH  10  14
ENDBRANCH   9  12
ENDBRANCH   1   9
BRANCH   7  19
ATOM     19  C   UNL     1       1.789   1.186  -5.953  0.00  0.00    +0.213 C 
BRANCH  19  20
ATOM     20  N   UNL     1       0.868   2.171  -5.380  0.00  0.00    -0.215 N 
ATOM     21  C   UNL     1      -0.341   1.867  -4.860  0.00  0.00    +0.251 C 
ATOM     22  O   UNL     1      -0.853   0.771  -4.778  0.00  0.00    -0.272 OA
ATOM     23  C   UNL     1      -0.917   3.182  -4.401  0.00  0.00    +0.138 C 
ATOM     24  C   UNL     1      -2.242   3.487  -5.111  0.00  0.00    +0.045 C 
ATOM     25  C   UNL     1      -3.022   4.261  -4.024  0.00  0.00    +0.038 C 
ATOM     26  C   UNL     1      -2.439   3.794  -2.707  0.00  0.00    -0.042 A 
ATOM     27  C   UNL     1      -1.221   3.172  -2.928  0.00  0.00    -0.012 A 
ATOM     28  C   UNL     1      -0.506   2.665  -1.855  0.00  0.00    +0.006 A 
ATOM     29  C   UNL     1      -1.001   2.777  -0.571  0.00  0.00    +0.000 A 
ATOM     30  C   UNL     1      -2.217   3.397  -0.352  0.00  0.00    +0.000 A 
ATOM     31  C   UNL     1      -2.933   3.904  -1.419  0.00  0.00    +0.004 A 
ATOM     32  N   UNL     1       0.108   4.170  -4.737  0.00  0.00    -0.281 N 
ATOM     33  C   UNL     1       1.121   3.484  -5.303  0.00  0.00    +0.310 C 
ATOM     34  O   UNL     1       2.148   3.999  -5.702  0.00  0.00    -0.252 OA
ATOM     35  H   UNL     1       0.068   5.127  -4.581  0.00  0.00    +0.152 HD
ENDBRANCH  19  20
ENDBRANCH   7  19
TORSDOF 6
