REMARK  Name = ZINC40054891
REMARK  12 active torsions:
REMARK  status: ('A' for Active; 'I' for Inactive)
REMARK    1  A    between atoms: C_1  and  C_2
REMARK    2  A    between atoms: C_5  and  C_8
REMARK    3  A    between atoms: C_8  and  O_9
REMARK    4  A    between atoms: O_9  and  C_10
REMARK    5  A    between atoms: C_14  and  C_16
REMARK    6  A    between atoms: C_16  and  C_18
REMARK    7  A    between atoms: N_22  and  C_34
REMARK    8  A    between atoms: C_23  and  C_25
REMARK    9  A    between atoms: C_29  and  N_31
REMARK   10  A    between atoms: C_34  and  C_35
REMARK   11  A    between atoms: C_35  and  C_36
REMARK   12  A    between atoms: C_36  and  O_37
REMARK                            x       y       z     vdW  Elec       q    Type
REMARK                         _______ _______ _______ _____ _____    ______ ____
ROOT
ATOM      1  C   UNL     1       4.622 -10.074   0.041  0.00  0.00    +0.076 C 
ATOM      2  C   UNL     1       5.717 -10.868   0.101  0.00  0.00    +0.249 C 
ATOM      3  C   UNL     1       5.292 -12.283   0.064  0.00  0.00    +0.288 C 
ATOM      4  O   UNL     1       6.043 -13.238   0.102  0.00  0.00    -0.266 OA
ATOM      5  N   UNL     1       3.952 -12.359  -0.018  0.00  0.00    -0.283 N 
ATOM      6  C   UNL     1       3.423 -10.990  -0.033  0.00  0.00    +0.145 C 
ATOM      7  O   UNL     1       6.996 -10.434   0.182  0.00  0.00    -0.282 OA
ENDROOT
BRANCH   6   8
ATOM      8  C   UNL     1       2.525 -10.765   1.156  0.00  0.00    -0.020 A 
ATOM      9  C   UNL     1       2.944 -11.140   2.419  0.00  0.00    +0.006 A 
ATOM     10  C   UNL     1       2.120 -10.934   3.510  0.00  0.00    +0.003 A 
ATOM     11  C   UNL     1       0.877 -10.352   3.338  0.00  0.00    +0.033 A 
ATOM     12  C   UNL     1       0.459  -9.977   2.075  0.00  0.00    +0.127 A 
ATOM     13  C   UNL     1       1.285 -10.179   0.985  0.00  0.00    +0.038 A 
BRANCH  12  14
ATOM     14  N   UNL     1      -0.872  -9.355   1.891  0.00  0.00    +0.056 N 
ATOM     15  O   UNL     1      -1.630  -9.262   2.828  0.00  0.00    -0.126 OA
ATOM     16  O   UNL     1      -1.199  -8.940   0.804  0.00  0.00    -0.126 OA
ENDBRANCH  12  14
ENDBRANCH   6   8
BRANCH   1  17
ATOM     17  C   UNL     1       4.603  -8.608   0.052  0.00  0.00    +0.195 C 
ATOM     18  O   UNL     1       5.014  -8.002   1.023  0.00  0.00    -0.287 OA
BRANCH  17  23
ATOM     19  C   UNL     1       3.509  -5.787  -2.180  0.00  0.00    +0.122 A 
ATOM     20  C   UNL     1       3.108  -6.482  -3.313  0.00  0.00    +0.046 A 
ATOM     21  C   UNL     1       3.194  -7.862  -3.351  0.00  0.00    +0.004 A 
ATOM     22  C   UNL     1       3.678  -8.557  -2.261  0.00  0.00    +0.012 A 
ATOM     23  C   UNL     1       4.084  -7.867  -1.117  0.00  0.00    +0.026 A 
ATOM     24  C   UNL     1       4.002  -6.473  -1.084  0.00  0.00    +0.057 A 
BRANCH  19  25
ATOM     25  O   UNL     1       3.422  -4.431  -2.149  0.00  0.00    -0.487 OA
BRANCH  25  26
ATOM     26  C   UNL     1       2.904  -3.787  -3.315  0.00  0.00    +0.264 C 
BRANCH  26  31
ATOM     27  C   UNL     1       2.819   1.931  -2.485  0.00  0.00    +0.044 C 
ATOM     28  C   UNL     1       2.841   0.440  -2.701  0.00  0.00    -0.050 A 
ATOM     29  C   UNL     1       3.960  -0.163  -3.247  0.00  0.00    +0.004 A 
ATOM     30  C   UNL     1       3.980  -1.531  -3.445  0.00  0.00    +0.007 A 
ATOM     31  C   UNL     1       2.882  -2.296  -3.098  0.00  0.00    -0.010 A 
ATOM     32  C   UNL     1       1.765  -1.693  -2.551  0.00  0.00    +0.007 A 
ATOM     33  C   UNL     1       1.746  -0.326  -2.349  0.00  0.00    +0.004 A 
ENDBRANCH  26  31
ENDBRANCH  25  26
ENDBRANCH  19  25
ENDBRANCH  17  23
ENDBRANCH   1  17
BRANCH   5  34
ATOM     34  C   UNL     1       3.160 -13.590  -0.076  0.00  0.00    +0.111 C 
BRANCH  34  35
ATOM     35  C   UNL     1       2.796 -14.030   1.343  0.00  0.00    +0.047 C 
BRANCH  35  36
ATOM     36  C   UNL     1       1.969 -15.316   1.282  0.00  0.00    +0.157 C 
BRANCH  36  37
ATOM     37  O   UNL     1       1.629 -15.727   2.607  0.00  0.00    -0.395 OA
ATOM     38  H   UNL     1       1.103 -16.538   2.645  0.00  0.00    +0.209 HD
ENDBRANCH  36  37
ENDBRANCH  35  36
ENDBRANCH  34  35
ENDBRANCH   5  34
TORSDOF 11
