REMARK  Name = ZINC67128920
REMARK  11 active torsions:
REMARK  status: ('A' for Active; 'I' for Inactive)
REMARK    1  A    between atoms: C_1  and  C_2
REMARK    2  A    between atoms: C_2  and  C_4
REMARK    3  A    between atoms: C_2  and  N_14
REMARK    4  A    between atoms: C_7  and  C_10
REMARK    5  A    between atoms: C_10  and  C_11
REMARK    6  A    between atoms: C_11  and  C_12
REMARK    7  A    between atoms: C_11  and  C_13
REMARK    8  A    between atoms: C_15  and  C_17
REMARK    9  A    between atoms: C_17  and  N_18
REMARK   10  A    between atoms: C_20  and  O_28
REMARK   11  A    between atoms: C_23  and  C_25
REMARK                            x       y       z     vdW  Elec       q    Type
REMARK                         _______ _______ _______ _____ _____    ______ ____
ROOT
ATOM      1  N   UNL     1       0.693  -1.283   1.040  0.00  0.00    -0.310 N 
ATOM      2  C   UNL     1       2.040  -1.227   1.055  0.00  0.00    +0.197 C 
ATOM      3  O   UNL     1       2.649  -0.997   0.032  0.00  0.00    -0.278 OA
ATOM      4  H   UNL     1       0.206  -1.467   1.859  0.00  0.00    +0.149 HD
ENDROOT
BRANCH   1   6
ATOM      5  C   UNL     1      -0.241   0.434  -0.430  0.00  0.00    +0.033 C 
ATOM      6  C   UNL     1      -0.035  -1.067  -0.213  0.00  0.00    +0.100 C 
BRANCH   6   7
ATOM      7  C   UNL     1      -1.374  -1.753  -0.140  0.00  0.00    -0.027 A 
ATOM      8  C   UNL     1      -2.108  -1.714   1.031  0.00  0.00    +0.006 A 
ATOM      9  C   UNL     1      -3.337  -2.344   1.097  0.00  0.00    +0.004 A 
ATOM     10  C   UNL     1      -3.832  -3.011  -0.007  0.00  0.00    -0.047 A 
ATOM     11  C   UNL     1      -3.099  -3.049  -1.179  0.00  0.00    +0.004 A 
ATOM     12  C   UNL     1      -1.872  -2.416  -1.246  0.00  0.00    +0.006 A 
BRANCH  10  13
ATOM     13  C   UNL     1      -5.172  -3.699   0.065  0.00  0.00    +0.038 C 
BRANCH  13  14
ATOM     14  C   UNL     1      -6.271  -2.720  -0.353  0.00  0.00    -0.013 C 
ATOM     15  C   UNL     1      -7.614  -3.450  -0.399  0.00  0.00    +0.007 C 
ATOM     16  C   UNL     1      -6.347  -1.576   0.660  0.00  0.00    +0.007 C 
ENDBRANCH  13  14
ENDBRANCH  10  13
ENDBRANCH   6   7
ENDBRANCH   1   6
BRANCH   2  17
ATOM     17  C   UNL     1       2.789  -1.450   2.344  0.00  0.00    +0.020 C 
BRANCH  17  18
ATOM     18  N   UNL     1       4.232  -1.337   2.097  0.00  0.00    +0.395 N 
ATOM     19  C   UNL     1       4.684  -2.469   1.260  0.00  0.00    -0.045 C 
ATOM     20  C   UNL     1       6.097  -2.815   1.792  0.00  0.00    +0.097 C 
ATOM     21  C   UNL     1       5.923  -2.586   3.316  0.00  0.00    +0.023 C 
ATOM     22  C   UNL     1       4.960  -1.382   3.379  0.00  0.00    +0.022 C 
ATOM     23  H   UNL     1       4.430  -0.468   1.625  0.00  0.00    -0.080 HD
BRANCH  22  24
ATOM     24  C   UNL     1       3.986  -1.562   4.515  0.00  0.00    +0.197 C 
ATOM     25  O   UNL     1       3.228  -2.508   4.519  0.00  0.00    -0.278 OA
ATOM     26  N   UNL     1       3.959  -0.672   5.527  0.00  0.00    -0.331 N 
ATOM     27  H   UNL     1       4.566   0.084   5.524  0.00  0.00    +0.145 HD
ATOM     28  H   UNL     1       3.333  -0.789   6.258  0.00  0.00    +0.145 HD
ENDBRANCH  22  24
BRANCH  20  29
ATOM     29  O   UNL     1       6.429  -4.177   1.513  0.00  0.00    -0.394 OA
ATOM     30  H   UNL     1       7.305  -4.441   1.827  0.00  0.00    +0.210 HD
ENDBRANCH  20  29
ENDBRANCH  17  18
ENDBRANCH   2  17
TORSDOF 8
