REMARK  Name = ZINC51168925
REMARK  8 active torsions:
REMARK  status: ('A' for Active; 'I' for Inactive)
REMARK    1  A    between atoms: C_1  and  C_2
REMARK    2  A    between atoms: C_2  and  C_3
REMARK    3  A    between atoms: C_2  and  C_4
REMARK    4  A    between atoms: C_6  and  N_19
REMARK    5  A    between atoms: C_8  and  C_10
REMARK    6  A    between atoms: C_13  and  O_17
REMARK    7  A    between atoms: O_17  and  C_18
REMARK    8  A    between atoms: N_19  and  N_20
REMARK                            x       y       z     vdW  Elec       q    Type
REMARK                         _______ _______ _______ _____ _____    ______ ____
ROOT
ATOM      1  C   UNL     1      -1.412  -0.526   0.013  0.00  0.00    +0.050 A 
ATOM      2  C   UNL     1      -2.094  -0.671   1.206  0.00  0.00    +0.068 A 
ATOM      3  C   UNL     1      -3.403  -1.157   1.171  0.00  0.00    +0.136 A 
ATOM      4  N   UNL     1      -3.946  -1.463  -0.002  0.00  0.00    -0.212 NA
ATOM      5  C   UNL     1      -3.258  -1.309  -1.125  0.00  0.00    +0.162 A 
ATOM      6  N   UNL     1      -2.016  -0.845  -1.121  0.00  0.00    -0.232 NA
ENDROOT
BRANCH   5   7
ATOM      7  C   UNL     1      -3.895  -1.659  -2.417  0.00  0.00    +0.020 A 
ATOM      8  C   UNL     1      -3.186  -1.510  -3.608  0.00  0.00    +0.015 A 
ATOM      9  C   UNL     1      -3.781  -1.837  -4.808  0.00  0.00    +0.047 A 
ATOM     10  C   UNL     1      -5.085  -2.314  -4.832  0.00  0.00    +0.134 A 
ATOM     11  C   UNL     1      -5.794  -2.463  -3.646  0.00  0.00    +0.060 A 
ATOM     12  C   UNL     1      -5.202  -2.144  -2.442  0.00  0.00    +0.030 A 
ATOM     13 BR   UNL     1      -7.570  -3.112  -3.683  0.00  0.00    -0.046 Br
BRANCH  10  14
ATOM     14  O   UNL     1      -5.668  -2.635  -6.016  0.00  0.00    -0.494 OA
ATOM     15  C   UNL     1      -4.882  -2.456  -7.195  0.00  0.00    +0.277 C 
ENDBRANCH  10  14
ENDBRANCH   5   7
BRANCH   1  17
ATOM     16  C   UNL     1      -0.019   1.526   0.010  0.00  0.00    +0.014 C 
ATOM     17  C   UNL     1       0.002  -0.004   0.002  0.00  0.00    +0.032 C 
ATOM     18  C   UNL     1       0.742  -0.511   1.242  0.00  0.00    +0.014 C 
ENDBRANCH   1  17
BRANCH   3  19
ATOM     19  N   UNL     1      -4.124  -1.319   2.343  0.00  0.00    -0.267 N 
ATOM     20  H   UNL     1      -3.720  -1.095   3.196  0.00  0.00    +0.167 HD
BRANCH  19  21
ATOM     21  N   UNL     1      -5.403  -1.796   2.298  0.00  0.00    -0.255 NA
ATOM     22  H   UNL     1      -5.440  -2.687   1.827  0.00  0.00    +0.140 HD
ATOM     23  H   UNL     1      -5.798  -1.859   3.224  0.00  0.00    +0.140 HD
ENDBRANCH  19  21
ENDBRANCH   3  19
TORSDOF 5
