REMARK  Name = ZINC09093991
REMARK  10 active torsions:
REMARK  status: ('A' for Active; 'I' for Inactive)
REMARK    1  A    between atoms: C_1  and  C_2
REMARK    2  A    between atoms: C_4  and  C_15
REMARK    3  A    between atoms: C_5  and  C_14
REMARK    4  A    between atoms: N_6  and  C_7
REMARK    5  A    between atoms: C_16  and  C_17
REMARK    6  A    between atoms: C_16  and  C_19
REMARK    7  A    between atoms: C_19  and  O_21
REMARK    8  A    between atoms: O_21  and  C_22
REMARK    9  A    between atoms: C_22  and  C_24
REMARK   10  A    between atoms: C_22  and  C_25
REMARK                            x       y       z     vdW  Elec       q    Type
REMARK                         _______ _______ _______ _____ _____    ______ ____
ROOT
ATOM      1  C   UNL     1       1.870   3.107   0.001  0.00  0.00    +0.035 C 
ATOM      2  C   UNL     1       1.089   4.123   0.520  0.00  0.00    +0.136 C 
ENDROOT
BRANCH   1   6
ATOM      3  C   UNL     1      -1.249  -0.865   0.081  0.00  0.00    +0.064 C 
ATOM      4  C   UNL     1      -0.029   0.015   0.000  0.00  0.00    +0.022 A 
ATOM      5  C   UNL     1      -0.028   1.354   0.098  0.00  0.00    +0.031 A 
ATOM      6  C   UNL     1       1.373   1.780  -0.037  0.00  0.00    -0.003 A 
ATOM      7  C   UNL     1       2.107   0.618  -0.210  0.00  0.00    +0.028 A 
ATOM      8  N   UNL     1       1.253  -0.424  -0.184  0.00  0.00    -0.317 N 
ATOM      9  C   UNL     1       3.601   0.534  -0.395  0.00  0.00    +0.064 C 
BRANCH   8  10
ATOM     10  C   UNL     1       1.626  -1.768  -0.328  0.00  0.00    +0.047 A 
ATOM     11  C   UNL     1       2.430  -2.372   0.629  0.00  0.00    +0.027 A 
ATOM     12  C   UNL     1       2.792  -3.697   0.487  0.00  0.00    +0.017 A 
ATOM     13  C   UNL     1       2.362  -4.420  -0.612  0.00  0.00    +0.018 A 
ATOM     14  C   UNL     1       1.565  -3.818  -1.570  0.00  0.00    +0.017 A 
ATOM     15  C   UNL     1       1.196  -2.495  -1.430  0.00  0.00    +0.027 A 
ATOM     16 BR   UNL     1       2.866  -6.232  -0.806  0.00  0.00    -0.050 Br
ENDBRANCH   8  10
ENDBRANCH   1   6
BRANCH   2  17
ATOM     17  C   UNL     1      -0.159   3.815   1.151  0.00  0.00    +0.106 C 
ATOM     18  N   UNL     1      -1.149   3.571   1.652  0.00  0.00    -0.191 NA
ENDBRANCH   2  17
BRANCH   2  19
ATOM     19  C   UNL     1       1.539   5.516   0.423  0.00  0.00    +0.350 C 
ATOM     20  O   UNL     1       2.599   5.777  -0.113  0.00  0.00    -0.244 OA
BRANCH  19  21
ATOM     21  O   UNL     1       0.777   6.507   0.930  0.00  0.00    -0.448 OA
BRANCH  21  22
ATOM     22  C   UNL     1       1.285   7.861   0.799  0.00  0.00    +0.259 C 
ATOM     23  C   UNL     1       0.789   8.467  -0.516  0.00  0.00    +0.062 C 
BRANCH  22  24
ATOM     24  C   UNL     1       0.793   8.696   1.953  0.00  0.00    +0.261 C 
ATOM     25  O   UNL     1       0.085   8.199   2.802  0.00  0.00    -0.271 OA
ATOM     26  N   UNL     1       1.141   9.995   2.042  0.00  0.00    -0.237 N 
ATOM     27  C   UNL     1       0.701  10.742   3.074  0.00  0.00    +0.303 C 
ATOM     28  O   UNL     1      -0.009  10.243   3.925  0.00  0.00    -0.253 OA
ATOM     29  N   UNL     1       1.048  12.041   3.163  0.00  0.00    -0.313 N 
ATOM     30  H   UNL     1       1.707  10.393   1.363  0.00  0.00    +0.159 HD
ATOM     31  H   UNL     1       1.615  12.438   2.483  0.00  0.00    +0.146 HD
ATOM     32  H   UNL     1       0.732  12.578   3.906  0.00  0.00    +0.146 HD
ENDBRANCH  22  24
ENDBRANCH  21  22
ENDBRANCH  19  21
ENDBRANCH   2  19
TORSDOF 7
