REMARK  Name = ZINC58982496
REMARK  8 active torsions:
REMARK  status: ('A' for Active; 'I' for Inactive)
REMARK    1  A    between atoms: C_1  and  C_2
REMARK    2  A    between atoms: C_2  and  N_3
REMARK    3  A    between atoms: N_10  and  C_13
REMARK    4  A    between atoms: C_13  and  C_14
REMARK    5  A    between atoms: C_14  and  C_15
REMARK    6  A    between atoms: N_17  and  C_18
REMARK    7  A    between atoms: C_22  and  C_24
REMARK    8  A    between atoms: C_24  and  C_31
REMARK                            x       y       z     vdW  Elec       q    Type
REMARK                         _______ _______ _______ _____ _____    ______ ____
ROOT
ATOM      1  C   UNL     1      -6.419  -0.825  -2.812  0.00  0.00    +0.219 C 
ATOM      2  O   UNL     1      -6.502  -1.974  -3.192  0.00  0.00    -0.275 OA
ATOM      3  N   UNL     1      -7.324   0.086  -3.219  0.00  0.00    -0.285 N 
ATOM      4  H   UNL     1      -7.298   0.988  -2.863  0.00  0.00    +0.155 HD
ENDROOT
BRANCH   3   5
ATOM      5  C   UNL     1      -8.303  -0.269  -4.154  0.00  0.00    +0.034 A 
ATOM      6  C   UNL     1      -8.848  -1.546  -4.140  0.00  0.00    +0.023 A 
ATOM      7  C   UNL     1      -9.813  -1.893  -5.065  0.00  0.00    +0.002 A 
ATOM      8  C   UNL     1     -10.236  -0.971  -6.005  0.00  0.00    +0.006 A 
ATOM      9  C   UNL     1      -9.695   0.301  -6.021  0.00  0.00    -0.014 A 
ATOM     10  C   UNL     1      -8.734   0.657  -5.095  0.00  0.00    +0.029 A 
BRANCH   9  11
ATOM     11  C   UNL     1     -10.159   1.303  -7.047  0.00  0.00    +0.135 C 
ATOM     12  C   UNL     1      -9.033   1.648  -8.002  0.00  0.00    +0.248 C 
ATOM     13  O   UNL     1      -7.970   2.160  -7.726  0.00  0.00    -0.273 OA
ATOM     14  N   UNL     1      -9.461   1.266  -9.222  0.00  0.00    -0.238 N 
ATOM     15  C   UNL     1     -10.687   0.734  -9.171  0.00  0.00    +0.307 C 
ATOM     16  O   UNL     1     -11.284   0.317 -10.145  0.00  0.00    -0.252 OA
ATOM     17  N   UNL     1     -11.186   0.712  -7.922  0.00  0.00    -0.282 N 
ATOM     18  C   UNL     1     -10.694   2.563  -6.364  0.00  0.00    +0.047 C 
ATOM     19  H   UNL     1      -8.943   1.366 -10.037  0.00  0.00    +0.159 HD
ATOM     20  H   UNL     1     -12.053   0.372  -7.650  0.00  0.00    +0.152 HD
ENDBRANCH   9  11
ENDBRANCH   3   5
BRANCH   1  21
ATOM     21  C   UNL     1      -5.303  -0.416  -1.886  0.00  0.00    +0.118 C 
BRANCH  21  22
ATOM     22  C   UNL     1      -4.422  -1.630  -1.582  0.00  0.00    +0.136 C 
BRANCH  22  30
ATOM     23  N   UNL     1      -1.384  -0.512   0.033  0.00  0.00    -0.292 N 
ATOM     24  C   UNL     1      -2.143  -0.802   1.164  0.00  0.00    +0.070 A 
ATOM     25  C   UNL     1      -1.893  -0.719   2.525  0.00  0.00    +0.028 A 
ATOM     26  C   UNL     1      -2.871  -1.089   3.428  0.00  0.00    +0.002 A 
ATOM     27  C   UNL     1      -4.100  -1.543   2.978  0.00  0.00    +0.002 A 
ATOM     28  C   UNL     1      -4.358  -1.630   1.625  0.00  0.00    +0.028 A 
ATOM     29  C   UNL     1      -3.382  -1.260   0.711  0.00  0.00    +0.070 A 
ATOM     30  N   UNL     1      -3.337  -1.233  -0.681  0.00  0.00    -0.292 N 
ATOM     31  C   UNL     1      -2.128  -0.775  -1.057  0.00  0.00    +0.330 A 
ATOM     32  O   UNL     1      -1.763  -0.624  -2.208  0.00  0.00    -0.246 OA
BRANCH  23  34
ATOM     33  C   UNL     1      -0.035   1.529   0.047  0.00  0.00    +0.027 C 
ATOM     34  C   UNL     1      -0.011  -0.001   0.031  0.00  0.00    +0.123 C 
ENDBRANCH  23  34
ENDBRANCH  22  30
ENDBRANCH  21  22
ENDBRANCH   1  21
TORSDOF 6
