REMARK  Name = ZINC28286517
REMARK  3 active torsions:
REMARK  status: ('A' for Active; 'I' for Inactive)
REMARK    1  A    between atoms: C_1  and  C_2
REMARK    2  A    between atoms: C_4  and  C_26
REMARK    3  A    between atoms: C_18  and  N_21
REMARK                            x       y       z     vdW  Elec       q    Type
REMARK                         _______ _______ _______ _____ _____    ______ ____
ROOT
ATOM      1  C   UNL     1      -0.846  -2.697   0.174  0.00  0.00    +0.067 C 
ATOM      2  C   UNL     1       0.079  -1.507   0.169  0.00  0.00    +0.061 A 
ATOM      3  C   UNL     1      -0.313  -0.165   0.232  0.00  0.00    +0.048 A 
ATOM      4  C   UNL     1       0.803   0.598   0.204  0.00  0.00    +0.045 A 
ATOM      5  N   UNL     1       1.872  -0.240   0.127  0.00  0.00    -0.206 N 
ATOM      6  N   UNL     1       1.385  -1.554   0.106  0.00  0.00    -0.169 NA
ATOM      7  C   UNL     1       3.205   0.137   0.077  0.00  0.00    +0.219 C 
ATOM      8  N   UNL     1       3.523   1.418   0.099  0.00  0.00    -0.207 NA
ATOM      9  C   UNL     1       4.825   1.746  -0.024  0.00  0.00    +0.111 A 
ATOM     10  C   UNL     1       5.833   0.880  -0.395  0.00  0.00    +0.024 A 
ATOM     11  C   UNL     1       7.134   1.387  -0.460  0.00  0.00    -0.029 A 
ATOM     12  C   UNL     1       7.307   2.704  -0.160  0.00  0.00    -0.005 A 
ATOM     13  S   UNL     1       5.672   3.278   0.227  0.00  0.00    -0.073 S 
ATOM     14  C   UNL     1       8.585   3.478  -0.159  0.00  0.00    +0.043 C 
ATOM     15  C   UNL     1       9.754   2.482  -0.193  0.00  0.00    +0.005 C 
ATOM     16  C   UNL     1       9.478   1.440  -1.281  0.00  0.00    +0.005 C 
ATOM     17  C   UNL     1       8.332   0.525  -0.851  0.00  0.00    +0.036 C 
ATOM     18  C   UNL     1       5.448  -0.566  -0.706  0.00  0.00    +0.178 C 
ATOM     19  N   UNL     1       4.183  -0.826  -0.001  0.00  0.00    -0.294 N 
ATOM     20  C   UNL     1       0.855   2.103   0.251  0.00  0.00    +0.066 C 
ATOM     21  H   UNL     1       4.009  -1.802   0.474  0.00  0.00    +0.151 HD
ENDROOT
BRANCH  18  22
ATOM     22  N   UNL     1       5.261  -0.736  -2.153  0.00  0.00    -0.281 NA
ATOM     23  C   UNL     1       4.584  -2.023  -2.454  0.00  0.00    +0.086 C 
ATOM     24  C   UNL     1       4.012  -1.799  -3.877  0.00  0.00    +0.017 C 
ATOM     25  C   UNL     1       3.566  -0.319  -3.840  0.00  0.00    +0.017 C 
ATOM     26  C   UNL     1       4.383   0.320  -2.702  0.00  0.00    +0.086 C 
ENDBRANCH  18  22
TORSDOF 1
