REMARK  Name = ZINC13574520
REMARK  4 active torsions:
REMARK  status: ('A' for Active; 'I' for Inactive)
REMARK    1  A    between atoms: C_3  and  C_6
REMARK    2  A    between atoms: N_31  and  C_34
REMARK    3  A    between atoms: C_34  and  C_35
REMARK    4  A    between atoms: C_35  and  C_36
REMARK                            x       y       z     vdW  Elec       q    Type
REMARK                         _______ _______ _______ _____ _____    ______ ____
ROOT
ATOM      1  C   UNL     1       1.619  -2.041  -0.007  0.00  0.00    +0.070 C 
ATOM      2  C   UNL     1       1.228  -0.578  -0.008  0.00  0.00    +0.033 A 
ATOM      3  C   UNL     1       0.002  -0.004   0.002  0.00  0.00    +0.087 A 
ATOM      4  N   UNL     1      -0.017   1.370   0.010  0.00  0.00    -0.311 N 
ATOM      5  H   UNL     1      -0.864   1.842   0.024  0.00  0.00    +0.170 HD
ATOM      6  C   UNL     1       1.137   2.068   0.002  0.00  0.00    +0.289 A 
ATOM      7  O   UNL     1       1.298   3.276   0.007  0.00  0.00    -0.260 OA
ATOM      8  S   UNL     1       2.332   0.810  -0.015  0.00  0.00    -0.030 S 
ATOM      9  S   UNL     1      -1.499  -0.990  -0.001  0.00  0.00    -0.103 S 
ATOM     10  C   UNL     1      -0.791  -2.548  -0.620  0.00  0.00    +0.061 C 
ATOM     11  C   UNL     1       0.399  -2.787   0.354  0.00  0.00    +0.019 C 
ATOM     12  C   UNL     1       0.236  -4.215   0.879  0.00  0.00    +0.007 C 
ATOM     13  C   UNL     1      -0.432  -4.842  -0.431  0.00  0.00    +0.010 C 
ATOM     14  C   UNL     1      -1.647  -3.796  -0.498  0.00  0.00    +0.015 C 
ATOM     15  C   UNL     1      -2.232  -4.214   0.826  0.00  0.00    +0.092 C 
ATOM     16  C   UNL     1      -0.966  -4.024   1.752  0.00  0.00    +0.091 C 
ATOM     17  C   UNL     1      -1.521  -4.329   3.046  0.00  0.00    +0.226 C 
ATOM     18  O   UNL     1      -1.021  -4.957   3.952  0.00  0.00    -0.275 OA
ATOM     19  N   UNL     1      -2.763  -3.719   2.982  0.00  0.00    -0.241 N 
ATOM     20  C   UNL     1      -3.132  -3.397   1.698  0.00  0.00    +0.226 C 
ATOM     21  O   UNL     1      -3.996  -2.621   1.351  0.00  0.00    -0.275 OA
ENDROOT
BRANCH   1  24
ATOM     22  C   UNL     1       3.626  -3.268  -3.003  0.00  0.00    +0.008 A 
ATOM     23  C   UNL     1       3.364  -2.949  -1.684  0.00  0.00    +0.012 A 
ATOM     24  C   UNL     1       2.144  -2.456  -1.357  0.00  0.00    -0.002 A 
ATOM     25  S   UNL     1       1.324  -2.418  -2.942  0.00  0.00    -0.101 S 
ATOM     26  C   UNL     1       2.659  -3.068  -3.932  0.00  0.00    +0.045 A 
ENDBRANCH   1  24
BRANCH  19  27
ATOM     27  C   UNL     1      -3.567  -3.401   4.164  0.00  0.00    +0.127 C 
BRANCH  27  28
ATOM     28  C   UNL     1      -4.528  -4.557   4.453  0.00  0.00    +0.144 C 
BRANCH  28  29
ATOM     29  C   UNL     1      -5.355  -4.231   5.669  0.00  0.00    +0.358 C 
ATOM     30  O   UNL     1      -5.194  -3.181   6.246  0.00  0.00    -0.246 OA
ATOM     31  O   UNL     1      -6.272  -5.106   6.112  0.00  0.00    -0.246 OA
ENDBRANCH  28  29
ENDBRANCH  27  28
ENDBRANCH  19  27
TORSDOF 4
