REMARK  Name = ZINC06150206
REMARK  6 active torsions:
REMARK  status: ('A' for Active; 'I' for Inactive)
REMARK    1  A    between atoms: C_1  and  C_2
REMARK    2  A    between atoms: C_2  and  O_3
REMARK    3  A    between atoms: O_3  and  C_4
REMARK    4  A    between atoms: C_9  and  N_10
REMARK    5  A    between atoms: C_24  and  C_33
REMARK    6  A    between atoms: C_34  and  C_36
REMARK                            x       y       z     vdW  Elec       q    Type
REMARK                         _______ _______ _______ _____ _____    ______ ____
ROOT
ATOM      1  N   UNL     1      -0.439   7.729  -2.119  0.00  0.00    -0.294 N 
ATOM      2  C   UNL     1       0.860   8.182  -1.981  0.00  0.00    +0.164 C 
ATOM      3  N   UNL     1       1.179   9.387  -2.386  0.00  0.00    -0.227 NA
ATOM      4  C   UNL     1       2.443   9.866  -2.267  0.00  0.00    +0.087 A 
ATOM      5  C   UNL     1       2.746  11.159  -2.711  0.00  0.00    +0.030 A 
ATOM      6  C   UNL     1       4.029  11.644  -2.590  0.00  0.00    +0.002 A 
ATOM      7  C   UNL     1       5.026  10.860  -2.030  0.00  0.00    +0.002 A 
ATOM      8  C   UNL     1       4.746   9.584  -1.588  0.00  0.00    +0.025 A 
ATOM      9  C   UNL     1       3.458   9.076  -1.700  0.00  0.00    +0.062 A 
ATOM     10  N   UNL     1       3.166   7.798  -1.260  0.00  0.00    -0.266 N 
ATOM     11  C   UNL     1       1.884   7.309  -1.379  0.00  0.00    +0.169 C 
ATOM     12  N   UNL     1       1.562   6.105  -0.975  0.00  0.00    -0.209 NA
ATOM     13  C   UNL     1       2.423   5.231  -0.412  0.00  0.00    +0.166 A 
ATOM     14  C   UNL     1       3.752   5.568  -0.221  0.00  0.00    +0.048 A 
ATOM     15  C   UNL     1       4.393   4.489   0.370  0.00  0.00    +0.068 A 
ATOM     16  N   UNL     1       3.518   3.530   0.548  0.00  0.00    -0.168 NA
ATOM     17  N   UNL     1       2.274   3.955   0.064  0.00  0.00    -0.196 N 
ATOM     18  C   UNL     1       1.091   3.213   0.072  0.00  0.00    +0.156 A 
ATOM     19  C   UNL     1       1.150   1.824   0.080  0.00  0.00    +0.048 A 
ATOM     20  C   UNL     1      -0.030   1.101   0.087  0.00  0.00    +0.005 A 
ATOM     21  C   UNL     1      -1.232   1.794   0.079  0.00  0.00    +0.020 A 
ATOM     22  C   UNL     1      -1.216   3.175   0.077  0.00  0.00    +0.113 A 
ATOM     23  N   UNL     1      -0.075   3.838   0.070  0.00  0.00    -0.236 NA
ATOM     24  C   UNL     1       5.850   4.433   0.750  0.00  0.00    +0.068 C 
ATOM     25  C   UNL     1       4.202   6.943  -0.662  0.00  0.00    +0.182 C 
ATOM     26  H   UNL     1      -0.658   6.810  -1.900  0.00  0.00    +0.154 HD
ENDROOT
BRANCH   1  32
ATOM     27  C   UNL     1      -2.577   8.086  -3.195  0.00  0.00    +0.142 A 
ATOM     28  C   UNL     1      -3.562   8.949  -3.646  0.00  0.00    +0.047 A 
ATOM     29  C   UNL     1      -3.415  10.314  -3.480  0.00  0.00    +0.004 A 
ATOM     30  C   UNL     1      -2.284  10.822  -2.866  0.00  0.00    +0.002 A 
ATOM     31  C   UNL     1      -1.299   9.967  -2.409  0.00  0.00    +0.027 A 
ATOM     32  C   UNL     1      -1.438   8.597  -2.576  0.00  0.00    +0.075 A 
BRANCH  27  33
ATOM     33  O   UNL     1      -2.721   6.744  -3.357  0.00  0.00    -0.490 OA
BRANCH  33  35
ATOM     34  C   UNL     1      -3.899   4.765  -4.091  0.00  0.00    +0.048 C 
ATOM     35  C   UNL     1      -3.915   6.292  -4.000  0.00  0.00    +0.226 C 
ENDBRANCH  33  35
ENDBRANCH  27  33
ENDBRANCH   1  32
BRANCH  25  36
ATOM     36  C   UNL     1       5.309   6.771  -1.670  0.00  0.00    +0.130 A 
ATOM     37  C   UNL     1       6.626   6.769  -1.399  0.00  0.00    +0.047 A 
ATOM     38  C   UNL     1       7.297   6.579  -2.629  0.00  0.00    +0.041 A 
ATOM     39  C   UNL     1       6.349   6.476  -3.578  0.00  0.00    +0.195 A 
ATOM     40  O   UNL     1       5.147   6.587  -2.990  0.00  0.00    -0.466 OA
ENDBRANCH  25  36
TORSDOF 4
