REMARK  Name = ZINC33615757
REMARK  6 active torsions:
REMARK  status: ('A' for Active; 'I' for Inactive)
REMARK    1  A    between atoms: C_1  and  C_2
REMARK    2  A    between atoms: C_2  and  C_28
REMARK    3  A    between atoms: C_6  and  C_18
REMARK    4  A    between atoms: C_11  and  S_15
REMARK    5  A    between atoms: S_15  and  C_16
REMARK    6  A    between atoms: C_21  and  O_24
REMARK                            x       y       z     vdW  Elec       q    Type
REMARK                         _______ _______ _______ _____ _____    ______ ____
ROOT
ATOM      1  C   UNL     1      -1.083   8.851  -2.714  0.00  0.00    +0.011 C 
ATOM      2  C   UNL     1      -1.756   7.643  -3.368  0.00  0.00    -0.023 C 
ATOM      3  C   UNL     1      -2.770   7.032  -2.398  0.00  0.00    +0.058 C 
ATOM      4  C   UNL     1      -2.060   6.560  -1.152  0.00  0.00    +0.017 C 
ATOM      5  C   UNL     1      -0.786   6.117  -1.205  0.00  0.00    +0.024 C 
ATOM      6  C   UNL     1      -0.074   5.628   0.031  0.00  0.00    +0.090 C 
ATOM      7  C   UNL     1      -0.758   6.103   1.278  0.00  0.00    +0.044 A 
ATOM      8  C   UNL     1      -0.093   6.083   2.502  0.00  0.00    +0.126 A 
ATOM      9  N   UNL     1      -0.734   6.513   3.587  0.00  0.00    -0.207 NA
ATOM     10  C   UNL     1      -1.982   6.953   3.510  0.00  0.00    +0.191 A 
ATOM     11  N   UNL     1      -2.642   6.983   2.361  0.00  0.00    -0.206 NA
ATOM     12  C   UNL     1      -2.062   6.569   1.238  0.00  0.00    +0.133 A 
ATOM     13  N   UNL     1      -2.743   6.599   0.032  0.00  0.00    -0.302 N 
ATOM     14  N   UNL     1       1.212   5.624   2.590  0.00  0.00    -0.343 N 
ATOM     15  C   UNL     1      -0.075   6.099  -2.418  0.00  0.00    +0.162 C 
ATOM     16  O   UNL     1       1.067   5.685  -2.433  0.00  0.00    -0.292 OA
ATOM     17  C   UNL     1      -0.700   6.582  -3.698  0.00  0.00    +0.086 C 
ATOM     18  C   UNL     1      -2.464   8.080  -4.651  0.00  0.00    +0.011 C 
ATOM     19  H   UNL     1      -3.842   6.655   0.032  0.00  0.00    +0.153 HD
ATOM     20  H   UNL     1       1.727   5.613   3.562  0.00  0.00    +0.144 HD
ATOM     21  H   UNL     1       1.732   5.271   1.688  0.00  0.00    +0.144 HD
ENDROOT
BRANCH   6  22
ATOM     22  C   UNL     1      -0.054   4.121   0.024  0.00  0.00    -0.035 A 
ATOM     23  C   UNL     1       1.153   3.447   0.009  0.00  0.00    +0.008 A 
ATOM     24  C   UNL     1       1.175   2.066   0.002  0.00  0.00    +0.046 A 
ATOM     25  C   UNL     1      -0.016   1.355   0.009  0.00  0.00    +0.117 A 
ATOM     26  C   UNL     1      -1.226   2.033   0.019  0.00  0.00    +0.046 A 
ATOM     27  C   UNL     1      -1.242   3.414   0.031  0.00  0.00    +0.008 A 
BRANCH  25  28
ATOM     28  O   UNL     1       0.002  -0.004   0.002  0.00  0.00    -0.507 OA
ATOM     29  H   UNL     1      -0.943  -0.567   0.008  0.00  0.00    +0.292 HD
ENDBRANCH  25  28
ENDBRANCH   6  22
BRANCH  10  30
ATOM     30  S   UNL     1      -2.786   7.511   4.976  0.00  0.00    -0.089 S 
ATOM     31  C   UNL     1      -1.461   7.248   6.180  0.00  0.00    +0.093 C 
ENDBRANCH  10  30
TORSDOF 3
