REMARK  Name = ZINC20149897
REMARK  9 active torsions:
REMARK  status: ('A' for Active; 'I' for Inactive)
REMARK    1  A    between atoms: C_1  and  C_2
REMARK    2  A    between atoms: C_16  and  O_17
REMARK    3  A    between atoms: C_24  and  O_25
REMARK    4  A    between atoms: N_26  and  C_27
REMARK    5  A    between atoms: C_27  and  C_28
REMARK    6  A    between atoms: C_28  and  N_29
REMARK    7  A    between atoms: N_29  and  C_30
REMARK    8  A    between atoms: N_29  and  C_31
REMARK    9  A    between atoms: C_31  and  C_32
REMARK                            x       y       z     vdW  Elec       q    Type
REMARK                         _______ _______ _______ _____ _____    ______ ____
ROOT
ATOM      1  C   UNL     1       1.134   6.332   0.023  0.00  0.00    +0.046 C 
ATOM      2  C   UNL     1      -0.137   5.522   0.000  0.00  0.00    -0.021 A 
ATOM      3  C   UNL     1      -1.364   6.160  -0.013  0.00  0.00    +0.005 A 
ATOM      4  C   UNL     1      -2.531   5.418  -0.033  0.00  0.00    +0.004 A 
ATOM      5  C   UNL     1      -2.478   4.036  -0.039  0.00  0.00    +0.048 A 
ATOM      6  C   UNL     1      -1.253   3.389  -0.025  0.00  0.00    +0.154 A 
ATOM      7  C   UNL     1      -0.077   4.137  -0.005  0.00  0.00    +0.110 A 
ATOM      8  N   UNL     1       1.161   3.485   0.009  0.00  0.00    -0.240 NA
ATOM      9  C   UNL     1       1.191   2.099   0.002  0.00  0.00    +0.118 A 
ATOM     10  C   UNL     1      -0.017   1.376  -0.019  0.00  0.00    +0.156 A 
ATOM     11  O   UNL     1      -1.203   2.032  -0.026  0.00  0.00    -0.452 OA
ATOM     12  C   UNL     1       0.002  -0.004  -0.026  0.00  0.00    +0.074 A 
ATOM     13  C   UNL     1       1.212  -0.697  -0.014  0.00  0.00    +0.050 A 
ATOM     14  C   UNL     1       2.424   0.006   0.006  0.00  0.00    +0.053 A 
ATOM     15  C   UNL     1       2.411   1.422   0.014  0.00  0.00    +0.059 A 
ATOM     16  C   UNL     1       3.676   2.168   0.035  0.00  0.00    +0.135 A 
ATOM     17  C   UNL     1       4.961   1.438   0.047  0.00  0.00    +0.028 A 
ATOM     18  C   UNL     1       6.166   2.136   0.067  0.00  0.00    +0.012 A 
ATOM     19  C   UNL     1       7.363   1.445   0.079  0.00  0.00    +0.001 A 
ATOM     20  C   UNL     1       7.373   0.061   0.071  0.00  0.00    +0.001 A 
ATOM     21  C   UNL     1       6.187  -0.648   0.051  0.00  0.00    +0.012 A 
ATOM     22  C   UNL     1       4.972   0.032   0.039  0.00  0.00    +0.028 A 
ATOM     23  C   UNL     1       3.699  -0.717   0.018  0.00  0.00    +0.134 A 
ATOM     24  N   UNL     1       1.216  -2.083  -0.022  0.00  0.00    -0.386 N 
ATOM     25  H   UNL     1       2.166  -2.629  -0.118  0.00  0.00    +0.160 HD
ENDROOT
BRANCH  16  26
ATOM     26  O   UNL     1       3.667   3.384   0.041  0.00  0.00    -0.505 OA
ATOM     27  H   UNL     1       4.615   3.942   0.057  0.00  0.00    +0.292 HD
ENDBRANCH  16  26
BRANCH  23  28
ATOM     28  O   UNL     1       3.708  -1.935   0.012  0.00  0.00    -0.505 OA
ATOM     29  H   UNL     1       4.665  -2.477   0.021  0.00  0.00    +0.292 HD
ENDBRANCH  23  28
BRANCH  24  30
ATOM     30  C   UNL     1      -0.044  -2.820   0.097  0.00  0.00    +0.094 C 
BRANCH  30  31
ATOM     31  C   UNL     1       0.239  -4.323   0.061  0.00  0.00    -0.058 C 
BRANCH  31  32
ATOM     32  N   UNL     1      -1.025  -5.062   0.181  0.00  0.00    +0.382 N 
ATOM     33  C   UNL     1      -1.879  -4.839  -0.994  0.00  0.00    -0.096 C 
ATOM     34  H   UNL     1      -1.558  -4.679   1.063  0.00  0.00    -0.082 HD
BRANCH  32  35
ATOM     35  C   UNL     1      -0.779  -6.495   0.388  0.00  0.00    -0.043 C 
BRANCH  35  36
ATOM     36  C   UNL     1      -2.073  -7.179   0.749  0.00  0.00    -0.064 A 
ATOM     37  C   UNL     1      -2.448  -7.294   2.075  0.00  0.00    +0.002 A 
ATOM     38  C   UNL     1      -3.636  -7.917   2.406  0.00  0.00    +0.000 A 
ATOM     39  C   UNL     1      -4.445  -8.435   1.412  0.00  0.00    +0.000 A 
ATOM     40  C   UNL     1      -4.067  -8.326   0.086  0.00  0.00    +0.000 A 
ATOM     41  C   UNL     1      -2.881  -7.698  -0.245  0.00  0.00    +0.002 A 
ENDBRANCH  35  36
ENDBRANCH  32  35
ENDBRANCH  31  32
ENDBRANCH  30  31
ENDBRANCH  24  30
TORSDOF 7
