REMARK  Name = ZINC44737241
REMARK  9 active torsions:
REMARK  status: ('A' for Active; 'I' for Inactive)
REMARK    1  A    between atoms: C_1  and  C_2
REMARK    2  A    between atoms: C_9  and  C_11
REMARK    3  A    between atoms: C_11  and  C_13
REMARK    4  A    between atoms: C_11  and  N_14
REMARK    5  A    between atoms: C_15  and  C_17
REMARK    6  A    between atoms: C_28  and  C_30
REMARK    7  A    between atoms: C_30  and  C_32
REMARK    8  A    between atoms: C_30  and  O_33
REMARK    9  A    between atoms: O_33  and  C_34
REMARK                            x       y       z     vdW  Elec       q    Type
REMARK                         _______ _______ _______ _____ _____    ______ ____
ROOT
ATOM      1  C   UNL     1       1.869  -8.713   0.951  0.00  0.00    +0.100 C 
ATOM      2  C   UNL     1       2.964  -8.067   0.072  0.00  0.00    +0.121 C 
ATOM      3  N   UNL     1       4.228  -8.321   0.803  0.00  0.00    -0.297 N 
ATOM      4  C   UNL     1       4.078  -9.697   1.333  0.00  0.00    +0.115 C 
ATOM      5  C   UNL     1       2.604  -9.785   1.774  0.00  0.00    -0.004 C 
ATOM      6  C   UNL     1       2.040 -11.168   1.463  0.00  0.00    -0.010 C 
ATOM      7  C   UNL     1       2.746 -12.210   2.335  0.00  0.00    -0.082 C 
ATOM      8  N   UNL     1       2.542 -11.883   3.752  0.00  0.00    +0.379 N 
ATOM      9  C   UNL     1       3.169 -10.593   4.064  0.00  0.00    -0.082 C 
ATOM     10  C   UNL     1       2.481  -9.483   3.264  0.00  0.00    -0.010 C 
ATOM     11  C   UNL     1       5.277  -7.488   0.953  0.00  0.00    +0.256 C 
ATOM     12  O   UNL     1       5.212  -6.350   0.538  0.00  0.00    -0.272 OA
ATOM     13  H   UNL     1       1.553 -11.831   3.945  0.00  0.00    -0.086 HD
ATOM     14  H   UNL     1       2.956 -12.604   4.325  0.00  0.00    -0.086 HD
ENDROOT
BRANCH   1  16
ATOM     15  N   UNL     1      -0.034  -7.806   2.245  0.00  0.00    -0.305 N 
ATOM     16  C   UNL     1       1.253  -7.683   1.862  0.00  0.00    +0.219 C 
ATOM     17  O   UNL     1       1.914  -6.744   2.251  0.00  0.00    -0.275 OA
ATOM     18  H   UNL     1      -0.562  -8.558   1.935  0.00  0.00    +0.149 HD
BRANCH  15  19
ATOM     19  C   UNL     1      -0.633  -6.805   3.131  0.00  0.00    +0.136 C 
ATOM     20  C   UNL     1      -0.319  -7.158   4.586  0.00  0.00    +0.036 C 
BRANCH  19  29
ATOM     21  C   UNL     1      -7.931  -5.454   2.583  0.00  0.00    +0.044 C 
ATOM     22  C   UNL     1      -6.591  -6.143   2.531  0.00  0.00    -0.048 A 
ATOM     23  C   UNL     1      -6.508  -7.455   2.088  0.00  0.00    +0.005 A 
ATOM     24  C   UNL     1      -5.304  -8.097   2.034  0.00  0.00    +0.030 A 
ATOM     25  C   UNL     1      -4.141  -7.430   2.427  0.00  0.00    +0.089 A 
ATOM     26  C   UNL     1      -4.224  -6.101   2.875  0.00  0.00    +0.067 A 
ATOM     27  C   UNL     1      -5.457  -5.463   2.919  0.00  0.00    +0.031 A 
ATOM     28  N   UNL     1      -2.934  -5.721   3.186  0.00  0.00    -0.340 N 
ATOM     29  C   UNL     1      -2.126  -6.786   2.930  0.00  0.00    +0.128 A 
ATOM     30  N   UNL     1      -2.831  -7.785   2.486  0.00  0.00    -0.231 NA
ATOM     31  H   UNL     1      -2.654  -4.856   3.524  0.00  0.00    +0.167 HD
ENDBRANCH  19  29
ENDBRANCH  15  19
ENDBRANCH   1  16
BRANCH  11  32
ATOM     32  C   UNL     1       6.531  -7.970   1.635  0.00  0.00    +0.256 C 
ATOM     33  C   UNL     1       7.225  -9.009   0.751  0.00  0.00    +0.062 C 
BRANCH  32  34
ATOM     34  O   UNL     1       7.411  -6.865   1.852  0.00  0.00    -0.480 OA
BRANCH  34  35
ATOM     35  C   UNL     1       8.305  -6.979   2.869  0.00  0.00    +0.122 A 
ATOM     36  C   UNL     1       9.104  -5.899   3.215  0.00  0.00    +0.045 A 
ATOM     37  C   UNL     1      10.013  -6.017   4.249  0.00  0.00    +0.004 A 
ATOM     38  C   UNL     1      10.126  -7.211   4.939  0.00  0.00    +0.000 A 
ATOM     39  C   UNL     1       9.331  -8.288   4.595  0.00  0.00    +0.004 A 
ATOM     40  C   UNL     1       8.417  -8.173   3.566  0.00  0.00    +0.045 A 
ENDBRANCH  34  35
ENDBRANCH  32  34
ENDBRANCH  11  32
TORSDOF 6
