REMARK  Name = ZINC43221065
REMARK  6 active torsions:
REMARK  status: ('A' for Active; 'I' for Inactive)
REMARK    1  A    between atoms: C_1  and  C_2
REMARK    2  A    between atoms: C_2  and  C_4
REMARK    3  A    between atoms: C_2  and  O_35
REMARK    4  A    between atoms: C_4  and  C_32
REMARK    5  A    between atoms: C_9  and  C_12
REMARK    6  A    between atoms: N_23  and  C_26
REMARK                            x       y       z     vdW  Elec       q    Type
REMARK                         _______ _______ _______ _____ _____    ______ ____
ROOT
ATOM      1  C   UNL     1       0.742  -0.511   1.242  0.00  0.00    +0.074 C 
ATOM      2  C   UNL     1       0.718  -2.030   1.284  0.00  0.00    +0.088 C 
ATOM      3  C   UNL     1       1.984  -2.308   0.387  0.00  0.00    +0.080 C 
ATOM      4  C   UNL     1       2.984  -1.407   0.983  0.00  0.00    +0.010 C 
ATOM      5  N   UNL     1       2.186  -0.135   1.171  0.00  0.00    +0.399 N 
ATOM      6  C   UNL     1       1.807  -3.700   0.056  0.00  0.00    +0.225 C 
ATOM      7  O   UNL     1       2.671  -4.536  -0.103  0.00  0.00    -0.275 OA
ATOM      8  N   UNL     1       0.449  -3.875  -0.041  0.00  0.00    -0.239 N 
ATOM      9  C   UNL     1      -0.266  -2.818   0.477  0.00  0.00    +0.225 C 
ATOM     10  O   UNL     1      -1.442  -2.571   0.314  0.00  0.00    -0.275 OA
ATOM     11  H   UNL     1       2.339   0.490   0.393  0.00  0.00    -0.083 HD
ATOM     12  H   UNL     1       2.465   0.314   2.030  0.00  0.00    -0.083 HD
ENDROOT
BRANCH   4  13
ATOM     13  C   UNL     1       3.482  -1.953   2.296  0.00  0.00    +0.093 A 
ATOM     14  C   UNL     1       4.640  -2.606   2.467  0.00  0.00    +0.051 A 
ATOM     15  C   UNL     1       4.711  -2.948   3.892  0.00  0.00    +0.020 A 
ATOM     16  C   UNL     1       5.641  -3.613   4.690  0.00  0.00    +0.011 A 
ATOM     17  C   UNL     1       5.398  -3.770   6.027  0.00  0.00    +0.001 A 
ATOM     18  C   UNL     1       4.234  -3.271   6.592  0.00  0.00    +0.004 A 
ATOM     19  C   UNL     1       3.303  -2.610   5.819  0.00  0.00    +0.047 A 
ATOM     20  C   UNL     1       3.530  -2.440   4.459  0.00  0.00    +0.135 A 
ATOM     21  O   UNL     1       2.832  -1.850   3.469  0.00  0.00    -0.461 OA
ENDBRANCH   4  13
BRANCH   8  22
ATOM     22  C   UNL     1      -0.177  -5.064  -0.624  0.00  0.00    +0.084 C 
ATOM     23  C   UNL     1       0.267  -5.212  -2.080  0.00  0.00    +0.023 C 
ATOM     24  C   UNL     1      -0.387  -6.454  -2.689  0.00  0.00    +0.002 C 
ATOM     25  C   UNL     1       0.037  -7.693  -1.898  0.00  0.00    +0.000 C 
ATOM     26  C   UNL     1      -0.408  -7.545  -0.441  0.00  0.00    +0.002 C 
ATOM     27  C   UNL     1       0.246  -6.303   0.168  0.00  0.00    +0.023 C 
ENDBRANCH   8  22
BRANCH   1  28
ATOM     28  C   UNL     1       0.117   0.057   2.490  0.00  0.00    +0.349 C 
ATOM     29  O   UNL     1      -1.050  -0.182   2.750  0.00  0.00    -0.248 OA
ATOM     30  O   UNL     1       0.777   0.755   3.239  0.00  0.00    -0.248 OA
ENDBRANCH   1  28
BRANCH   1  32
ATOM     31  C   UNL     1      -0.011   1.526   0.006  0.00  0.00    +0.037 C 
ATOM     32  C   UNL     1       0.002  -0.004   0.002  0.00  0.00    +0.112 C 
BRANCH  32  33
ATOM     33  O   UNL     1       0.666  -0.472  -1.174  0.00  0.00    -0.393 OA
ATOM     34  H   UNL     1       0.250  -0.188  -1.999  0.00  0.00    +0.210 HD
ENDBRANCH  32  33
ENDBRANCH   1  32
TORSDOF 5
