REMARK  Name = ZINC33276710
REMARK  11 active torsions:
REMARK  status: ('A' for Active; 'I' for Inactive)
REMARK    1  A    between atoms: C_1  and  C_2
REMARK    2  A    between atoms: C_2  and  C_3
REMARK    3  A    between atoms: C_4  and  C_15
REMARK    4  A    between atoms: C_18  and  O_30
REMARK    5  A    between atoms: C_19  and  S_21
REMARK    6  A    between atoms: S_21  and  N_24
REMARK    7  A    between atoms: N_24  and  C_25
REMARK    8  A    between atoms: C_25  and  C_27
REMARK    9  A    between atoms: C_25  and  C_28
REMARK   10  A    between atoms: C_28  and  C_29
REMARK   11  A    between atoms: O_30  and  C_31
REMARK                            x       y       z     vdW  Elec       q    Type
REMARK                         _______ _______ _______ _____ _____    ______ ____
ROOT
ATOM      1  C   UNL     1       1.079  -3.117   0.711  0.00  0.00    -0.011 A 
ATOM      2  C   UNL     1       1.581  -3.415  -0.555  0.00  0.00    +0.012 A 
ATOM      3  C   UNL     1       2.273  -4.590  -0.762  0.00  0.00    +0.048 A 
ATOM      4  C   UNL     1       2.469  -5.476   0.288  0.00  0.00    +0.146 A 
ATOM      5  C   UNL     1       1.971  -5.183   1.550  0.00  0.00    +0.147 A 
ATOM      6  C   UNL     1       1.283  -4.006   1.765  0.00  0.00    +0.041 A 
ENDROOT
BRANCH   1   8
ATOM      7  C   UNL     1      -1.023  -1.740   1.287  0.00  0.00    +0.073 A 
ATOM      8  C   UNL     1       0.335  -1.854   0.937  0.00  0.00    +0.045 A 
ATOM      9  C   UNL     1       0.852  -0.567   0.842  0.00  0.00    +0.139 A 
ATOM     10  N   UNL     1      -0.145   0.285   1.198  0.00  0.00    -0.185 N 
ATOM     11  N   UNL     1      -1.309  -0.476   1.416  0.00  0.00    -0.167 NA
ATOM     12  C   UNL     1      -0.114   1.624   1.362  0.00  0.00    +0.250 C 
ATOM     13  O   UNL     1      -1.153   2.201   1.578  0.00  0.00    -0.271 OA
ATOM     14  C   UNL     1       1.126   2.419   1.285  0.00  0.00    +0.110 C 
ATOM     15  C   UNL     1       2.357   1.710   1.784  0.00  0.00    +0.105 C 
ATOM     16  C   UNL     1       2.886   0.744   0.777  0.00  0.00    +0.219 C 
ATOM     17  O   UNL     1       3.994   0.899   0.308  0.00  0.00    -0.275 OA
ATOM     18  N   UNL     1       2.129  -0.303   0.388  0.00  0.00    -0.270 N 
ATOM     19  H   UNL     1       2.601  -0.973  -0.346  0.00  0.00    +0.156 HD
BRANCH   7  21
ATOM     20  C   UNL     1      -2.663  -3.211   0.149  0.00  0.00    +0.010 C 
ATOM     21  C   UNL     1      -1.983  -2.885   1.480  0.00  0.00    +0.054 C 
ENDBRANCH   7  21
ENDBRANCH   1   8
BRANCH   5  22
ATOM     22  S   UNL     1       2.223  -6.310   2.880  0.00  0.00    +0.062 S 
ATOM     23  O   UNL     1       1.619  -5.727   4.027  0.00  0.00    -0.153 OA
ATOM     24  O   UNL     1       1.857  -7.596   2.397  0.00  0.00    -0.153 OA
BRANCH  22  25
ATOM     25  N   UNL     1       3.851  -6.362   3.176  0.00  0.00    -0.187 NA
ATOM     26  H   UNL     1       4.430  -7.237   2.846  0.00  0.00    +0.148 HD
BRANCH  25  27
ATOM     27  C   UNL     1       4.544  -5.169   3.670  0.00  0.00    +0.073 C 
ATOM     28  C   UNL     1       4.622  -5.221   5.197  0.00  0.00    +0.025 C 
BRANCH  27  29
ATOM     29  C   UNL     1       5.958  -5.123   3.088  0.00  0.00    +0.017 C 
ATOM     30  C   UNL     1       5.879  -4.946   1.571  0.00  0.00    +0.005 C 
ENDBRANCH  27  29
ENDBRANCH  25  27
ENDBRANCH  22  25
ENDBRANCH   5  22
BRANCH   4  31
ATOM     31  O   UNL     1       3.151  -6.634   0.081  0.00  0.00    -0.493 OA
ATOM     32  C   UNL     1       3.637  -6.873  -1.242  0.00  0.00    +0.277 C 
ENDBRANCH   4  31
TORSDOF 7
