REMARK  Name = ZINC44577411
REMARK  5 active torsions:
REMARK  status: ('A' for Active; 'I' for Inactive)
REMARK    1  A    between atoms: C_1  and  C_2
REMARK    2  A    between atoms: C_2  and  C_3
REMARK    3  A    between atoms: C_2  and  N_4
REMARK    4  A    between atoms: C_5  and  C_22
REMARK    5  A    between atoms: C_8  and  C_15
REMARK                            x       y       z     vdW  Elec       q    Type
REMARK                         _______ _______ _______ _____ _____    ______ ____
ROOT
ATOM      1  N   UNL     1       0.665  -0.457  -1.139  0.00  0.00    -0.282 N 
ATOM      2  C   UNL     1       1.768  -1.411  -1.301  0.00  0.00    +0.142 C 
ATOM      3  C   UNL     1       1.975  -1.571  -2.782  0.00  0.00    +0.035 A 
ATOM      4  C   UNL     1       2.672  -2.163  -3.786  0.00  0.00    +0.072 A 
ATOM      5  N   UNL     1       2.149  -1.693  -4.957  0.00  0.00    -0.276 N 
ATOM      6  H   UNL     1       2.452  -1.945  -5.843  0.00  0.00    +0.189 HD
ATOM      7  N   UNL     1       1.194  -0.868  -4.710  0.00  0.00    -0.168 NA
ATOM      8  C   UNL     1       1.022  -0.736  -3.410  0.00  0.00    +0.153 A 
ATOM      9  C   UNL     1       0.235  -0.075  -2.353  0.00  0.00    +0.268 C 
ATOM     10  O   UNL     1      -0.674   0.708  -2.553  0.00  0.00    -0.268 OA
ENDROOT
BRANCH   2  11
ATOM     11  C   UNL     1       1.401  -2.736  -0.683  0.00  0.00    -0.013 A 
ATOM     12  C   UNL     1       0.107  -3.175  -0.721  0.00  0.00    +0.006 A 
ATOM     13  C   UNL     1      -0.240  -4.394  -0.154  0.00  0.00    +0.002 A 
ATOM     14  C   UNL     1       0.711  -5.182   0.456  0.00  0.00    +0.026 A 
ATOM     15  C   UNL     1       2.034  -4.754   0.506  0.00  0.00    +0.047 A 
ATOM     16  C   UNL     1       2.382  -3.520  -0.074  0.00  0.00    +0.005 A 
ATOM     17  C   UNL     1       3.823  -3.366   0.137  0.00  0.00    +0.028 A 
ATOM     18  C   UNL     1       4.243  -4.459   0.793  0.00  0.00    +0.083 A 
ATOM     19  N   UNL     1       3.186  -5.296   1.030  0.00  0.00    -0.361 N 
ATOM     20  H   UNL     1       3.242  -6.149   1.489  0.00  0.00    +0.165 HD
ENDBRANCH   2  11
BRANCH   4  21
ATOM     21  C   UNL     1       3.784  -3.129  -3.640  0.00  0.00    +0.000 A 
ATOM     22  C   UNL     1       4.796  -2.895  -2.709  0.00  0.00    +0.011 A 
ATOM     23  C   UNL     1       5.830  -3.799  -2.578  0.00  0.00    +0.020 A 
ATOM     24  C   UNL     1       5.864  -4.936  -3.367  0.00  0.00    +0.041 A 
ATOM     25  C   UNL     1       4.862  -5.173  -4.292  0.00  0.00    +0.020 A 
ATOM     26  C   UNL     1       3.820  -4.279  -4.428  0.00  0.00    +0.011 A 
ATOM     27 CL   UNL     1       7.169  -6.069  -3.196  0.00  0.00    -0.084 Cl
ENDBRANCH   4  21
BRANCH   1  29
ATOM     28  C   UNL     1       0.388   1.498   0.304  0.00  0.00    +0.028 C 
ATOM     29  C   UNL     1       0.117   0.001   0.141  0.00  0.00    +0.071 C 
ATOM     30  C   UNL     1      -1.392  -0.250   0.169  0.00  0.00    +0.028 C 
ENDBRANCH   1  29
TORSDOF 3
