REMARK  Name = ZINC10245363
REMARK  8 active torsions:
REMARK  status: ('A' for Active; 'I' for Inactive)
REMARK    1  A    between atoms: C_1  and  C_2
REMARK    2  A    between atoms: C_7  and  N_8
REMARK    3  A    between atoms: C_12  and  S_13
REMARK    4  A    between atoms: S_13  and  C_14
REMARK    5  A    between atoms: C_14  and  C_15
REMARK    6  A    between atoms: N_17  and  C_18
REMARK    7  A    between atoms: C_22  and  S_24
REMARK    8  A    between atoms: S_24  and  N_27
REMARK                            x       y       z     vdW  Elec       q    Type
REMARK                         _______ _______ _______ _____ _____    ______ ____
ROOT
ATOM      1  C   UNL     1      -5.001   1.880  -4.651  0.00  0.00    +0.227 C 
ATOM      2  O   UNL     1      -4.093   2.502  -5.160  0.00  0.00    -0.275 OA
ATOM      3  N   UNL     1      -6.177   1.754  -5.297  0.00  0.00    -0.285 N 
ATOM      4  H   UNL     1      -6.877   1.194  -4.926  0.00  0.00    +0.155 HD
ENDROOT
BRANCH   3   5
ATOM      5  C   UNL     1      -6.389   2.430  -6.503  0.00  0.00    +0.035 A 
ATOM      6  C   UNL     1      -5.811   3.675  -6.714  0.00  0.00    +0.023 A 
ATOM      7  C   UNL     1      -6.016   4.337  -7.908  0.00  0.00    +0.004 A 
ATOM      8  C   UNL     1      -6.807   3.767  -8.889  0.00  0.00    +0.029 A 
ATOM      9  C   UNL     1      -7.389   2.531  -8.680  0.00  0.00    +0.114 A 
ATOM     10  C   UNL     1      -7.182   1.860  -7.490  0.00  0.00    +0.052 A 
BRANCH   9  11
ATOM     11  S   UNL     1      -8.396   1.809  -9.933  0.00  0.00    +0.100 S 
ATOM     12  O   UNL     1      -7.990   2.389 -11.165  0.00  0.00    -0.146 OA
ATOM     13  O   UNL     1      -8.379   0.406  -9.710  0.00  0.00    -0.146 OA
BRANCH  11  14
ATOM     14  N   UNL     1      -9.950   2.312  -9.663  0.00  0.00    -0.118 NA
ATOM     15  C   UNL     1     -10.902   1.923 -10.448  0.00  0.00    +0.117 C 
ATOM     16  C   UNL     1     -10.726   1.017 -11.646  0.00  0.00    +0.074 C 
ATOM     17  C   UNL     1     -12.158   0.524 -11.964  0.00  0.00    +0.026 C 
ATOM     18  C   UNL     1     -13.025   1.664 -11.386  0.00  0.00    +0.103 C 
ATOM     19  N   UNL     1     -12.218   2.274 -10.323  0.00  0.00    -0.331 N 
ATOM     20  H   UNL     1     -12.570   2.848  -9.625  0.00  0.00    +0.147 HD
ENDBRANCH  11  14
ENDBRANCH   9  11
ENDBRANCH   3   5
BRANCH   1  21
ATOM     21  C   UNL     1      -4.814   1.249  -3.295  0.00  0.00    +0.173 C 
BRANCH  21  22
ATOM     22  S   UNL     1      -3.142   1.594  -2.694  0.00  0.00    -0.076 S 
BRANCH  22  27
ATOM     23  N   UNL     1      -2.187   0.686  -0.223  0.00  0.00    -0.277 N 
ATOM     24  C   UNL     1      -2.686  -0.057   0.814  0.00  0.00    +0.230 A 
ATOM     25  N   UNL     1      -3.912  -0.373   0.509  0.00  0.00    -0.137 NA
ATOM     26  N   UNL     1      -4.219   0.105  -0.644  0.00  0.00    -0.122 NA
ATOM     27  C   UNL     1      -3.199   0.765  -1.140  0.00  0.00    +0.196 A 
BRANCH  23  34
ATOM     28  C   UNL     1      -1.952   3.522  -0.270  0.00  0.00    +0.046 C 
ATOM     29  C   UNL     1      -0.746   2.623  -0.352  0.00  0.00    -0.027 A 
ATOM     30  C   UNL     1       0.518   3.169  -0.460  0.00  0.00    +0.005 A 
ATOM     31  C   UNL     1       1.626   2.345  -0.535  0.00  0.00    +0.000 A 
ATOM     32  C   UNL     1       1.471   0.971  -0.503  0.00  0.00    +0.002 A 
ATOM     33  C   UNL     1       0.210   0.418  -0.395  0.00  0.00    +0.026 A 
ATOM     34  C   UNL     1      -0.904   1.244  -0.326  0.00  0.00    +0.053 A 
ENDBRANCH  23  34
ENDBRANCH  22  27
ENDBRANCH  21  22
ENDBRANCH   1  21
TORSDOF 7
