REMARK  Name = ZINC42484241
REMARK  4 active torsions:
REMARK  status: ('A' for Active; 'I' for Inactive)
REMARK    1  A    between atoms: C_4  and  C_7
REMARK    2  A    between atoms: C_9  and  C_12
REMARK    3  A    between atoms: C_12  and  N_13
REMARK    4  A    between atoms: C_22  and  C_24
REMARK                            x       y       z     vdW  Elec       q    Type
REMARK                         _______ _______ _______ _____ _____    ______ ____
ROOT
ATOM      1  N   UNL     1       5.866  -4.163  -1.472  0.00  0.00    -0.280 NA
ATOM      2  C   UNL     1       4.569  -4.294  -2.150  0.00  0.00    +0.092 C 
ATOM      3  C   UNL     1       4.786  -4.368  -3.668  0.00  0.00    +0.070 C 
ATOM      4  C   UNL     1       5.859  -5.394  -3.931  0.00  0.00    +0.042 A 
ATOM      5  C   UNL     1       6.690  -5.867  -2.974  0.00  0.00    +0.085 A 
ATOM      6  N   UNL     1       7.507  -6.754  -3.543  0.00  0.00    -0.239 NA
ATOM      7  H   UNL     1       5.775  -5.879  -5.959  0.00  0.00    +0.166 HD
ATOM      8  C   UNL     1       7.219  -6.850  -4.815  0.00  0.00    +0.197 A 
ATOM      9  N   UNL     1       6.192  -6.012  -5.094  0.00  0.00    -0.348 N 
ATOM     10  C   UNL     1       6.638  -5.415  -1.536  0.00  0.00    +0.157 C 
ENDROOT
BRANCH  10  11
ATOM     11  C   UNL     1       8.037  -5.176  -1.028  0.00  0.00    +0.064 A 
ATOM     12  C   UNL     1       8.767  -6.232  -0.514  0.00  0.00    +0.025 A 
ATOM     13  C   UNL     1      10.052  -6.002  -0.050  0.00  0.00    +0.003 A 
ATOM     14  C   UNL     1      10.558  -4.712  -0.120  0.00  0.00    +0.020 A 
ATOM     15  C   UNL     1       9.770  -3.707  -0.647  0.00  0.00    +0.111 A 
ATOM     16  N   UNL     1       8.552  -3.964  -1.085  0.00  0.00    -0.258 NA
ENDBRANCH  10  11
BRANCH   1  17
ATOM     17  C   UNL     1       5.692  -3.722  -0.082  0.00  0.00    +0.184 C 
BRANCH  17  20
ATOM     18  C   UNL     1       3.699  -0.689  -0.037  0.00  0.00    +0.202 A 
ATOM     19  N   UNL     1       3.853  -2.025  -0.051  0.00  0.00    -0.190 NA
ATOM     20  C   UNL     1       5.120  -2.328  -0.065  0.00  0.00    +0.242 A 
ATOM     21  O   UNL     1       5.828  -1.191  -0.059  0.00  0.00    -0.336 OA
ATOM     22  N   UNL     1       4.884  -0.131  -0.046  0.00  0.00    -0.056 NA
BRANCH  18  26
ATOM     23  C   UNL     1      -0.017   1.379   0.010  0.00  0.00    +0.000 A 
ATOM     24  C   UNL     1       1.169   2.092   0.002  0.00  0.00    +0.001 A 
ATOM     25  C   UNL     1       2.377   1.426  -0.013  0.00  0.00    +0.012 A 
ATOM     26  C   UNL     1       2.402   0.033  -0.021  0.00  0.00    +0.022 A 
ATOM     27  C   UNL     1       1.205  -0.680  -0.013  0.00  0.00    +0.012 A 
ATOM     28  C   UNL     1       0.002  -0.004   0.002  0.00  0.00    +0.001 A 
ENDBRANCH  18  26
ENDBRANCH  17  20
ENDBRANCH   1  17
TORSDOF 4
