REMARK  Name = ZINC39530273
REMARK  9 active torsions:
REMARK  status: ('A' for Active; 'I' for Inactive)
REMARK    1  A    between atoms: C_1  and  C_2
REMARK    2  A    between atoms: C_2  and  C_3
REMARK    3  A    between atoms: C_2  and  S_4
REMARK    4  A    between atoms: S_4  and  C_7
REMARK    5  A    between atoms: C_10  and  N_20
REMARK    6  A    between atoms: C_11  and  C_13
REMARK    7  A    between atoms: C_18  and  O_19
REMARK    8  A    between atoms: C_24  and  C_27
REMARK    9  A    between atoms: C_27  and  C_28
REMARK                            x       y       z     vdW  Elec       q    Type
REMARK                         _______ _______ _______ _____ _____    ______ ____
ROOT
ATOM      1  C   UNL     1       2.476   0.084  -1.381  0.00  0.00    +0.089 A 
ATOM      2  C   UNL     1       2.744   1.328  -1.924  0.00  0.00    +0.029 A 
ATOM      3  C   UNL     1       4.015   1.865  -1.843  0.00  0.00    +0.025 A 
ATOM      4  C   UNL     1       5.029   1.158  -1.215  0.00  0.00    +0.038 A 
ATOM      5  C   UNL     1       4.760  -0.101  -0.665  0.00  0.00    +0.008 A 
ATOM      6  C   UNL     1       3.474  -0.629  -0.748  0.00  0.00    +0.037 A 
ENDROOT
BRANCH   4   7
ATOM      7  N   UNL     1       6.313   1.698  -1.133  0.00  0.00    -0.333 N 
ATOM      8  C   UNL     1       7.307   1.451  -2.189  0.00  0.00    +0.086 C 
ATOM      9  C   UNL     1       7.903   2.796  -2.619  0.00  0.00    -0.063 C 
ATOM     10  N   UNL     1       8.431   3.495  -1.441  0.00  0.00    +0.383 N 
ATOM     11  C   UNL     1       7.335   3.825  -0.522  0.00  0.00    -0.050 C 
ATOM     12  C   UNL     1       6.710   2.536   0.009  0.00  0.00    +0.089 C 
ATOM     13  H   UNL     1       9.097   2.901  -0.970  0.00  0.00    -0.085 HD
ATOM     14  H   UNL     1       8.890   4.345  -1.734  0.00  0.00    -0.085 HD
BRANCH  11  15
ATOM     15  C   UNL     1       7.880   4.649   0.647  0.00  0.00    +0.021 C 
BRANCH  15  16
ATOM     16  C   UNL     1       8.383   5.974   0.135  0.00  0.00    -0.049 A 
ATOM     17  C   UNL     1       9.697   6.103  -0.274  0.00  0.00    +0.003 A 
ATOM     18  C   UNL     1      10.159   7.318  -0.743  0.00  0.00    +0.000 A 
ATOM     19  C   UNL     1       9.307   8.405  -0.803  0.00  0.00    +0.000 A 
ATOM     20  C   UNL     1       7.992   8.276  -0.395  0.00  0.00    +0.000 A 
ATOM     21  C   UNL     1       7.529   7.059   0.070  0.00  0.00    +0.003 A 
ENDBRANCH  15  16
ENDBRANCH  11  15
ENDBRANCH   4   7
BRANCH   5  22
ATOM     22  C   UNL     1       5.837  -0.866   0.008  0.00  0.00    +0.025 A 
ATOM     23  C   UNL     1       6.281  -2.072  -0.531  0.00  0.00    +0.012 A 
ATOM     24  C   UNL     1       7.284  -2.780   0.099  0.00  0.00    +0.001 A 
ATOM     25  C   UNL     1       7.852  -2.296   1.265  0.00  0.00    +0.004 A 
ATOM     26  C   UNL     1       7.420  -1.101   1.808  0.00  0.00    +0.046 A 
ATOM     27  C   UNL     1       6.417  -0.377   1.183  0.00  0.00    +0.125 A 
BRANCH  27  28
ATOM     28  O   UNL     1       5.995   0.801   1.713  0.00  0.00    -0.506 OA
ATOM     29  H   UNL     1       5.268   0.710   2.344  0.00  0.00    +0.292 HD
ENDBRANCH  27  28
ENDBRANCH   5  22
BRANCH   1  30
ATOM     30  S   UNL     1       0.851  -0.589  -1.490  0.00  0.00    -0.001 S 
ATOM     31  O   UNL     1       1.037  -1.996  -1.428  0.00  0.00    -0.169 OA
ATOM     32  O   UNL     1       0.285   0.016  -2.645  0.00  0.00    -0.169 OA
BRANCH  30  34
ATOM     33  C   UNL     1      -0.019   1.526   0.010  0.00  0.00    +0.032 C 
ATOM     34  C   UNL     1       0.002  -0.004   0.002  0.00  0.00    +0.130 C 
ATOM     35  C   UNL     1      -1.433  -0.534   0.013  0.00  0.00    +0.032 C 
ENDBRANCH  30  34
ENDBRANCH   1  30
TORSDOF 7
