REMARK  Name = ZINC04717538
REMARK  6 active torsions:
REMARK  status: ('A' for Active; 'I' for Inactive)
REMARK    1  A    between atoms: C_1  and  O_2
REMARK    2  A    between atoms: O_2  and  C_3
REMARK    3  A    between atoms: C_13  and  C_17
REMARK    4  A    between atoms: C_21  and  O_23
REMARK    5  A    between atoms: O_23  and  C_24
REMARK    6  A    between atoms: C_24  and  C_25
REMARK                            x       y       z     vdW  Elec       q    Type
REMARK                         _______ _______ _______ _____ _____    ______ ____
ROOT
ATOM      1  C   UNL     1       2.938   3.870  -0.005  0.00  0.00    +0.121 A 
ATOM      2  C   UNL     1       3.377   2.549  -0.017  0.00  0.00    +0.047 A 
ATOM      3  C   UNL     1       2.474   1.510  -0.014  0.00  0.00    +0.030 A 
ATOM      4  C   UNL     1       1.108   1.774   0.001  0.00  0.00    +0.047 A 
ATOM      5  C   UNL     1       0.660   3.109   0.013  0.00  0.00    +0.006 A 
ATOM      6  C   UNL     1       1.587   4.154   0.010  0.00  0.00    +0.056 A 
ATOM      7  C   UNL     1      -0.796   3.038   0.025  0.00  0.00    -0.022 A 
ATOM      8  C   UNL     1      -1.138   1.734   0.016  0.00  0.00    +0.010 A 
ATOM      9  N   UNL     1      -0.011   0.966   0.007  0.00  0.00    -0.359 N 
ATOM     10  H   UNL     1       0.002  -0.004   0.002  0.00  0.00    +0.166 HD
ATOM     11  C   UNL     1      -2.574   1.261   0.036  0.00  0.00    +0.007 C 
ATOM     12  C   UNL     1      -3.164   3.588  -0.348  0.00  0.00    -0.076 C 
ATOM     13  C   UNL     1      -1.795   4.167   0.037  0.00  0.00    +0.018 C 
ATOM     14  N   UNL     1      -3.438   2.384   0.463  0.00  0.00    +0.387 N 
ATOM     15  H   UNL     1      -3.256   2.594   1.451  0.00  0.00    -0.084 HD
ATOM     16  H   UNL     1      -4.422   2.115   0.346  0.00  0.00    -0.084 HD
ENDROOT
BRANCH  11  17
ATOM     17  C   UNL     1      -2.724   0.121   1.011  0.00  0.00    -0.052 A 
ATOM     18  C   UNL     1      -2.807   0.378   2.367  0.00  0.00    +0.002 A 
ATOM     19  C   UNL     1      -2.950  -0.665   3.263  0.00  0.00    +0.004 A 
ATOM     20  C   UNL     1      -2.999  -1.968   2.806  0.00  0.00    +0.045 A 
ATOM     21  C   UNL     1      -2.910  -2.228   1.446  0.00  0.00    +0.121 A 
ATOM     22  C   UNL     1      -2.772  -1.179   0.549  0.00  0.00    +0.048 A 
BRANCH  21  23
ATOM     23  O   UNL     1      -2.958  -3.509   0.994  0.00  0.00    -0.483 OA
BRANCH  23  24
ATOM     24  C   UNL     1      -3.101  -4.538   1.975  0.00  0.00    +0.324 C 
BRANCH  24  25
ATOM     25  C   UNL     1      -3.135  -5.882   1.292  0.00  0.00    +0.248 C 
ATOM     26  O   UNL     1      -3.046  -5.951   0.085  0.00  0.00    -0.272 OA
ATOM     27  N   UNL     1      -3.265  -7.006   2.024  0.00  0.00    -0.327 N 
ATOM     28  H   UNL     1      -3.337  -6.951   2.990  0.00  0.00    +0.145 HD
ATOM     29  H   UNL     1      -3.287  -7.871   1.585  0.00  0.00    +0.145 HD
ENDBRANCH  24  25
ENDBRANCH  23  24
ENDBRANCH  21  23
ENDBRANCH  11  17
BRANCH   1  31
ATOM     30  C   UNL     1       5.225   4.521  -0.022  0.00  0.00    +0.277 C 
ATOM     31  O   UNL     1       3.843   4.885  -0.007  0.00  0.00    -0.495 OA
ENDBRANCH   1  31
TORSDOF 5
