REMARK  Name = ZINC11316725
REMARK  5 active torsions:
REMARK  status: ('A' for Active; 'I' for Inactive)
REMARK    1  A    between atoms: C_1  and  C_2
REMARK    2  A    between atoms: C_2  and  C_20
REMARK    3  A    between atoms: N_5  and  C_9
REMARK    4  A    between atoms: C_9  and  C_10
REMARK    5  A    between atoms: N_12  and  C_13
REMARK                            x       y       z     vdW  Elec       q    Type
REMARK                         _______ _______ _______ _____ _____    ______ ____
ROOT
ATOM      1  C   UNL     1      -7.488   0.049   0.748  0.00  0.00    +0.047 C 
ATOM      2  C   UNL     1      -7.724   1.478   0.257  0.00  0.00    +0.135 C 
ATOM      3  C   UNL     1      -6.680   2.418   0.826  0.00  0.00    +0.251 C 
ATOM      4  O   UNL     1      -6.477   2.665   1.996  0.00  0.00    -0.272 OA
ATOM      5  N   UNL     1      -6.024   2.921  -0.238  0.00  0.00    -0.215 N 
ATOM      6  C   UNL     1      -6.507   2.439  -1.389  0.00  0.00    +0.310 C 
ATOM      7  O   UNL     1      -6.080   2.750  -2.484  0.00  0.00    -0.252 OA
ATOM      8  N   UNL     1      -7.516   1.570  -1.199  0.00  0.00    -0.281 N 
ATOM      9  H   UNL     1      -8.012   1.099  -1.886  0.00  0.00    +0.152 HD
ENDROOT
BRANCH   2  10
ATOM     10  C   UNL     1      -9.111   1.941   0.624  0.00  0.00    -0.012 A 
ATOM     11  C   UNL     1      -9.317   2.631   1.804  0.00  0.00    +0.010 A 
ATOM     12  C   UNL     1     -10.587   3.057   2.145  0.00  0.00    +0.050 A 
ATOM     13  C   UNL     1     -11.658   2.793   1.304  0.00  0.00    +0.162 A 
ATOM     14  C   UNL     1     -11.450   2.101   0.117  0.00  0.00    +0.162 A 
ATOM     15  C   UNL     1     -10.172   1.680  -0.221  0.00  0.00    +0.055 A 
ATOM     16  O   UNL     1     -12.485   1.835  -0.725  0.00  0.00    -0.485 OA
ATOM     17  C   UNL     1     -13.804   1.947  -0.179  0.00  0.00    +0.270 C 
ATOM     18  C   UNL     1     -13.885   3.258   0.614  0.00  0.00    +0.270 C 
ATOM     19  O   UNL     1     -12.903   3.215   1.655  0.00  0.00    -0.485 OA
ENDBRANCH   2  10
BRANCH   5  20
ATOM     20  C   UNL     1      -4.922   3.882  -0.146  0.00  0.00    +0.214 C 
BRANCH  20  21
ATOM     21  C   UNL     1      -3.614   3.140  -0.049  0.00  0.00    +0.235 C 
ATOM     22  O   UNL     1      -3.604   1.927  -0.056  0.00  0.00    -0.274 OA
ATOM     23  N   UNL     1      -2.457   3.823   0.045  0.00  0.00    -0.284 N 
ATOM     24  H   UNL     1      -2.469   4.790   0.128  0.00  0.00    +0.155 HD
BRANCH  23  25
ATOM     25  C   UNL     1      -1.236   3.138   0.024  0.00  0.00    +0.033 A 
ATOM     26  C   UNL     1      -0.160   3.611   0.764  0.00  0.00    +0.024 A 
ATOM     27  C   UNL     1       1.044   2.937   0.737  0.00  0.00    +0.017 A 
ATOM     28  C   UNL     1       1.177   1.785  -0.018  0.00  0.00    +0.018 A 
ATOM     29  C   UNL     1       0.106   1.309  -0.753  0.00  0.00    +0.017 A 
ATOM     30  C   UNL     1      -1.100   1.982  -0.733  0.00  0.00    +0.024 A 
ATOM     31 BR   UNL     1       2.827   0.861  -0.048  0.00  0.00    -0.050 Br
ENDBRANCH  23  25
ENDBRANCH  20  21
ENDBRANCH   5  20
TORSDOF 4
