REMARK  Name = ZINC37695576
REMARK  4 active torsions:
REMARK  status: ('A' for Active; 'I' for Inactive)
REMARK    1  A    between atoms: C_3  and  O_10
REMARK    2  A    between atoms: C_6  and  N_7
REMARK    3  A    between atoms: O_10  and  C_11
REMARK    4  A    between atoms: C_16  and  O_18
REMARK                            x       y       z     vdW  Elec       q    Type
REMARK                         _______ _______ _______ _____ _____    ______ ____
ROOT
ATOM      1  C   UNL     1       1.262  -0.667  -0.600  0.00  0.00    +0.036 A 
ATOM      2  C   UNL     1       2.436   0.037  -0.411  0.00  0.00    +0.048 A 
ATOM      3  C   UNL     1       2.395   1.409  -0.208  0.00  0.00    +0.121 A 
ATOM      4  C   UNL     1       1.176   2.070  -0.195  0.00  0.00    +0.048 A 
ATOM      5  C   UNL     1       0.005   1.362  -0.385  0.00  0.00    +0.036 A 
ATOM      6  C   UNL     1       0.048  -0.005  -0.587  0.00  0.00    +0.126 A 
ENDROOT
BRANCH   6   7
ATOM      7  N   UNL     1      -1.208  -0.762  -0.790  0.00  0.00    +0.056 N 
ATOM      8  O   UNL     1      -1.171  -1.957  -0.968  0.00  0.00    -0.126 OA
ATOM      9  O   UNL     1      -2.270  -0.184  -0.779  0.00  0.00    -0.126 OA
ENDBRANCH   6   7
BRANCH   3  10
ATOM     10  O   UNL     1       3.548   2.104  -0.021  0.00  0.00    -0.486 OA
BRANCH  10  11
ATOM     11  C   UNL     1       4.755   1.344   0.074  0.00  0.00    +0.202 C 
ATOM     12  C   UNL     1       5.374   1.131  -1.329  0.00  0.00    +0.047 C 
ATOM     13  C   UNL     1       6.868   0.876  -1.009  0.00  0.00    +0.006 C 
ATOM     14  C   UNL     1       7.175   1.837   0.157  0.00  0.00    +0.035 C 
ATOM     15  C   UNL     1       5.830   2.134   0.849  0.00  0.00    +0.155 C 
BRANCH  15  16
ATOM     16  O   UNL     1       5.548   3.533   0.790  0.00  0.00    -0.388 OA
ATOM     17  H   UNL     1       6.189   4.084   1.259  0.00  0.00    +0.210 HD
ENDBRANCH  15  16
ENDBRANCH  10  11
ENDBRANCH   3  10
TORSDOF 4
