REMARK  Name = ZINC32652981
REMARK  10 active torsions:
REMARK  status: ('A' for Active; 'I' for Inactive)
REMARK    1  A    between atoms: C_1  and  C_2
REMARK    2  A    between atoms: C_2  and  C_3
REMARK    3  A    between atoms: C_3  and  N_4
REMARK    4  A    between atoms: C_9  and  C_13
REMARK    5  A    between atoms: N_11  and  C_12
REMARK    6  A    between atoms: N_16  and  C_17
REMARK    7  A    between atoms: C_17  and  C_18
REMARK    8  A    between atoms: C_19  and  C_25
REMARK    9  A    between atoms: N_21  and  C_24
REMARK   10  A    between atoms: C_22  and  C_23
REMARK                            x       y       z     vdW  Elec       q    Type
REMARK                         _______ _______ _______ _____ _____    ______ ____
ROOT
ATOM      1  N   UNL     1      -0.020   1.094   2.454  0.00  0.00    -0.279 N 
ATOM      2  C   UNL     1       0.968   1.838   2.996  0.00  0.00    +0.281 A 
ATOM      3  O   UNL     1       1.279   2.912   2.510  0.00  0.00    -0.265 OA
ATOM      4  C   UNL     1       1.633   1.344   4.140  0.00  0.00    +0.152 A 
ATOM      5  C   UNL     1       1.243   0.106   4.665  0.00  0.00    +0.120 A 
ATOM      6  C   UNL     1       2.058  -0.141   5.786  0.00  0.00    +0.086 A 
ATOM      7  N   UNL     1       2.881   0.862   5.936  0.00  0.00    -0.174 NA
ATOM      8  N   UNL     1       2.649   1.810   4.931  0.00  0.00    -0.260 N 
ATOM      9  C   UNL     1       3.367   3.075   4.757  0.00  0.00    +0.173 C 
ATOM     10  C   UNL     1       1.992  -1.361   6.667  0.00  0.00    +0.070 C 
ATOM     11  N   UNL     1       0.242  -0.583   4.065  0.00  0.00    -0.212 NA
ATOM     12  C   UNL     1      -0.367  -0.104   3.007  0.00  0.00    +0.199 A 
ATOM     13  N   UNL     1      -1.380  -0.834   2.434  0.00  0.00    -0.310 N 
ATOM     14  H   UNL     1      -1.899  -0.451   1.543  0.00  0.00    +0.149 HD
ENDROOT
BRANCH   1  15
ATOM     15  C   UNL     1      -0.729   1.579   1.267  0.00  0.00    +0.128 C 
BRANCH  15  17
ATOM     16  C   UNL     1      -0.753   1.593  -1.232  0.00  0.00    +0.005 C 
ATOM     17  C   UNL     1      -0.013   1.086   0.008  0.00  0.00    +0.018 C 
ENDBRANCH  15  17
ENDBRANCH   1  15
BRANCH  13  18
ATOM     18  C   UNL     1      -1.770  -2.123   3.011  0.00  0.00    +0.143 C 
BRANCH  18  19
ATOM     19  C   UNL     1      -2.896  -2.715   2.202  0.00  0.00    +0.013 A 
ATOM     20  C   UNL     1      -2.759  -3.562   1.097  0.00  0.00    +0.065 A 
ATOM     21  N   UNL     1      -3.955  -3.866   0.664  0.00  0.00    -0.176 NA
ATOM     22  N   UNL     1      -4.893  -3.221   1.480  0.00  0.00    -0.271 N 
ATOM     23  C   UNL     1      -4.218  -2.525   2.419  0.00  0.00    +0.041 A 
ATOM     24  C   UNL     1      -4.827  -1.685   3.512  0.00  0.00    +0.065 C 
ATOM     25  C   UNL     1      -6.350  -3.293   1.342  0.00  0.00    +0.172 C 
ATOM     26  C   UNL     1      -1.457  -4.043   0.509  0.00  0.00    +0.068 C 
ENDBRANCH  18  19
ENDBRANCH  13  18
TORSDOF 4
