REMARK  Name = ZINC05050655
REMARK  2 active torsions:
REMARK  status: ('A' for Active; 'I' for Inactive)
REMARK    1  A    between atoms: C_3  and  N_24
REMARK    2  A    between atoms: C_6  and  C_7
REMARK                            x       y       z     vdW  Elec       q    Type
REMARK                         _______ _______ _______ _____ _____    ______ ____
ROOT
ATOM      1  C   UNL     1      -1.273   3.456  -0.443  0.00  0.00    +0.105 C 
ATOM      2  C   UNL     1      -0.179   4.227   0.301  0.00  0.00    +0.029 C 
ATOM      3  C   UNL     1      -0.005   5.592  -0.409  0.00  0.00    +0.033 C 
ATOM      4  C   UNL     1       0.890   5.252  -1.585  0.00  0.00    -0.030 C 
ATOM      5  C   UNL     1       1.558   4.149  -1.350  0.00  0.00    -0.023 C 
ATOM      6  C   UNL     1       1.197   3.599   0.009  0.00  0.00    +0.049 C 
ATOM      7  C   UNL     1       1.169   2.104   0.002  0.00  0.00    -0.019 A 
ATOM      8  C   UNL     1       2.374   1.415  -0.013  0.00  0.00    +0.007 A 
ATOM      9  C   UNL     1       2.393   0.035  -0.021  0.00  0.00    +0.015 A 
ATOM     10  C   UNL     1       1.207  -0.679  -0.014  0.00  0.00    +0.020 A 
ATOM     11  C   UNL     1       0.002  -0.004   0.002  0.00  0.00    +0.038 A 
ATOM     12  C   UNL     1      -0.017   1.385   0.010  0.00  0.00    +0.032 A 
ATOM     13  N   UNL     1      -1.245   2.054   0.019  0.00  0.00    -0.336 N 
ATOM     14 BR   UNL     1       1.237  -2.570  -0.025  0.00  0.00    -0.050 Br
ATOM     15  H   UNL     1      -2.055   1.603   0.304  0.00  0.00    +0.147 HD
ENDROOT
BRANCH   1  21
ATOM     16  C   UNL     1      -0.084   2.703  -2.513  0.00  0.00    +0.008 A 
ATOM     17  C   UNL     1       0.143   2.769  -3.875  0.00  0.00    +0.033 A 
ATOM     18  C   UNL     1      -0.564   3.670  -4.650  0.00  0.00    +0.126 A 
ATOM     19  C   UNL     1      -1.500   4.501  -4.063  0.00  0.00    +0.033 A 
ATOM     20  C   UNL     1      -1.730   4.432  -2.702  0.00  0.00    +0.008 A 
ATOM     21  C   UNL     1      -1.023   3.531  -1.927  0.00  0.00    -0.027 A 
BRANCH  18  22
ATOM     22  N   UNL     1      -0.319   3.743  -6.108  0.00  0.00    +0.056 N 
ATOM     23  O   UNL     1      -0.943   4.536  -6.791  0.00  0.00    -0.126 OA
ATOM     24  O   UNL     1       0.505   3.010  -6.624  0.00  0.00    -0.126 OA
ENDBRANCH  18  22
ENDBRANCH   1  21
TORSDOF 2
