REMARK  Name = ZINC63282387
REMARK  4 active torsions:
REMARK  status: ('A' for Active; 'I' for Inactive)
REMARK    1  A    between atoms: C_1  and  N_2
REMARK    2  A    between atoms: C_3  and  C_5
REMARK    3  A    between atoms: C_8  and  N_11
REMARK    4  A    between atoms: C_20  and  C_22
REMARK                            x       y       z     vdW  Elec       q    Type
REMARK                         _______ _______ _______ _____ _____    ______ ____
ROOT
ATOM      1  N   UNL     1       2.122  -6.177   0.960  0.00  0.00    -0.326 N 
ATOM      2  C   UNL     1       3.115  -6.857   1.631  0.00  0.00    +0.131 A 
ATOM      3  C   UNL     1       3.155  -8.275   1.630  0.00  0.00    +0.040 A 
ATOM      4  C   UNL     1       2.199  -9.041   0.956  0.00  0.00    +0.013 A 
ATOM      5  C   UNL     1       2.285 -10.403   0.987  0.00  0.00    +0.001 A 
ATOM      6  C   UNL     1       3.310 -11.039   1.681  0.00  0.00    +0.002 A 
ATOM      7  C   UNL     1       4.257 -10.320   2.349  0.00  0.00    +0.028 A 
ATOM      8  C   UNL     1       4.199  -8.919   2.337  0.00  0.00    +0.077 A 
ATOM      9  N   UNL     1       5.106  -8.168   2.977  0.00  0.00    -0.227 NA
ATOM     10  C   UNL     1       5.024  -6.849   2.946  0.00  0.00    +0.169 A 
ATOM     11  N   UNL     1       4.059  -6.202   2.289  0.00  0.00    -0.212 NA
ATOM     12  H   UNL     1       1.435  -6.669   0.482  0.00  0.00    +0.148 HD
ENDROOT
BRANCH   1  16
ATOM     13  C   UNL     1       0.625  -2.182   0.995  0.00  0.00    +0.075 C 
ATOM     14  C   UNL     1       1.341  -2.676  -0.264  0.00  0.00    +0.014 C 
ATOM     15  C   UNL     1       1.362  -4.205  -0.272  0.00  0.00    +0.023 C 
ATOM     16  C   UNL     1       2.102  -4.712   0.968  0.00  0.00    +0.072 C 
ATOM     17  C   UNL     1       1.386  -4.219   2.226  0.00  0.00    +0.023 C 
ATOM     18  C   UNL     1       1.365  -2.689   2.235  0.00  0.00    +0.014 C 
BRANCH  13  21
ATOM     19  C   UNL     1      -0.018   1.461   0.010  0.00  0.00    +0.128 C 
ATOM     20  N   UNL     1       0.002  -0.004   0.002  0.00  0.00    -0.318 N 
ATOM     21  C   UNL     1       0.604  -0.675   1.004  0.00  0.00    +0.216 C 
ATOM     22  O   UNL     1       1.130  -0.067   1.911  0.00  0.00    -0.276 OA
ATOM     23  H   UNL     1      -0.418  -0.491  -0.724  0.00  0.00    +0.148 HD
ENDBRANCH  13  21
ENDBRANCH   1  16
BRANCH  10  24
ATOM     24  C   UNL     1       6.042  -6.059   3.664  0.00  0.00    +0.056 A 
ATOM     25  C   UNL     1       7.119  -6.496   4.392  0.00  0.00    +0.019 A 
ATOM     26  C   UNL     1       7.942  -5.564   4.979  0.00  0.00    +0.008 A 
ATOM     27  C   UNL     1       7.665  -4.242   4.822  0.00  0.00    +0.046 A 
ATOM     28  S   UNL     1       6.197  -4.287   3.806  0.00  0.00    -0.094 S 
ENDBRANCH  10  24
TORSDOF 3
