REMARK  Name = ZINC36660257
REMARK  12 active torsions:
REMARK  status: ('A' for Active; 'I' for Inactive)
REMARK    1  A    between atoms: C_1  and  C_2
REMARK    2  A    between atoms: C_2  and  O_3
REMARK    3  A    between atoms: O_3  and  C_4
REMARK    4  A    between atoms: C_4  and  C_6
REMARK    5  A    between atoms: C_10  and  N_11
REMARK    6  A    between atoms: C_12  and  C_14
REMARK    7  A    between atoms: N_19  and  S_20
REMARK    8  A    between atoms: S_20  and  C_23
REMARK    9  A    between atoms: C_26  and  C_29
REMARK   10  A    between atoms: N_31  and  C_34
REMARK   11  A    between atoms: C_34  and  C_35
REMARK   12  A    between atoms: C_34  and  C_36
REMARK                            x       y       z     vdW  Elec       q    Type
REMARK                         _______ _______ _______ _____ _____    ______ ____
ROOT
ATOM      1  N   UNL     1       3.813  -2.334   1.462  0.00  0.00    -0.278 N 
ATOM      2  C   UNL     1       5.116  -2.641   1.623  0.00  0.00    +0.236 C 
ATOM      3  O   UNL     1       5.503  -3.110   2.673  0.00  0.00    -0.274 OA
ATOM      4  H   UNL     1       3.504  -1.959   0.623  0.00  0.00    +0.155 HD
ENDROOT
BRANCH   1   9
ATOM      5  C   UNL     1       1.551  -2.301   2.509  0.00  0.00    +0.091 A 
ATOM      6  C   UNL     1       0.832  -2.629   3.724  0.00  0.00    -0.025 A 
ATOM      7  C   UNL     1       1.605  -3.143   4.707  0.00  0.00    -0.021 A 
ATOM      8  S   UNL     1       3.232  -3.185   4.020  0.00  0.00    -0.079 S 
ATOM      9  C   UNL     1       2.916  -2.554   2.496  0.00  0.00    +0.086 A 
ATOM     10  C   UNL     1       1.141  -3.568   6.065  0.00  0.00    -0.035 C 
ATOM     11  N   UNL     1      -0.196  -2.991   6.298  0.00  0.00    +0.384 N 
ATOM     12  C   UNL     1      -1.069  -3.289   5.156  0.00  0.00    -0.073 C 
ATOM     13  C   UNL     1      -0.663  -2.442   3.945  0.00  0.00    +0.018 C 
ATOM     14  H   UNL     1      -0.116  -1.991   6.408  0.00  0.00    -0.081 HD
BRANCH  11  15
ATOM     15  C   UNL     1      -0.772  -3.571   7.519  0.00  0.00    -0.074 C 
ATOM     16  C   UNL     1       0.200  -3.377   8.684  0.00  0.00    -0.014 C 
ATOM     17  C   UNL     1      -2.097  -2.874   7.838  0.00  0.00    -0.014 C 
ENDBRANCH  11  15
BRANCH   5  18
ATOM     18  C   UNL     1       0.868  -1.732   1.345  0.00  0.00    +0.342 C 
ATOM     19  O   UNL     1       0.401  -2.467   0.496  0.00  0.00    -0.245 OA
BRANCH  18  20
ATOM     20  O   UNL     1       0.756  -0.395   1.216  0.00  0.00    -0.461 OA
BRANCH  20  22
ATOM     21  C   UNL     1       0.050   1.620   0.082  0.00  0.00    +0.048 C 
ATOM     22  C   UNL     1       0.077   0.090   0.056  0.00  0.00    +0.229 C 
ENDBRANCH  20  22
ENDBRANCH  18  20
ENDBRANCH   5  18
ENDBRANCH   1   9
BRANCH   2  23
ATOM     23  C   UNL     1       6.091  -2.402   0.499  0.00  0.00    +0.166 C 
ATOM     24  C   UNL     1       6.143  -0.897   0.161  0.00  0.00    +0.031 C 
ATOM     25  C   UNL     1       7.388  -0.407   0.947  0.00  0.00    +0.019 C 
ATOM     26  C   UNL     1       8.332  -1.630   0.829  0.00  0.00    +0.110 C 
ATOM     27  N   UNL     1       7.442  -2.806   0.915  0.00  0.00    -0.165 NA
BRANCH  27  28
ATOM     28  S   UNL     1       7.888  -4.325   1.401  0.00  0.00    +0.062 S 
ATOM     29  O   UNL     1       9.044  -4.169   2.213  0.00  0.00    -0.153 OA
ATOM     30  O   UNL     1       6.709  -4.965   1.869  0.00  0.00    -0.153 OA
BRANCH  28  31
ATOM     31  C   UNL     1       8.399  -5.203  -0.039  0.00  0.00    +0.106 A 
ATOM     32  C   UNL     1       7.476  -5.925  -0.772  0.00  0.00    +0.029 A 
ATOM     33  C   UNL     1       7.877  -6.614  -1.901  0.00  0.00    +0.005 A 
ATOM     34  C   UNL     1       9.201  -6.580  -2.298  0.00  0.00    -0.050 A 
ATOM     35  C   UNL     1      10.124  -5.857  -1.565  0.00  0.00    +0.005 A 
ATOM     36  C   UNL     1       9.722  -5.165  -0.438  0.00  0.00    +0.029 A 
ATOM     37  C   UNL     1       9.638  -7.332  -3.529  0.00  0.00    +0.044 C 
ENDBRANCH  28  31
ENDBRANCH  27  28
ENDBRANCH   2  23
TORSDOF 8
