REMARK  Name = ZINC39441955
REMARK  3 active torsions:
REMARK  status: ('A' for Active; 'I' for Inactive)
REMARK    1  A    between atoms: N_9  and  N_13
REMARK    2  A    between atoms: C_14  and  C_16
REMARK    3  A    between atoms: C_19  and  C_22
REMARK                            x       y       z     vdW  Elec       q    Type
REMARK                         _______ _______ _______ _____ _____    ______ ____
ROOT
ATOM      1  N   UNL     1       2.636  -4.057  -0.043  0.00  0.00    -0.216 N 
ATOM      2  C   UNL     1       2.977  -4.700  -1.177  0.00  0.00    +0.261 C 
ATOM      3  O   UNL     1       3.193  -4.070  -2.191  0.00  0.00    -0.271 OA
ATOM      4  H   UNL     1       2.463  -4.561   0.767  0.00  0.00    +0.176 HD
ENDROOT
BRANCH   1  13
ATOM      5  C   UNL     1      -0.016   1.359   0.009  0.00  0.00    +0.001 A 
ATOM      6  C   UNL     1       1.168   2.091   0.002  0.00  0.00    +0.002 A 
ATOM      7  C   UNL     1       2.381   1.467  -0.013  0.00  0.00    +0.028 A 
ATOM      8  C   UNL     1       2.440   0.067  -0.021  0.00  0.00    +0.079 A 
ATOM      9  C   UNL     1       1.231  -0.678  -0.013  0.00  0.00    +0.066 A 
ATOM     10  C   UNL     1       0.002  -0.004   0.002  0.00  0.00    +0.015 A 
ATOM     11  C   UNL     1       1.307  -2.084  -0.021  0.00  0.00    +0.280 A 
ATOM     12  O   UNL     1       0.191  -2.835  -0.015  0.00  0.00    -0.265 OA
ATOM     13  N   UNL     1       2.530  -2.660  -0.035  0.00  0.00    -0.199 N 
ATOM     14  C   UNL     1       3.645  -1.911  -0.042  0.00  0.00    +0.201 A 
ATOM     15  N   UNL     1       3.611  -0.587  -0.035  0.00  0.00    -0.221 NA
ATOM     16  S   UNL     1       5.166  -2.697  -0.059  0.00  0.00    -0.009 S 
ENDBRANCH   1  13
BRANCH   2  17
ATOM     17  C   UNL     1       3.091  -6.203  -1.186  0.00  0.00    +0.240 C 
ATOM     18  C   UNL     1       4.444  -6.641  -0.653  0.00  0.00    +0.041 C 
ATOM     19  C   UNL     1       5.005  -7.291  -1.692  0.00  0.00    +0.092 C 
ATOM     20  N   UNL     1       4.164  -7.293  -2.760  0.00  0.00    -0.153 NA
ATOM     21  N   UNL     1       3.087  -6.717  -2.566  0.00  0.00    -0.170 NA
BRANCH  19  22
ATOM     22  C   UNL     1       6.350  -7.916  -1.672  0.00  0.00    +0.002 A 
ATOM     23  C   UNL     1       7.130  -7.860  -0.519  0.00  0.00    +0.011 A 
ATOM     24  C   UNL     1       8.381  -8.443  -0.506  0.00  0.00    +0.020 A 
ATOM     25  C   UNL     1       8.861  -9.082  -1.636  0.00  0.00    +0.041 A 
ATOM     26  C   UNL     1       8.090  -9.140  -2.784  0.00  0.00    +0.020 A 
ATOM     27  C   UNL     1       6.835  -8.566  -2.805  0.00  0.00    +0.011 A 
ATOM     28 CL   UNL     1      10.436  -9.812  -1.614  0.00  0.00    -0.084 Cl
ENDBRANCH  19  22
ENDBRANCH   2  17
TORSDOF 3
