REMARK  Name = ZINC06369343
REMARK  8 active torsions:
REMARK  status: ('A' for Active; 'I' for Inactive)
REMARK    1  A    between atoms: C_1  and  C_2
REMARK    2  A    between atoms: N_11  and  C_15
REMARK    3  A    between atoms: C_15  and  C_16
REMARK    4  A    between atoms: C_16  and  O_18
REMARK    5  A    between atoms: O_18  and  C_19
REMARK    6  A    between atoms: C_19  and  C_20
REMARK    7  A    between atoms: N_22  and  C_23
REMARK    8  A    between atoms: C_23  and  C_24
REMARK                            x       y       z     vdW  Elec       q    Type
REMARK                         _______ _______ _______ _____ _____    ______ ____
ROOT
ATOM      1  C   UNL     1      -0.844   1.649  -6.006  0.00  0.00    +0.326 C 
ATOM      2  O   UNL     1      -1.839   2.333  -6.040  0.00  0.00    -0.249 OA
ENDROOT
BRANCH   1   3
ATOM      3  C   UNL     1      -0.193   1.201  -7.289  0.00  0.00    +0.238 C 
BRANCH   3  13
ATOM      4  C   UNL     1      -0.827   0.850 -11.663  0.00  0.00    +0.010 C 
ATOM      5  C   UNL     1      -2.282   1.287 -11.484  0.00  0.00    +0.018 C 
ATOM      6  C   UNL     1      -3.194   0.059 -11.544  0.00  0.00    +0.006 C 
ATOM      7  C   UNL     1      -4.647   0.494 -11.344  0.00  0.00    +0.000 C 
ATOM      8  C   UNL     1      -4.797   1.162  -9.976  0.00  0.00    +0.003 C 
ATOM      9  C   UNL     1      -3.892   2.394  -9.909  0.00  0.00    +0.035 C 
ATOM     10  C   UNL     1      -2.442   1.977 -10.134  0.00  0.00    +0.115 C 
ATOM     11  C   UNL     1      -1.973   1.067  -9.021  0.00  0.00    +0.247 C 
ATOM     12  O   UNL     1      -2.420  -0.019  -8.723  0.00  0.00    -0.273 OA
ATOM     13  N   UNL     1      -0.952   1.721  -8.429  0.00  0.00    -0.213 N 
ATOM     14  C   UNL     1      -0.714   2.900  -9.016  0.00  0.00    +0.310 C 
ATOM     15  O   UNL     1       0.160   3.667  -8.662  0.00  0.00    -0.252 OA
ATOM     16  N   UNL     1      -1.552   3.141 -10.042  0.00  0.00    -0.285 N 
ATOM     17  H   UNL     1      -1.565   3.928 -10.609  0.00  0.00    +0.151 HD
ENDBRANCH   3  13
ENDBRANCH   1   3
BRANCH   1  18
ATOM     18  O   UNL     1      -0.317   1.289  -4.825  0.00  0.00    -0.454 OA
BRANCH  18  19
ATOM     19  C   UNL     1      -0.997   1.758  -3.630  0.00  0.00    +0.327 C 
BRANCH  19  20
ATOM     20  C   UNL     1      -0.268   1.258  -2.409  0.00  0.00    +0.251 C 
ATOM     21  O   UNL     1       0.726   0.575  -2.534  0.00  0.00    -0.272 OA
ATOM     22  N   UNL     1      -0.721   1.571  -1.179  0.00  0.00    -0.308 N 
ATOM     23  H   UNL     1      -1.516   2.118  -1.079  0.00  0.00    +0.149 HD
BRANCH  22  24
ATOM     24  C   UNL     1      -0.013   1.086   0.008  0.00  0.00    +0.139 C 
BRANCH  24  25
ATOM     25  C   UNL     1      -0.718   1.572   1.248  0.00  0.00    -0.030 A 
ATOM     26  C   UNL     1      -0.360   2.779   1.818  0.00  0.00    +0.006 A 
ATOM     27  C   UNL     1      -1.010   3.228   2.952  0.00  0.00    +0.020 A 
ATOM     28  C   UNL     1      -2.012   2.464   3.523  0.00  0.00    +0.041 A 
ATOM     29  C   UNL     1      -2.367   1.253   2.955  0.00  0.00    +0.020 A 
ATOM     30  C   UNL     1      -1.719   0.808   1.817  0.00  0.00    +0.006 A 
ATOM     31 CL   UNL     1      -2.825   3.024   4.951  0.00  0.00    -0.084 Cl
ENDBRANCH  24  25
ENDBRANCH  22  24
ENDBRANCH  19  20
ENDBRANCH  18  19
ENDBRANCH   1  18
TORSDOF 7
