REMARK  Name = ZINC36162855
REMARK  6 active torsions:
REMARK  status: ('A' for Active; 'I' for Inactive)
REMARK    1  A    between atoms: C_1  and  C_2
REMARK    2  A    between atoms: C_2  and  C_8
REMARK    3  A    between atoms: C_11  and  C_14
REMARK    4  A    between atoms: C_14  and  C_15
REMARK    5  A    between atoms: C_14  and  C_16
REMARK    6  A    between atoms: C_14  and  C_17
REMARK                            x       y       z     vdW  Elec       q    Type
REMARK                         _______ _______ _______ _____ _____    ______ ____
ROOT
ATOM      1  C   UNL     1       0.638  -0.524  -1.262  0.00  0.00    -0.003 A 
ATOM      2  C   UNL     1      -0.143  -0.783  -2.372  0.00  0.00    +0.008 A 
ATOM      3  C   UNL     1       0.440  -1.260  -3.531  0.00  0.00    +0.004 A 
ATOM      4  C   UNL     1       1.804  -1.478  -3.580  0.00  0.00    -0.042 A 
ATOM      5  C   UNL     1       2.585  -1.218  -2.469  0.00  0.00    +0.004 A 
ATOM      6  C   UNL     1       2.002  -0.737  -1.312  0.00  0.00    +0.008 A 
ENDROOT
BRANCH   1   8
ATOM      7  C   UNL     1      -0.019   1.526   0.010  0.00  0.00    +0.063 C 
ATOM      8  C   UNL     1       0.002  -0.004   0.002  0.00  0.00    +0.153 C 
ATOM      9  C   UNL     1      -1.424  -0.577   0.180  0.00  0.00    +0.160 C 
ATOM     10  N   UNL     1      -1.494  -0.792   1.639  0.00  0.00    -0.277 N 
ATOM     11  C   UNL     1      -0.240  -0.721   2.125  0.00  0.00    +0.401 C 
ATOM     12  O   UNL     1       0.031  -0.831   3.304  0.00  0.00    -0.226 OA
ATOM     13  O   UNL     1       0.679  -0.516   1.167  0.00  0.00    -0.438 OA
ATOM     14  H   UNL     1      -2.299  -0.955   2.155  0.00  0.00    +0.152 HD
ENDBRANCH   1   8
BRANCH   4  15
ATOM     15  C   UNL     1       2.439  -1.999  -4.843  0.00  0.00    -0.013 C 
ATOM     16  C   UNL     1       2.181  -1.015  -5.987  0.00  0.00    +0.015 C 
ATOM     17  C   UNL     1       3.947  -2.150  -4.631  0.00  0.00    +0.015 C 
ATOM     18  C   UNL     1       1.835  -3.360  -5.194  0.00  0.00    +0.015 C 
ENDBRANCH   4  15
TORSDOF 2
