REMARK  Name = ZINC49539595
REMARK  8 active torsions:
REMARK  status: ('A' for Active; 'I' for Inactive)
REMARK    1  A    between atoms: C_1  and  C_2
REMARK    2  A    between atoms: C_2  and  C_3
REMARK    3  A    between atoms: C_3  and  C_5
REMARK    4  A    between atoms: C_3  and  S_12
REMARK    5  A    between atoms: S_12  and  C_13
REMARK    6  A    between atoms: C_17  and  C_21
REMARK    7  A    between atoms: N_24  and  C_25
REMARK    8  A    between atoms: C_30  and  C_31
REMARK                            x       y       z     vdW  Elec       q    Type
REMARK                         _______ _______ _______ _____ _____    ______ ____
ROOT
ATOM      1  C   UNL     1      -2.066   1.826  -1.281  0.00  0.00    +0.178 A 
ATOM      2  N   UNL     1      -1.469   2.337  -0.228  0.00  0.00    -0.201 NA
ATOM      3  C   UNL     1      -1.306   3.668  -0.100  0.00  0.00    +0.187 A 
ATOM      4  C   UNL     1      -1.818   4.533  -1.178  0.00  0.00    +0.079 A 
ATOM      5  C   UNL     1      -1.532   5.829  -0.814  0.00  0.00    +0.046 A 
ATOM      6  N   UNL     1      -0.905   5.792   0.370  0.00  0.00    -0.279 N 
ATOM      7  N   UNL     1      -0.771   4.466   0.798  0.00  0.00    -0.153 NA
ATOM      8  H   UNL     1      -0.590   6.569   0.858  0.00  0.00    +0.189 HD
ATOM      9  C   UNL     1      -1.863   7.068  -1.605  0.00  0.00    +0.066 C 
ATOM     10  C   UNL     1      -2.468   3.881  -2.312  0.00  0.00    +0.115 A 
ATOM     11  N   UNL     1      -2.973   4.614  -3.361  0.00  0.00    -0.344 N 
ATOM     12  N   UNL     1      -2.549   2.551  -2.297  0.00  0.00    -0.276 N 
ATOM     13  H   UNL     1      -2.901   5.581  -3.357  0.00  0.00    +0.144 HD
ATOM     14  H   UNL     1      -3.401   4.163  -4.106  0.00  0.00    +0.144 HD
ENDROOT
BRANCH  12  15
ATOM     15  C   UNL     1      -3.151   1.904  -3.355  0.00  0.00    +0.054 A 
ATOM     16  C   UNL     1      -4.522   1.657  -3.334  0.00  0.00    +0.046 A 
ATOM     17  C   UNL     1      -5.120   1.008  -4.397  0.00  0.00    +0.043 A 
ATOM     18  C   UNL     1      -4.359   0.603  -5.481  0.00  0.00    +0.020 A 
ATOM     19  C   UNL     1      -2.998   0.846  -5.505  0.00  0.00    +0.007 A 
ATOM     20  C   UNL     1      -2.392   1.500  -4.452  0.00  0.00    -0.026 A 
ATOM     21  C   UNL     1      -0.909   1.770  -4.484  0.00  0.00    +0.046 C 
ATOM     22 CL   UNL     1      -6.829   0.699  -4.373  0.00  0.00    -0.083 Cl
ENDBRANCH  12  15
BRANCH   1  23
ATOM     23  S   UNL     1      -2.236   0.074  -1.365  0.00  0.00    -0.075 S 
BRANCH  23  24
ATOM     24  C   UNL     1      -1.430  -0.517   0.149  0.00  0.00    +0.140 C 
BRANCH  24  25
ATOM     25  C   UNL     1      -2.245  -0.101   1.347  0.00  0.00    +0.229 C 
ATOM     26  O   UNL     1      -3.433   0.111   1.228  0.00  0.00    -0.274 OA
ATOM     27  N   UNL     1      -1.653   0.037   2.550  0.00  0.00    -0.301 N 
ATOM     28  C   UNL     1      -0.227  -0.180   2.833  0.00  0.00    +0.108 C 
ATOM     29  C   UNL     1      -0.016   0.069   4.341  0.00  0.00    +0.020 C 
ATOM     30  C   UNL     1      -1.436  -0.140   4.930  0.00  0.00    +0.020 C 
ATOM     31  C   UNL     1      -2.327   0.437   3.799  0.00  0.00    +0.108 C 
ENDBRANCH  24  25
BRANCH  24  33
ATOM     32  C   UNL     1      -0.385  -2.460  -1.023  0.00  0.00    +0.005 C 
ATOM     33  C   UNL     1      -1.326  -2.043   0.109  0.00  0.00    +0.020 C 
ENDBRANCH  24  33
ENDBRANCH  23  24
ENDBRANCH   1  23
TORSDOF 5
