REMARK  Name = ZINC39464339
REMARK  8 active torsions:
REMARK  status: ('A' for Active; 'I' for Inactive)
REMARK    1  A    between atoms: C_1  and  C_2
REMARK    2  A    between atoms: C_2  and  C_3
REMARK    3  A    between atoms: C_2  and  S_4
REMARK    4  A    between atoms: S_4  and  C_7
REMARK    5  A    between atoms: C_12  and  O_13
REMARK    6  A    between atoms: O_13  and  C_14
REMARK    7  A    between atoms: P_22  and  C_25
REMARK    8  A    between atoms: C_30  and  O_31
REMARK                            x       y       z     vdW  Elec       q    Type
REMARK                         _______ _______ _______ _____ _____    ______ ____
ROOT
ATOM      1  C   UNL     1      -2.252  -0.079  -1.422  0.00  0.00    +0.130 A 
ATOM      2  C   UNL     1      -2.762  -0.913  -2.395  0.00  0.00    +0.036 A 
ATOM      3  C   UNL     1      -3.231  -0.392  -3.593  0.00  0.00    -0.021 A 
ATOM      4  C   UNL     1      -3.187   0.969  -3.811  0.00  0.00    -0.038 A 
ATOM      5  C   UNL     1      -2.675   1.810  -2.837  0.00  0.00    +0.051 A 
ATOM      6  C   UNL     1      -2.212   1.291  -1.638  0.00  0.00    +0.145 A 
ATOM      7  C   UNL     1      -3.688   1.577  -5.096  0.00  0.00    +0.052 C 
ATOM      8  C   UNL     1      -3.767   0.499  -6.177  0.00  0.00    +0.108 C 
ATOM      9  N   UNL     1      -4.533  -0.642  -5.654  0.00  0.00    -0.225 NA
ATOM     10  C   UNL     1      -3.777  -1.349  -4.620  0.00  0.00    +0.129 C 
ATOM     11  C   UNL     1      -4.650  -2.392  -3.916  0.00  0.00    +0.194 C 
ATOM     12  O   UNL     1      -5.073  -3.371  -4.887  0.00  0.00    -0.311 OA
ATOM     13  P   UNL     1      -5.728  -2.844  -6.279  0.00  0.00    +0.318 P 
ATOM     14  O   UNL     1      -7.156  -2.510  -6.077  0.00  0.00    -0.266 OA
ATOM     15  N   UNL     1      -4.876  -1.487  -6.686  0.00  0.00    -0.175 NA
ATOM     16  H   UNL     1      -4.630  -1.295  -7.604  0.00  0.00    +0.151 HD
ENDROOT
BRANCH  13  17
ATOM     17  C   UNL     1      -5.557  -4.107  -7.570  0.00  0.00    +0.094 A 
ATOM     18  C   UNL     1      -4.435  -4.123  -8.377  0.00  0.00    +0.018 A 
ATOM     19  C   UNL     1      -4.304  -5.084  -9.361  0.00  0.00    +0.001 A 
ATOM     20  C   UNL     1      -5.295  -6.033  -9.541  0.00  0.00    +0.004 A 
ATOM     21  C   UNL     1      -6.417  -6.021  -8.736  0.00  0.00    +0.046 A 
ATOM     22  C   UNL     1      -6.549  -5.061  -7.744  0.00  0.00    +0.131 A 
BRANCH  22  23
ATOM     23  O   UNL     1      -7.650  -5.051  -6.947  0.00  0.00    -0.506 OA
ATOM     24  H   UNL     1      -8.379  -4.516  -7.291  0.00  0.00    +0.292 HD
ENDBRANCH  22  23
ENDBRANCH  13  17
BRANCH   1  25
ATOM     25  S   UNL     1      -1.660  -0.751   0.095  0.00  0.00    +0.003 S 
ATOM     26  O   UNL     1      -0.363  -0.193   0.258  0.00  0.00    -0.169 OA
ATOM     27  O   UNL     1      -1.832  -2.155  -0.039  0.00  0.00    -0.169 OA
BRANCH  25  29
ATOM     28  C   UNL     1      -4.210  -0.565   1.065  0.00  0.00    +0.032 C 
ATOM     29  C   UNL     1      -2.783  -0.102   1.363  0.00  0.00    +0.130 C 
ATOM     30  C   UNL     1      -2.355  -0.620   2.737  0.00  0.00    +0.032 C 
ENDBRANCH  25  29
ENDBRANCH   1  25
BRANCH   6  31
ATOM     31  O   UNL     1      -1.716   2.119  -0.681  0.00  0.00    -0.493 OA
ATOM     32  C   UNL     1      -1.707   3.517  -0.975  0.00  0.00    +0.277 C 
ENDBRANCH   6  31
TORSDOF 5
