REMARK  Name = ZINC19483433
REMARK  8 active torsions:
REMARK  status: ('A' for Active; 'I' for Inactive)
REMARK    1  A    between atoms: C_1  and  C_2
REMARK    2  A    between atoms: C_3  and  C_32
REMARK    3  A    between atoms: C_11  and  C_13
REMARK    4  A    between atoms: C_13  and  C_15
REMARK    5  A    between atoms: C_13  and  O_16
REMARK    6  A    between atoms: O_16  and  C_17
REMARK    7  A    between atoms: C_17  and  C_19
REMARK    8  A    between atoms: C_25  and  C_27
REMARK                            x       y       z     vdW  Elec       q    Type
REMARK                         _______ _______ _______ _____ _____    ______ ____
ROOT
ATOM      1  O   UNL     1      -0.744  -2.518   5.383  0.00  0.00    -0.454 OA
ENDROOT
BRANCH   1   2
ATOM      2  C   UNL     1       0.536  -2.160   4.856  0.00  0.00    +0.239 C 
ATOM      3  C   UNL     1       1.272  -3.422   4.401  0.00  0.00    +0.060 C 
BRANCH   2  14
ATOM      4  C   UNL     1      -0.481   2.634   0.280  0.00  0.00    +0.045 C 
ATOM      5  C   UNL     1      -0.103   1.175   0.285  0.00  0.00    -0.026 A 
ATOM      6  C   UNL     1       0.127   0.528  -0.869  0.00  0.00    -0.008 A 
ATOM      7  S   UNL     1       0.529  -1.127  -0.342  0.00  0.00    -0.073 S 
ATOM      8  C   UNL     1       0.376  -0.902   1.411  0.00  0.00    +0.116 A 
ATOM      9  C   UNL     1       0.023   0.453   1.538  0.00  0.00    +0.075 A 
ATOM     10  C   UNL     1      -0.165   0.921   2.879  0.00  0.00    +0.260 A 
ATOM     11  O   UNL     1      -0.477   2.080   3.093  0.00  0.00    -0.267 OA
ATOM     12  N   UNL     1       0.007   0.061   3.900  0.00  0.00    -0.307 N 
ATOM     13  H   UNL     1      -0.118   0.372   4.810  0.00  0.00    +0.170 HD
ATOM     14  C   UNL     1       0.354  -1.234   3.681  0.00  0.00    +0.152 A 
ATOM     15  N   UNL     1       0.524  -1.693   2.470  0.00  0.00    -0.223 NA
ATOM     16  C   UNL     1       0.061   1.072  -2.273  0.00  0.00    +0.052 C 
ENDBRANCH   2  14
ENDBRANCH   1   2
BRANCH   1  17
ATOM     17  C   UNL     1      -0.809  -2.783   6.697  0.00  0.00    +0.311 C 
ATOM     18  O   UNL     1       0.187  -2.714   7.377  0.00  0.00    -0.251 OA
BRANCH  17  19
ATOM     19  C   UNL     1      -2.125  -3.168   7.323  0.00  0.00    +0.101 C 
ATOM     20  C   UNL     1      -3.135  -2.036   7.122  0.00  0.00    +0.033 C 
ATOM     21  C   UNL     1      -4.481  -2.445   7.729  0.00  0.00    +0.109 C 
ATOM     22  N   UNL     1      -4.271  -2.824   9.133  0.00  0.00    -0.295 N 
ATOM     23  C   UNL     1      -3.256  -3.839   9.447  0.00  0.00    +0.109 C 
ATOM     24  C   UNL     1      -1.924  -3.415   8.820  0.00  0.00    +0.033 C 
ATOM     25  C   UNL     1      -4.994  -2.250  10.115  0.00  0.00    +0.282 C 
ATOM     26  O   UNL     1      -5.737  -1.320   9.860  0.00  0.00    -0.267 OA
BRANCH  25  27
ATOM     27  C   UNL     1      -4.888  -2.747  11.491  0.00  0.00    +0.189 A 
ATOM     28  C   UNL     1      -5.445  -2.173  12.597  0.00  0.00    +0.054 A 
ATOM     29  C   UNL     1      -5.091  -2.977  13.691  0.00  0.00    +0.042 A 
ATOM     30  C   UNL     1      -4.343  -3.995  13.211  0.00  0.00    +0.196 A 
ATOM     31  O   UNL     1      -4.226  -3.855  11.884  0.00  0.00    -0.458 OA
ENDBRANCH  25  27
ENDBRANCH  17  19
ENDBRANCH   1  17
TORSDOF 5
