REMARK  Name = ZINC14544868
REMARK  5 active torsions:
REMARK  status: ('A' for Active; 'I' for Inactive)
REMARK    1  A    between atoms: C_4  and  C_7
REMARK    2  A    between atoms: C_7  and  C_8
REMARK    3  A    between atoms: C_8  and  N_9
REMARK    4  A    between atoms: C_10  and  C_12
REMARK    5  A    between atoms: C_19  and  C_28
REMARK                            x       y       z     vdW  Elec       q    Type
REMARK                         _______ _______ _______ _____ _____    ______ ____
ROOT
ATOM      1  C   UNL     1      -0.297   1.964   3.647  0.00  0.00    +0.058 A 
ATOM      2  C   UNL     1      -1.646   2.297   3.748  0.00  0.00    +0.015 A 
ATOM      3  C   UNL     1      -2.454   2.248   2.633  0.00  0.00    +0.001 A 
ATOM      4  C   UNL     1      -1.925   1.859   1.414  0.00  0.00    +0.006 A 
ATOM      5  C   UNL     1      -0.600   1.534   1.290  0.00  0.00    -0.019 A 
ATOM      6  C   UNL     1       0.252   1.573   2.408  0.00  0.00    +0.044 A 
ATOM      7  N   UNL     1       1.603   1.270   2.374  0.00  0.00    -0.336 N 
ATOM      8  C   UNL     1       2.144   0.787   1.093  0.00  0.00    +0.107 C 
ATOM      9  C   UNL     1       1.467   1.583  -0.003  0.00  0.00    +0.029 C 
ATOM     10  C   UNL     1      -0.013   1.086   0.008  0.00  0.00    +0.049 C 
ATOM     11  C   UNL     1      -0.532   1.550  -1.302  0.00  0.00    -0.023 C 
ATOM     12  C   UNL     1       0.480   1.611  -2.160  0.00  0.00    -0.030 C 
ATOM     13  C   UNL     1       1.783   1.218  -1.458  0.00  0.00    +0.033 C 
ATOM     14  H   UNL     1       1.854   0.649   3.129  0.00  0.00    +0.147 HD
ENDROOT
BRANCH   8  15
ATOM     15  C   UNL     1       1.842  -0.680   0.925  0.00  0.00    -0.002 A 
ATOM     16  C   UNL     1       0.860  -1.367   1.531  0.00  0.00    +0.089 A 
ATOM     17  N   UNL     1       0.894  -2.676   1.133  0.00  0.00    -0.360 N 
ATOM     18  H   UNL     1       0.283  -3.366   1.437  0.00  0.00    +0.165 HD
ATOM     19  C   UNL     1       1.924  -2.868   0.240  0.00  0.00    +0.047 A 
ATOM     20  C   UNL     1       2.559  -1.625   0.066  0.00  0.00    +0.005 A 
ATOM     21  C   UNL     1       3.649  -1.514  -0.799  0.00  0.00    +0.010 A 
ATOM     22  C   UNL     1       4.091  -2.616  -1.476  0.00  0.00    +0.001 A 
ATOM     23  C   UNL     1       3.466  -3.844  -1.311  0.00  0.00    +0.002 A 
ATOM     24  C   UNL     1       2.393  -3.977  -0.456  0.00  0.00    +0.026 A 
ENDBRANCH   8  15
BRANCH   1  26
ATOM     25  N   UNL     1       0.042   2.393   6.030  0.00  0.00    -0.311 N 
ATOM     26  C   UNL     1       0.562   2.019   4.844  0.00  0.00    +0.246 C 
ATOM     27  O   UNL     1       1.740   1.729   4.761  0.00  0.00    -0.270 OA
ATOM     28  H   UNL     1      -0.897   2.624   6.096  0.00  0.00    +0.149 HD
BRANCH  25  29
ATOM     29  C   UNL     1       0.896   2.448   7.219  0.00  0.00    +0.109 C 
BRANCH  29  30
ATOM     30  C   UNL     1       0.065   2.897   8.423  0.00  0.00    +0.054 C 
BRANCH  30  34
ATOM     31  C   UNL     1       2.554   3.059  11.891  0.00  0.00    +0.000 A 
ATOM     32  C   UNL     1       2.416   4.175  11.087  0.00  0.00    +0.000 A 
ATOM     33  C   UNL     1       1.610   4.122   9.964  0.00  0.00    +0.004 A 
ATOM     34  C   UNL     1       0.943   2.954   9.646  0.00  0.00    -0.046 A 
ATOM     35  C   UNL     1       1.077   1.840  10.454  0.00  0.00    +0.004 A 
ATOM     36  C   UNL     1       1.887   1.891  11.573  0.00  0.00    +0.000 A 
ENDBRANCH  30  34
ENDBRANCH  29  30
ENDBRANCH  25  29
ENDBRANCH   1  26
TORSDOF 5
