REMARK  Name = ZINC20205908
REMARK  10 active torsions:
REMARK  status: ('A' for Active; 'I' for Inactive)
REMARK    1  A    between atoms: C_1  and  C_2
REMARK    2  A    between atoms: C_6  and  C_34
REMARK    3  A    between atoms: C_7  and  O_8
REMARK    4  A    between atoms: O_8  and  C_9
REMARK    5  A    between atoms: C_9  and  C_10
REMARK    6  A    between atoms: C_10  and  O_11
REMARK    7  A    between atoms: O_11  and  C_12
REMARK    8  A    between atoms: C_15  and  C_18
REMARK    9  A    between atoms: C_29  and  S_30
REMARK   10  A    between atoms: S_30  and  C_33
REMARK                            x       y       z     vdW  Elec       q    Type
REMARK                         _______ _______ _______ _____ _____    ______ ____
ROOT
ATOM      1  C   UNL     1      -0.819   3.550   4.903  0.00  0.00    +0.121 A 
ATOM      2  C   UNL     1      -0.839   2.864   6.112  0.00  0.00    +0.046 A 
ATOM      3  C   UNL     1      -0.468   3.498   7.270  0.00  0.00    +0.011 A 
ATOM      4  C   UNL     1      -0.069   4.842   7.233  0.00  0.00    -0.024 A 
ATOM      5  C   UNL     1      -0.051   5.528   6.010  0.00  0.00    +0.011 A 
ATOM      6  C   UNL     1      -0.418   4.882   4.859  0.00  0.00    +0.046 A 
ENDROOT
BRANCH   4   7
ATOM      7  C   UNL     1       0.328   5.525   8.466  0.00  0.00    +0.024 C 
ATOM      8  C   UNL     1       1.392   6.398   8.457  0.00  0.00    +0.078 C 
ATOM      9  C   UNL     1       1.715   7.257   9.633  0.00  0.00    +0.117 C 
ATOM     10  N   UNL     1       1.506   6.893  10.869  0.00  0.00    -0.386 N 
ATOM     11  N   UNL     1       2.271   8.502   9.274  0.00  0.00    -0.203 N 
ATOM     12  C   UNL     1       2.894   8.614   8.049  0.00  0.00    +0.183 C 
ATOM     13  N   UNL     1       2.945   7.696   7.109  0.00  0.00    -0.152 NA
ATOM     14  C   UNL     1       2.286   6.533   7.280  0.00  0.00    +0.273 C 
ATOM     15  O   UNL     1       2.417   5.615   6.487  0.00  0.00    -0.268 OA
ATOM     16  S   UNL     1       3.514  10.161   8.076  0.00  0.00    +0.049 S 
ATOM     17  N   UNL     1       2.903  10.673   9.551  0.00  0.00    -0.174 NA
ATOM     18  C   UNL     1       2.277   9.636  10.014  0.00  0.00    +0.257 C 
ATOM     19  H   UNL     1       1.032   6.068  11.058  0.00  0.00    +0.157 HD
ATOM     20  H   UNL     1       1.823   7.448  11.599  0.00  0.00    +0.157 HD
BRANCH  18  21
ATOM     21  S   UNL     1       1.452   9.701  11.570  0.00  0.00    +0.026 S 
ATOM     22  O   UNL     1       1.214  11.083  11.797  0.00  0.00    -0.167 OA
ATOM     23  O   UNL     1       0.368   8.790  11.445  0.00  0.00    -0.167 OA
ATOM     24  C   UNL     1       2.663   9.071  12.765  0.00  0.00    +0.203 C 
ENDBRANCH  18  21
ENDBRANCH   4   7
BRANCH   1  25
ATOM     25  O   UNL     1      -1.186   2.917   3.760  0.00  0.00    -0.489 OA
BRANCH  25  26
ATOM     26  C   UNL     1      -1.586   1.550   3.876  0.00  0.00    +0.270 C 
BRANCH  26  27
ATOM     27  C   UNL     1      -1.961   1.010   2.495  0.00  0.00    +0.270 C 
BRANCH  27  28
ATOM     28  O   UNL     1      -0.802   0.995   1.658  0.00  0.00    -0.488 OA
BRANCH  28  35
ATOM     29  C   UNL     1      -1.482   2.886  -0.327  0.00  0.00    +0.047 C 
ATOM     30  C   UNL     1      -1.298   1.421  -0.629  0.00  0.00    -0.009 A 
ATOM     31  C   UNL     1      -1.456   0.956  -1.921  0.00  0.00    +0.007 A 
ATOM     32  C   UNL     1      -1.287  -0.388  -2.198  0.00  0.00    +0.001 A 
ATOM     33  C   UNL     1      -0.960  -1.270  -1.185  0.00  0.00    +0.007 A 
ATOM     34  C   UNL     1      -0.801  -0.810   0.108  0.00  0.00    -0.009 A 
ATOM     35  C   UNL     1      -0.964   0.539   0.388  0.00  0.00    +0.126 A 
ATOM     36  C   UNL     1      -0.445  -1.772   1.212  0.00  0.00    +0.047 C 
ENDBRANCH  28  35
ENDBRANCH  27  28
ENDBRANCH  26  27
ENDBRANCH  25  26
ENDBRANCH   1  25
TORSDOF 7
