REMARK  Name = ZINC02399537
REMARK  3 active torsions:
REMARK  status: ('A' for Active; 'I' for Inactive)
REMARK    1  A    between atoms: C_4  and  C_7
REMARK    2  A    between atoms: C_19  and  C_21
REMARK    3  A    between atoms: C_22  and  C_23
REMARK                            x       y       z     vdW  Elec       q    Type
REMARK                         _______ _______ _______ _____ _____    ______ ____
ROOT
ATOM      1  C   UNL     1       3.711  -0.707  -0.038  0.00  0.00    +0.149 C 
ATOM      2  C   UNL     1       3.791  -1.587  -1.288  0.00  0.00    +0.128 C 
ATOM      3  C   UNL     1       2.945  -2.821  -1.139  0.00  0.00    +0.222 C 
ATOM      4  O   UNL     1       2.368  -3.263  -2.110  0.00  0.00    -0.275 OA
ATOM      5  N   UNL     1       2.812  -3.450   0.050  0.00  0.00    -0.255 N 
ATOM      6  C   UNL     1       3.384  -2.850   1.166  0.00  0.00    +0.222 A 
ATOM      7  N   UNL     1       3.812  -1.559   1.146  0.00  0.00    -0.223 N 
ATOM      8  N   UNL     1       4.323  -1.281   2.411  0.00  0.00    -0.131 NA
ATOM      9  C   UNL     1       4.189  -2.379   3.123  0.00  0.00    +0.242 A 
ATOM     10  N   UNL     1       3.616  -3.331   2.356  0.00  0.00    -0.180 NA
ATOM     11  N   UNL     1       4.577  -2.534   4.456  0.00  0.00    -0.250 N 
ATOM     12  C   UNL     1       4.387  -3.714   5.080  0.00  0.00    +0.243 C 
ATOM     13  O   UNL     1       3.876  -4.643   4.483  0.00  0.00    -0.270 OA
ATOM     14  H   UNL     1       2.335  -4.291   0.122  0.00  0.00    +0.158 HD
ATOM     15  H   UNL     1       4.984  -1.794   4.932  0.00  0.00    +0.158 HD
ENDROOT
BRANCH   1  19
ATOM     16  C   UNL     1      -0.017   1.378   0.010  0.00  0.00    +0.000 A 
ATOM     17  C   UNL     1       1.171   2.086   0.002  0.00  0.00    +0.000 A 
ATOM     18  C   UNL     1       2.377   1.411  -0.013  0.00  0.00    +0.006 A 
ATOM     19  C   UNL     1       2.396   0.029  -0.020  0.00  0.00    -0.023 A 
ATOM     20  C   UNL     1       1.208  -0.679  -0.012  0.00  0.00    +0.006 A 
ATOM     21  C   UNL     1       0.002  -0.004   0.002  0.00  0.00    +0.000 A 
ENDBRANCH   1  19
BRANCH  12  22
ATOM     22  C   UNL     1       4.794  -3.876   6.476  0.00  0.00    +0.068 C 
ATOM     23  C   UNL     1       4.603  -5.056   7.101  0.00  0.00    +0.013 C 
BRANCH  23  24
ATOM     24  C   UNL     1       5.012  -5.220   8.505  0.00  0.00    -0.025 A 
ATOM     25  C   UNL     1       5.594  -4.152   9.197  0.00  0.00    +0.009 A 
ATOM     26  C   UNL     1       5.974  -4.313  10.512  0.00  0.00    +0.020 A 
ATOM     27  C   UNL     1       5.782  -5.528  11.149  0.00  0.00    +0.041 A 
ATOM     28  C   UNL     1       5.206  -6.590  10.470  0.00  0.00    +0.020 A 
ATOM     29  C   UNL     1       4.816  -6.442   9.156  0.00  0.00    +0.009 A 
ATOM     30 CL   UNL     1       6.264  -5.721  12.805  0.00  0.00    -0.084 Cl
ENDBRANCH  23  24
ENDBRANCH  12  22
TORSDOF 3
