REMARK  Name = ZINC21235744
REMARK  7 active torsions:
REMARK  status: ('A' for Active; 'I' for Inactive)
REMARK    1  A    between atoms: C_1  and  O_2
REMARK    2  A    between atoms: O_2  and  C_3
REMARK    3  A    between atoms: C_7  and  C_9
REMARK    4  A    between atoms: C_14  and  C_24
REMARK    5  A    between atoms: C_28  and  O_31
REMARK    6  A    between atoms: C_29  and  O_30
REMARK    7  A    between atoms: O_31  and  C_32
REMARK                            x       y       z     vdW  Elec       q    Type
REMARK                         _______ _______ _______ _____ _____    ______ ____
ROOT
ATOM      1  C   UNL     1       1.626   5.506  -3.813  0.00  0.00    +0.032 C 
ATOM      2  C   UNL     1       0.194   5.078  -3.498  0.00  0.00    +0.059 C 
ATOM      3  C   UNL     1       0.086   4.665  -2.039  0.00  0.00    +0.017 C 
ATOM      4  C   UNL     1       1.125   4.083  -1.421  0.00  0.00    +0.037 C 
ATOM      5  C   UNL     1       1.146   3.595   0.010  0.00  0.00    +0.140 C 
ATOM      6  N   UNL     1       0.018   4.033   0.804  0.00  0.00    -0.331 N 
ATOM      7  C   UNL     1      -1.278   3.623   0.500  0.00  0.00    +0.049 A 
ATOM      8  C   UNL     1      -1.988   2.786   1.347  0.00  0.00    +0.025 A 
ATOM      9  C   UNL     1      -3.243   2.341   0.971  0.00  0.00    +0.002 A 
ATOM     10  C   UNL     1      -3.789   2.725  -0.240  0.00  0.00    +0.002 A 
ATOM     11  C   UNL     1      -3.094   3.579  -1.079  0.00  0.00    +0.025 A 
ATOM     12  C   UNL     1      -1.847   4.040  -0.695  0.00  0.00    +0.052 A 
ATOM     13  N   UNL     1      -1.114   4.938  -1.465  0.00  0.00    -0.316 N 
ATOM     14  C   UNL     1       2.344   3.879  -2.110  0.00  0.00    +0.163 C 
ATOM     15  O   UNL     1       3.262   3.336  -1.528  0.00  0.00    -0.292 OA
ATOM     16  C   UNL     1       2.543   4.309  -3.532  0.00  0.00    +0.088 C 
ATOM     17  H   UNL     1       0.176   4.700   1.664  0.00  0.00    +0.147 HD
ATOM     18  H   UNL     1      -1.574   5.928  -1.595  0.00  0.00    +0.152 HD
ENDROOT
BRANCH   1  23
ATOM     19  C   UNL     1       2.264   7.538  -6.934  0.00  0.00    +0.120 A 
ATOM     20  C   UNL     1       1.934   6.627  -7.927  0.00  0.00    +0.045 A 
ATOM     21  C   UNL     1       1.507   5.359  -7.585  0.00  0.00    +0.004 A 
ATOM     22  C   UNL     1       1.412   4.996  -6.254  0.00  0.00    +0.004 A 
ATOM     23  C   UNL     1       1.735   5.904  -5.263  0.00  0.00    -0.040 A 
ATOM     24  C   UNL     1       2.163   7.173  -5.600  0.00  0.00    +0.049 A 
BRANCH  19  26
ATOM     25  C   UNL     1       2.764   9.093  -8.662  0.00  0.00    +0.277 C 
ATOM     26  O   UNL     1       2.685   8.787  -7.269  0.00  0.00    -0.495 OA
ENDBRANCH  19  26
ENDBRANCH   1  23
BRANCH   5  27
ATOM     27  C   UNL     1       1.170   2.089   0.002  0.00  0.00    +0.022 A 
ATOM     28  C   UNL     1       0.818   1.397  -1.143  0.00  0.00    +0.009 A 
ATOM     29  C   UNL     1       0.839   0.015  -1.153  0.00  0.00    +0.004 A 
ATOM     30  C   UNL     1       1.213  -0.682  -0.019  0.00  0.00    +0.049 A 
ATOM     31  C   UNL     1       1.567   0.004   1.131  0.00  0.00    +0.162 A 
ATOM     32  C   UNL     1       1.545   1.396   1.141  0.00  0.00    +0.164 A 
BRANCH  32  33
ATOM     33  O   UNL     1       1.892   2.074   2.268  0.00  0.00    -0.503 OA
ATOM     34  H   UNL     1       2.190   1.523   3.172  0.00  0.00    +0.292 HD
ENDBRANCH  32  33
BRANCH  31  35
ATOM     35  O   UNL     1       1.935  -0.680   2.247  0.00  0.00    -0.491 OA
ATOM     36  C   UNL     1       1.934  -2.107   2.163  0.00  0.00    +0.277 C 
ENDBRANCH  31  35
ENDBRANCH   5  27
TORSDOF 5
