REMARK  Name = ZINC64337921
REMARK  12 active torsions:
REMARK  status: ('A' for Active; 'I' for Inactive)
REMARK    1  A    between atoms: C_1  and  C_2
REMARK    2  A    between atoms: C_2  and  O_3
REMARK    3  A    between atoms: O_3  and  C_4
REMARK    4  A    between atoms: C_4  and  C_6
REMARK    5  A    between atoms: C_7  and  C_22
REMARK    6  A    between atoms: C_12  and  C_14
REMARK    7  A    between atoms: C_17  and  O_20
REMARK    8  A    between atoms: O_20  and  C_21
REMARK    9  A    between atoms: C_22  and  O_23
REMARK   10  A    between atoms: O_23  and  C_24
REMARK   11  A    between atoms: C_24  and  C_26
REMARK   12  A    between atoms: C_26  and  C_27
REMARK                            x       y       z     vdW  Elec       q    Type
REMARK                         _______ _______ _______ _____ _____    ______ ____
ROOT
ATOM      1  C   UNL     1      -2.795  -2.411   0.129  0.00  0.00    +0.081 C 
ATOM      2  C   UNL     1      -2.985  -3.731  -0.085  0.00  0.00    +0.061 C 
ATOM      3  N   UNL     1      -4.241  -4.255  -0.189  0.00  0.00    -0.269 N 
ATOM      4  C   UNL     1      -5.360  -3.526  -0.092  0.00  0.00    +0.304 C 
ATOM      5  O   UNL     1      -6.436  -4.082  -0.198  0.00  0.00    -0.252 OA
ATOM      6  N   UNL     1      -5.333  -2.195   0.120  0.00  0.00    -0.288 N 
ATOM      7  C   UNL     1      -4.024  -1.533   0.254  0.00  0.00    +0.144 C 
ATOM      8  H   UNL     1      -4.328  -5.209  -0.342  0.00  0.00    +0.156 HD
ATOM      9  H   UNL     1      -6.156  -1.686   0.187  0.00  0.00    +0.151 HD
ENDROOT
BRANCH   7  10
ATOM     10  C   UNL     1      -3.976  -0.855   1.599  0.00  0.00    -0.022 A 
ATOM     11  C   UNL     1      -4.364  -1.544   2.733  0.00  0.00    +0.009 A 
ATOM     12  C   UNL     1      -4.322  -0.925   3.967  0.00  0.00    +0.046 A 
ATOM     13  C   UNL     1      -3.889   0.389   4.068  0.00  0.00    +0.120 A 
ATOM     14  C   UNL     1      -3.499   1.078   2.928  0.00  0.00    +0.046 A 
ATOM     15  C   UNL     1      -3.539   0.453   1.697  0.00  0.00    +0.009 A 
BRANCH  13  16
ATOM     16  O   UNL     1      -3.846   1.001   5.281  0.00  0.00    -0.495 OA
ATOM     17  C   UNL     1      -3.389   2.355   5.309  0.00  0.00    +0.277 C 
ENDBRANCH  13  16
ENDBRANCH   7  10
BRANCH   1  18
ATOM     18  C   UNL     1      -1.494  -1.867   0.237  0.00  0.00    +0.339 C 
ATOM     19  O   UNL     1      -0.999  -1.280  -0.707  0.00  0.00    -0.245 OA
BRANCH  18  20
ATOM     20  O   UNL     1      -0.802  -1.998   1.388  0.00  0.00    -0.462 OA
BRANCH  20  22
ATOM     21  C   UNL     1       1.131  -1.672   2.802  0.00  0.00    +0.048 C 
ATOM     22  C   UNL     1       0.506  -1.424   1.428  0.00  0.00    +0.229 C 
ENDBRANCH  20  22
ENDBRANCH  18  20
ENDBRANCH   1  18
BRANCH   2  23
ATOM     23  C   UNL     1      -1.789  -4.640  -0.210  0.00  0.00    +0.283 C 
BRANCH  23  24
ATOM     24  O   UNL     1      -1.771  -5.556   0.886  0.00  0.00    -0.458 OA
BRANCH  24  25
ATOM     25  C   UNL     1      -0.763  -6.442   0.924  0.00  0.00    +0.312 C 
ATOM     26  O   UNL     1       0.077  -6.438   0.055  0.00  0.00    -0.250 OA
BRANCH  25  27
ATOM     27  C   UNL     1      -0.677  -7.439   2.050  0.00  0.00    +0.153 C 
BRANCH  27  28
ATOM     28  C   UNL     1       0.537  -8.310   1.859  0.00  0.00    -0.031 C 
ATOM     29  C   UNL     1       1.760  -8.134   2.411  0.00  0.00    -0.001 A 
ATOM     30  C   UNL     1       2.304  -7.118   3.318  0.00  0.00    +0.010 A 
ATOM     31  C   UNL     1       3.596  -7.208   3.706  0.00  0.00    +0.001 A 
ATOM     32  C   UNL     1       4.428  -8.246   3.263  0.00  0.00    +0.002 A 
ATOM     33  C   UNL     1       4.000  -9.217   2.428  0.00  0.00    +0.026 A 
ATOM     34  C   UNL     1       2.658  -9.220   1.957  0.00  0.00    +0.043 A 
ATOM     35  N   UNL     1       2.016 -10.036   1.157  0.00  0.00    -0.380 N 
ATOM     36  C   UNL     1       0.634  -9.562   1.016  0.00  0.00    +0.145 C 
ATOM     37  H   UNL     1       2.390 -10.823   0.731  0.00  0.00    +0.160 HD
ENDBRANCH  27  28
ENDBRANCH  25  27
ENDBRANCH  24  25
ENDBRANCH  23  24
ENDBRANCH   2  23
TORSDOF 10
