REMARK  Name = ZINC14471171
REMARK  4 active torsions:
REMARK  status: ('A' for Active; 'I' for Inactive)
REMARK    1  A    between atoms: C_1  and  N_2
REMARK    2  A    between atoms: C_3  and  C_5
REMARK    3  A    between atoms: C_12  and  C_21
REMARK    4  A    between atoms: C_25  and  N_27
REMARK                            x       y       z     vdW  Elec       q    Type
REMARK                         _______ _______ _______ _____ _____    ______ ____
ROOT
ATOM      1  C   UNL     1       0.709   0.505  -0.210  0.00  0.00    +0.058 A 
ATOM      2  C   UNL     1       1.048   1.854  -0.310  0.00  0.00    +0.015 A 
ATOM      3  C   UNL     1       2.376   2.222  -0.330  0.00  0.00    +0.001 A 
ATOM      4  C   UNL     1       3.366   1.261  -0.249  0.00  0.00    +0.006 A 
ATOM      5  C   UNL     1       3.049  -0.086  -0.146  0.00  0.00    -0.019 A 
ATOM      6  C   UNL     1       1.720  -0.472  -0.129  0.00  0.00    +0.044 A 
ATOM      7  N   UNL     1       1.335  -1.801  -0.039  0.00  0.00    -0.336 N 
ATOM      8  C   UNL     1       2.344  -2.628   0.625  0.00  0.00    +0.105 C 
ATOM      9  C   UNL     1       3.668  -2.525  -0.136  0.00  0.00    +0.029 C 
ATOM     10  C   UNL     1       4.178  -1.070  -0.053  0.00  0.00    +0.049 C 
ATOM     11  C   UNL     1       4.844  -0.990   1.302  0.00  0.00    -0.023 C 
ATOM     12  C   UNL     1       5.161  -2.186   1.728  0.00  0.00    -0.030 C 
ATOM     13  C   UNL     1       4.759  -3.237   0.713  0.00  0.00    +0.033 C 
ATOM     14  H   UNL     1       0.439  -1.888   0.417  0.00  0.00    +0.147 HD
ENDROOT
BRANCH   8  15
ATOM     15  C   UNL     1       2.537  -2.145   2.039  0.00  0.00    -0.025 A 
ATOM     16  C   UNL     1       2.163  -0.861   2.388  0.00  0.00    +0.007 A 
ATOM     17  C   UNL     1       2.340  -0.418   3.685  0.00  0.00    +0.022 A 
ATOM     18  C   UNL     1       2.893  -1.259   4.634  0.00  0.00    +0.071 A 
ATOM     19  C   UNL     1       3.268  -2.544   4.284  0.00  0.00    +0.145 A 
ATOM     20  C   UNL     1       3.084  -2.988   2.988  0.00  0.00    +0.039 A 
ATOM     21 CL   UNL     1       3.115  -0.704   6.264  0.00  0.00    -0.081 Cl
BRANCH  19  22
ATOM     22  N   UNL     1       3.858  -3.445   5.299  0.00  0.00    +0.058 N 
ATOM     23  O   UNL     1       4.188  -4.577   4.990  0.00  0.00    -0.126 OA
ATOM     24  O   UNL     1       4.015  -3.056   6.442  0.00  0.00    -0.126 OA
ENDBRANCH  19  22
ENDBRANCH   8  15
BRANCH   1  27
ATOM     25  C   UNL     1      -3.085   0.638  -0.114  0.00  0.00    +0.128 C 
ATOM     26  N   UNL     1      -1.676   1.039  -0.135  0.00  0.00    -0.314 N 
ATOM     27  C   UNL     1      -0.709   0.101  -0.189  0.00  0.00    +0.246 C 
ATOM     28  O   UNL     1      -1.007  -1.077  -0.220  0.00  0.00    -0.270 OA
ATOM     29  H   UNL     1      -1.439   1.979  -0.111  0.00  0.00    +0.149 HD
ENDBRANCH   1  27
TORSDOF 3
