REMARK  Name = ZINC06349618
REMARK  7 active torsions:
REMARK  status: ('A' for Active; 'I' for Inactive)
REMARK    1  A    between atoms: C_1  and  C_2
REMARK    2  A    between atoms: C_2  and  O_3
REMARK    3  A    between atoms: O_3  and  C_4
REMARK    4  A    between atoms: C_4  and  C_6
REMARK    5  A    between atoms: C_7  and  N_29
REMARK    6  A    between atoms: N_18  and  C_21
REMARK    7  A    between atoms: C_21  and  C_22
REMARK                            x       y       z     vdW  Elec       q    Type
REMARK                         _______ _______ _______ _____ _____    ______ ____
ROOT
ATOM      1  C   UNL     1       2.026  -2.810  -1.534  0.00  0.00    +0.117 C 
ATOM      2  C   UNL     1       3.001  -2.016  -2.050  0.00  0.00    +0.195 C 
ATOM      3  O   UNL     1       3.123  -0.733  -1.680  0.00  0.00    -0.446 OA
ATOM      4  C   UNL     1       2.076  -0.083  -1.139  0.00  0.00    +0.115 C 
ATOM      5  C   UNL     1       1.058  -0.750  -0.562  0.00  0.00    +0.057 C 
ATOM      6  C   UNL     1       1.053  -2.256  -0.534  0.00  0.00    +0.141 C 
ATOM      7  C   UNL     1       1.350  -2.761   0.844  0.00  0.00    -0.002 A 
ATOM      8  C   UNL     1       2.459  -2.619   1.649  0.00  0.00    +0.007 A 
ATOM      9  C   UNL     1       2.412  -3.224   2.900  0.00  0.00    +0.000 A 
ATOM     10  C   UNL     1       1.303  -3.934   3.314  0.00  0.00    +0.002 A 
ATOM     11  C   UNL     1       0.184  -4.082   2.509  0.00  0.00    +0.024 A 
ATOM     12  C   UNL     1       0.218  -3.479   1.251  0.00  0.00    +0.042 A 
ATOM     13  N   UNL     1      -0.744  -3.464   0.257  0.00  0.00    -0.258 N 
ATOM     14  C   UNL     1      -0.342  -2.769  -0.827  0.00  0.00    +0.241 C 
ATOM     15  O   UNL     1      -0.977  -2.588  -1.844  0.00  0.00    -0.274 OA
ATOM     16  C   UNL     1      -0.026  -0.068   0.022  0.00  0.00    +0.164 C 
ATOM     17  O   UNL     1      -0.933  -0.705   0.519  0.00  0.00    -0.292 OA
ATOM     18  C   UNL     1      -0.083   1.436   0.043  0.00  0.00    +0.080 C 
ATOM     19  C   UNL     1       1.347   1.987   0.029  0.00  0.00    +0.016 C 
ATOM     20  C   UNL     1       2.070   1.427  -1.198  0.00  0.00    +0.075 C 
ENDROOT
BRANCH   2  21
ATOM     21  N   UNL     1       3.876  -2.536  -2.966  0.00  0.00    -0.329 N 
ATOM     22  H   UNL     1       3.752  -3.440  -3.296  0.00  0.00    +0.145 HD
ATOM     23  H   UNL     1       4.620  -2.001  -3.284  0.00  0.00    +0.145 HD
ENDBRANCH   2  21
BRANCH   1  24
ATOM     24  C   UNL     1       1.929  -4.151  -1.936  0.00  0.00    +0.342 C 
ATOM     25  O   UNL     1       2.369  -5.035  -1.223  0.00  0.00    -0.245 OA
BRANCH  24  26
ATOM     26  O   UNL     1       1.347  -4.462  -3.115  0.00  0.00    -0.462 OA
BRANCH  26  28
ATOM     27  C   UNL     1       0.400  -6.003  -4.718  0.00  0.00    +0.048 C 
ATOM     28  C   UNL     1       1.179  -5.850  -3.410  0.00  0.00    +0.229 C 
ENDBRANCH  26  28
ENDBRANCH  24  26
ENDBRANCH   1  24
BRANCH  13  29
ATOM     29  C   UNL     1      -2.047  -4.124   0.369  0.00  0.00    +0.202 C 
BRANCH  29  30
ATOM     30  C   UNL     1      -1.917  -5.536  -0.024  0.00  0.00    -0.086 C 
ATOM     31  C   UNL     1      -1.813  -6.663  -0.338  0.00  0.00    +0.005 C 
ENDBRANCH  29  30
ENDBRANCH  13  29
TORSDOF 6
