REMARK  Name = ZINC09358403
REMARK  14 active torsions:
REMARK  status: ('A' for Active; 'I' for Inactive)
REMARK    1  A    between atoms: C_1  and  C_2
REMARK    2  A    between atoms: C_4  and  C_16
REMARK    3  A    between atoms: C_7  and  O_8
REMARK    4  A    between atoms: O_8  and  C_9
REMARK    5  A    between atoms: C_9  and  C_10
REMARK    6  A    between atoms: C_16  and  C_18
REMARK    7  A    between atoms: C_19  and  O_36
REMARK    8  A    between atoms: N_22  and  C_32
REMARK    9  A    between atoms: C_23  and  C_25
REMARK   10  A    between atoms: C_28  and  O_31
REMARK   11  A    between atoms: C_32  and  C_33
REMARK   12  A    between atoms: C_33  and  N_66
REMARK   13  A    between atoms: C_34  and  N_66
REMARK   14  A    between atoms: C_35  and  N_66
REMARK                            x       y       z     vdW  Elec       q    Type
REMARK                         _______ _______ _______ _____ _____    ______ ____
ROOT
ATOM      1  C   UNL     1      -2.819   0.914   1.369  0.00  0.00    +0.071 C 
ATOM      2  C   UNL     1      -4.066   1.394   1.151  0.00  0.00    +0.188 C 
ATOM      3  C   UNL     1      -4.102   2.072  -0.161  0.00  0.00    +0.282 C 
ATOM      4  O   UNL     1      -5.081   2.607  -0.643  0.00  0.00    -0.267 OA
ATOM      5  N   UNL     1      -2.891   2.010  -0.744  0.00  0.00    -0.285 N 
ATOM      6  C   UNL     1      -1.992   1.283   0.160  0.00  0.00    +0.144 C 
ENDROOT
BRANCH   6   7
ATOM      7  C   UNL     1      -0.843   2.169   0.569  0.00  0.00    -0.022 A 
ATOM      8  C   UNL     1       0.432   1.643   0.666  0.00  0.00    +0.009 A 
ATOM      9  C   UNL     1       1.488   2.454   1.035  0.00  0.00    +0.046 A 
ATOM     10  C   UNL     1       1.267   3.795   1.314  0.00  0.00    +0.117 A 
ATOM     11  C   UNL     1      -0.014   4.318   1.221  0.00  0.00    +0.046 A 
ATOM     12  C   UNL     1      -1.067   3.503   0.852  0.00  0.00    +0.009 A 
BRANCH  10  13
ATOM     13  O   UNL     1       2.304   4.595   1.677  0.00  0.00    -0.507 OA
ATOM     14  H   UNL     1       2.747   5.026   0.933  0.00  0.00    +0.292 HD
ENDBRANCH  10  13
ENDBRANCH   6   7
BRANCH   1  15
ATOM     15  C   UNL     1      -2.360   0.177   2.551  0.00  0.00    +0.195 C 
ATOM     16  O   UNL     1      -2.346   0.721   3.640  0.00  0.00    -0.287 OA
BRANCH  15  20
ATOM     17  C   UNL     1      -0.360  -3.918   4.578  0.00  0.00    +0.047 C 
ATOM     18  C   UNL     1      -0.951  -3.198   3.393  0.00  0.00    -0.008 A 
ATOM     19  C   UNL     1      -1.366  -1.891   3.519  0.00  0.00    +0.018 A 
ATOM     20  C   UNL     1      -1.914  -1.224   2.420  0.00  0.00    +0.023 A 
ATOM     21  C   UNL     1      -2.045  -1.890   1.197  0.00  0.00    +0.015 A 
ATOM     22  C   UNL     1      -1.622  -3.195   1.078  0.00  0.00    +0.046 A 
ATOM     23  C   UNL     1      -1.077  -3.854   2.174  0.00  0.00    +0.124 A 
BRANCH  23  24
ATOM     24  O   UNL     1      -0.667  -5.142   2.054  0.00  0.00    -0.487 OA
BRANCH  24  25
ATOM     25  C   UNL     1      -0.825  -5.756   0.773  0.00  0.00    +0.264 C 
BRANCH  25  26
ATOM     26  C   UNL     1      -0.319  -7.175   0.830  0.00  0.00    -0.010 A 
ATOM     27  C   UNL     1       1.004  -7.449   0.535  0.00  0.00    +0.007 A 
ATOM     28  C   UNL     1       1.470  -8.749   0.592  0.00  0.00    +0.000 A 
ATOM     29  C   UNL     1       0.610  -9.776   0.934  0.00  0.00    +0.000 A 
ATOM     30  C   UNL     1      -0.713  -9.503   1.224  0.00  0.00    +0.000 A 
ATOM     31  C   UNL     1      -1.178  -8.202   1.172  0.00  0.00    +0.007 A 
ENDBRANCH  25  26
ENDBRANCH  24  25
ENDBRANCH  23  24
ENDBRANCH  15  20
ENDBRANCH   1  15
BRANCH   2  32
ATOM     32  O   UNL     1      -5.112   1.272   2.001  0.00  0.00    -0.502 OA
ATOM     33  H   UNL     1      -5.917   1.713   1.603  0.00  0.00    +0.292 HD
ENDBRANCH   2  32
BRANCH   5  34
ATOM     34  C   UNL     1      -2.534   2.568  -2.050  0.00  0.00    +0.090 C 
BRANCH  34  35
ATOM     35  C   UNL     1      -2.777   1.519  -3.138  0.00  0.00    -0.060 C 
BRANCH  35  38
ATOM     36  C   UNL     1      -0.975   2.341  -4.531  0.00  0.00    -0.097 C 
ATOM     37  C   UNL     1      -2.857   1.196  -5.536  0.00  0.00    -0.097 C 
ATOM     38  N   UNL     1      -2.432   2.105  -4.450  0.00  0.00    +0.377 N 
ATOM     39  H   UNL     1      -2.921   3.001  -4.555  0.00  0.00    -0.083 HD
ENDBRANCH  35  38
ENDBRANCH  34  35
ENDBRANCH   5  34
TORSDOF 11
