REMARK  Name = ZINC13833267
REMARK  8 active torsions:
REMARK  status: ('A' for Active; 'I' for Inactive)
REMARK    1  A    between atoms: C_1  and  C_2
REMARK    2  A    between atoms: C_3  and  C_8
REMARK    3  A    between atoms: C_8  and  C_10
REMARK    4  A    between atoms: C_8  and  N_12
REMARK    5  A    between atoms: C_18  and  C_20
REMARK    6  A    between atoms: C_20  and  C_21
REMARK    7  A    between atoms: C_21  and  C_23
REMARK    8  A    between atoms: C_21  and  N_29
REMARK                            x       y       z     vdW  Elec       q    Type
REMARK                         _______ _______ _______ _____ _____    ______ ____
ROOT
ATOM      1  N   UNL     1       3.372  -1.883  -0.947  0.00  0.00    -0.281 NA
ATOM      2  C   UNL     1       2.431  -2.647  -0.119  0.00  0.00    +0.105 C 
ATOM      3  C   UNL     1       2.061  -3.948  -0.840  0.00  0.00    +0.123 C 
ATOM      4  N   UNL     1       3.301  -4.658  -1.188  0.00  0.00    -0.299 N 
ATOM      5  C   UNL     1       4.351  -3.915  -1.900  0.00  0.00    +0.123 C 
ATOM      6  C   UNL     1       4.631  -2.616  -1.137  0.00  0.00    +0.105 C 
ATOM      7  C   UNL     1       3.470  -5.955  -0.863  0.00  0.00    +0.218 C 
ATOM      8  O   UNL     1       4.499  -6.525  -1.157  0.00  0.00    -0.276 OA
ENDROOT
BRANCH   1   9
ATOM      9  C   UNL     1       3.619  -0.553  -0.373  0.00  0.00    +0.193 C 
BRANCH   9  12
ATOM     10  C   UNL     1       5.316   1.612   0.513  0.00  0.00    +0.066 C 
ATOM     11  C   UNL     1       5.159   1.338  -0.960  0.00  0.00    +0.044 A 
ATOM     12  C   UNL     1       4.346   0.301  -1.379  0.00  0.00    +0.005 A 
ATOM     13  C   UNL     1       4.208   0.058  -2.737  0.00  0.00    +0.009 A 
ATOM     14  C   UNL     1       4.895   0.870  -3.627  0.00  0.00    +0.020 A 
ATOM     15  C   UNL     1       5.690   1.887  -3.133  0.00  0.00    +0.111 A 
ATOM     16  N   UNL     1       5.798   2.090  -1.835  0.00  0.00    -0.260 NA
ENDBRANCH   9  12
BRANCH   9  17
ATOM     17  C   UNL     1       2.335   0.079  -0.030  0.00  0.00    +0.086 C 
ATOM     18  N   UNL     1       1.344   0.567   0.236  0.00  0.00    -0.195 NA
ENDBRANCH   9  17
ENDBRANCH   1   9
BRANCH   7  19
ATOM     19  C   UNL     1       2.380  -6.697  -0.133  0.00  0.00    +0.123 C 
BRANCH  19  20
ATOM     20  C   UNL     1       2.823  -8.141   0.113  0.00  0.00    +0.113 C 
BRANCH  20  21
ATOM     21  N   UNL     1       2.970  -8.832  -1.170  0.00  0.00    -0.292 N 
ATOM     22  C   UNL     1       1.890  -9.045  -1.948  0.00  0.00    +0.298 C 
ATOM     23  O   UNL     1       0.811  -8.583  -1.630  0.00  0.00    -0.253 OA
ATOM     24  N   UNL     1       2.006  -9.769  -3.079  0.00  0.00    -0.313 N 
ATOM     25  H   UNL     1       3.961  -9.177  -1.499  0.00  0.00    +0.151 HD
ATOM     26  H   UNL     1       1.125  -9.943  -3.714  0.00  0.00    +0.146 HD
ATOM     27  H   UNL     1       2.982 -10.186  -3.367  0.00  0.00    +0.146 HD
ENDBRANCH  20  21
BRANCH  20  28
ATOM     28  C   UNL     1       1.788  -8.848   0.949  0.00  0.00    -0.027 A 
ATOM     29  C   UNL     1       0.900  -8.116   1.715  0.00  0.00    +0.005 A 
ATOM     30  C   UNL     1      -0.053  -8.765   2.478  0.00  0.00    +0.000 A 
ATOM     31  C   UNL     1      -0.112 -10.146   2.482  0.00  0.00    +0.000 A 
ATOM     32  C   UNL     1       0.779 -10.878   1.720  0.00  0.00    +0.000 A 
ATOM     33  C   UNL     1       1.729 -10.229   0.954  0.00  0.00    +0.005 A 
ENDBRANCH  20  28
ENDBRANCH  19  20
ENDBRANCH   7  19
TORSDOF 7
