REMARK  Name = ZINC55492041
REMARK  2 active torsions:
REMARK  status: ('A' for Active; 'I' for Inactive)
REMARK    1  A    between atoms: C_5  and  C_7
REMARK    2  A    between atoms: C_16  and  C_18
REMARK                            x       y       z     vdW  Elec       q    Type
REMARK                         _______ _______ _______ _____ _____    ______ ____
ROOT
ATOM      1  C   UNL     1       1.247  -2.164  -0.022  0.00  0.00    +0.005 A 
ATOM      2  C   UNL     1       0.761  -2.857  -1.081  0.00  0.00    +0.056 A 
ATOM      3  S   UNL     1       1.017  -4.558  -0.614  0.00  0.00    -0.076 S 
ATOM      4  C   UNL     1       1.762  -4.303   0.976  0.00  0.00    +0.116 A 
ATOM      5  C   UNL     1       1.801  -2.903   1.105  0.00  0.00    +0.080 A 
ATOM      6  C   UNL     1       2.372  -2.405   2.320  0.00  0.00    +0.261 A 
ATOM      7  O   UNL     1       2.443  -1.204   2.521  0.00  0.00    -0.267 OA
ATOM      8  N   UNL     1       2.828  -3.278   3.236  0.00  0.00    -0.306 N 
ATOM      9  H   UNL     1       3.215  -2.945   4.061  0.00  0.00    +0.170 HD
ATOM     10  C   UNL     1       2.755  -4.627   3.026  0.00  0.00    +0.145 A 
ATOM     11  N   UNL     1       2.226  -5.111   1.922  0.00  0.00    -0.222 NA
ENDROOT
BRANCH   1  16
ATOM     12  C   UNL     1      -0.017   1.376   0.010  0.00  0.00    +0.001 A 
ATOM     13  C   UNL     1       1.170   2.087   0.002  0.00  0.00    +0.001 A 
ATOM     14  C   UNL     1       2.382   1.421  -0.013  0.00  0.00    +0.020 A 
ATOM     15  C   UNL     1       2.414   0.040  -0.021  0.00  0.00    +0.049 A 
ATOM     16  C   UNL     1       1.220  -0.682  -0.014  0.00  0.00    +0.002 A 
ATOM     17  C   UNL     1       0.002  -0.004   0.002  0.00  0.00    +0.010 A 
ATOM     18 CL   UNL     1       3.936  -0.795  -0.041  0.00  0.00    -0.083 Cl
ENDBRANCH   1  16
BRANCH  10  19
ATOM     19  C   UNL     1       3.266  -5.554   4.056  0.00  0.00    +0.054 A 
ATOM     20  C   UNL     1       3.818  -5.063   5.245  0.00  0.00    +0.016 A 
ATOM     21  C   UNL     1       4.283  -5.973   6.177  0.00  0.00    +0.020 A 
ATOM     22  C   UNL     1       4.189  -7.327   5.909  0.00  0.00    +0.112 A 
ATOM     23  N   UNL     1       3.664  -7.763   4.780  0.00  0.00    -0.243 NA
ATOM     24  C   UNL     1       3.202  -6.937   3.862  0.00  0.00    +0.140 A 
ATOM     25 CL   UNL     1       2.515  -7.571   2.399  0.00  0.00    -0.061 Cl
ENDBRANCH  10  19
TORSDOF 2
