REMARK  Name = ZINC04578403
REMARK  10 active torsions:
REMARK  status: ('A' for Active; 'I' for Inactive)
REMARK    1  A    between atoms: C_1  and  C_2
REMARK    2  A    between atoms: C_2  and  C_3
REMARK    3  A    between atoms: C_2  and  C_4
REMARK    4  A    between atoms: C_2  and  N_5
REMARK    5  A    between atoms: C_6  and  C_8
REMARK    6  A    between atoms: C_8  and  N_9
REMARK    7  A    between atoms: N_9  and  C_10
REMARK    8  A    between atoms: N_9  and  S_19
REMARK    9  A    between atoms: C_13  and  N_16
REMARK   10  A    between atoms: S_19  and  C_22
REMARK                            x       y       z     vdW  Elec       q    Type
REMARK                         _______ _______ _______ _____ _____    ______ ____
ROOT
ATOM      1  N   UNL     1       4.278  -1.182  -1.624  0.00  0.00    -0.194 N 
ENDROOT
BRANCH   1   2
ATOM      2  C   UNL     1       5.097  -0.328  -2.366  0.00  0.00    +0.052 A 
ATOM      3  C   UNL     1       5.282   0.987  -1.959  0.00  0.00    +0.027 A 
ATOM      4  C   UNL     1       6.098   1.826  -2.692  0.00  0.00    +0.034 A 
ATOM      5  C   UNL     1       6.721   1.362  -3.836  0.00  0.00    +0.126 A 
ATOM      6  C   UNL     1       6.534   0.055  -4.247  0.00  0.00    +0.034 A 
ATOM      7  C   UNL     1       5.724  -0.791  -3.516  0.00  0.00    +0.027 A 
BRANCH   5   8
ATOM      8  N   UNL     1       7.590   2.267  -4.622  0.00  0.00    +0.056 N 
ATOM      9  O   UNL     1       8.139   1.859  -5.630  0.00  0.00    -0.126 OA
ATOM     10  O   UNL     1       7.755   3.418  -4.261  0.00  0.00    -0.126 OA
ENDBRANCH   5   8
ENDBRANCH   1   2
BRANCH   1  11
ATOM     11  S   UNL     1       4.650  -1.524  -0.047  0.00  0.00    +0.075 S 
ATOM     12  O   UNL     1       6.056  -1.362   0.083  0.00  0.00    -0.150 OA
ATOM     13  O   UNL     1       3.991  -2.741   0.272  0.00  0.00    -0.150 OA
BRANCH  11  14
ATOM     14  C   UNL     1       3.906  -0.273   0.947  0.00  0.00    +0.109 A 
ATOM     15  C   UNL     1       2.586  -0.396   1.338  0.00  0.00    +0.029 A 
ATOM     16  C   UNL     1       2.002   0.585   2.118  0.00  0.00    +0.002 A 
ATOM     17  C   UNL     1       2.738   1.689   2.506  0.00  0.00    +0.000 A 
ATOM     18  C   UNL     1       4.058   1.812   2.115  0.00  0.00    +0.002 A 
ATOM     19  C   UNL     1       4.642   0.831   1.335  0.00  0.00    +0.029 A 
ENDBRANCH  11  14
ENDBRANCH   1  11
BRANCH   1  20
ATOM     20  C   UNL     1       3.088  -1.775  -2.240  0.00  0.00    +0.227 C 
BRANCH  20  22
ATOM     21  N   UNL     1       0.730  -1.145  -2.638  0.00  0.00    -0.309 N 
ATOM     22  C   UNL     1       1.935  -0.811  -2.135  0.00  0.00    +0.233 C 
ATOM     23  O   UNL     1       2.090   0.265  -1.598  0.00  0.00    -0.274 OA
ATOM     24  H   UNL     1       0.605  -2.006  -3.068  0.00  0.00    +0.149 HD
BRANCH  21  26
ATOM     25  C   UNL     1      -0.037   1.092  -3.260  0.00  0.00    +0.031 C 
ATOM     26  C   UNL     1      -0.392  -0.209  -2.536  0.00  0.00    +0.026 C 
ATOM     27  C   UNL     1      -1.634  -0.828  -3.180  0.00  0.00    +0.031 C 
ATOM     28  C   UNL     1      -0.676   0.088  -1.063  0.00  0.00    +0.031 C 
ENDBRANCH  21  26
ENDBRANCH  20  22
ENDBRANCH   1  20
TORSDOF 7
