REMARK  Name = ZINC36214959
REMARK  11 active torsions:
REMARK  status: ('A' for Active; 'I' for Inactive)
REMARK    1  A    between atoms: C_1  and  C_2
REMARK    2  A    between atoms: C_5  and  S_8
REMARK    3  A    between atoms: S_8  and  N_11
REMARK    4  A    between atoms: C_14  and  C_17
REMARK    5  A    between atoms: C_17  and  C_19
REMARK    6  A    between atoms: C_17  and  N_26
REMARK    7  A    between atoms: N_21  and  C_22
REMARK    8  A    between atoms: C_22  and  C_23
REMARK    9  A    between atoms: C_23  and  O_24
REMARK   10  A    between atoms: O_24  and  C_25
REMARK   11  A    between atoms: C_27  and  C_29
REMARK                            x       y       z     vdW  Elec       q    Type
REMARK                         _______ _______ _______ _____ _____    ______ ____
ROOT
ATOM      1  C   UNL     1       4.508  -8.153  -0.078  0.00  0.00    +0.162 C 
ENDROOT
BRANCH   1   5
ATOM      2  N   UNL     1       3.988  -4.326  -1.863  0.00  0.00    -0.177 NA
ATOM      3  C   UNL     1       5.090  -4.436  -0.897  0.00  0.00    +0.110 C 
ATOM      4  C   UNL     1       5.430  -5.917  -0.704  0.00  0.00    +0.023 C 
ATOM      5  C   UNL     1       4.165  -6.679  -0.305  0.00  0.00    +0.021 C 
ATOM      6  C   UNL     1       3.124  -6.564  -1.421  0.00  0.00    +0.023 C 
ATOM      7  C   UNL     1       2.755  -5.086  -1.619  0.00  0.00    +0.110 C 
BRANCH   2   8
ATOM      8  S   UNL     1       4.132  -3.357  -3.199  0.00  0.00    +0.061 S 
ATOM      9  O   UNL     1       3.221  -3.862  -4.166  0.00  0.00    -0.153 OA
ATOM     10  O   UNL     1       5.523  -3.226  -3.458  0.00  0.00    -0.153 OA
BRANCH   8  15
ATOM     11  C   UNL     1       2.142   2.125  -1.653  0.00  0.00    +0.044 C 
ATOM     12  C   UNL     1       2.639   0.756  -2.039  0.00  0.00    -0.050 A 
ATOM     13  C   UNL     1       3.973   0.433  -1.875  0.00  0.00    +0.005 A 
ATOM     14  C   UNL     1       4.429  -0.823  -2.229  0.00  0.00    +0.029 A 
ATOM     15  C   UNL     1       3.550  -1.757  -2.747  0.00  0.00    +0.105 A 
ATOM     16  C   UNL     1       2.216  -1.434  -2.910  0.00  0.00    +0.029 A 
ATOM     17  C   UNL     1       1.760  -0.179  -2.552  0.00  0.00    +0.005 A 
ENDBRANCH   8  15
ENDBRANCH   2   8
ENDBRANCH   1   5
BRANCH   1  18
ATOM     18  C   UNL     1       5.463  -8.274   1.082  0.00  0.00    +0.234 C 
ATOM     19  O   UNL     1       6.652  -8.399   0.877  0.00  0.00    -0.274 OA
ATOM     20  N   UNL     1       4.996  -8.242   2.346  0.00  0.00    -0.312 N 
ATOM     21  H   UNL     1       4.041  -8.214   2.509  0.00  0.00    +0.149 HD
BRANCH  20  22
ATOM     22  C   UNL     1       5.933  -8.249   3.472  0.00  0.00    +0.132 C 
BRANCH  22  23
ATOM     23  C   UNL     1       5.150  -8.208   4.786  0.00  0.00    +0.178 C 
BRANCH  23  24
ATOM     24  O   UNL     1       4.385  -9.407   4.923  0.00  0.00    -0.381 OA
ATOM     25  C   UNL     1       3.612  -9.471   6.123  0.00  0.00    +0.194 C 
ENDBRANCH  23  24
ENDBRANCH  22  23
ENDBRANCH  20  22
ENDBRANCH   1  18
BRANCH   1  26
ATOM     26  N   UNL     1       5.132  -8.701  -1.284  0.00  0.00    -0.300 N 
ATOM     27  C   UNL     1       5.068 -10.023  -1.536  0.00  0.00    +0.245 C 
ATOM     28  O   UNL     1       4.491 -10.762  -0.761  0.00  0.00    -0.270 OA
ATOM     29  H   UNL     1       5.593  -8.111  -1.902  0.00  0.00    +0.150 HD
BRANCH  27  30
ATOM     30  C   UNL     1       5.697 -10.575  -2.752  0.00  0.00    +0.040 A 
ATOM     31  C   UNL     1       6.365  -9.728  -3.640  0.00  0.00    +0.017 A 
ATOM     32  C   UNL     1       6.953 -10.245  -4.774  0.00  0.00    +0.050 A 
ATOM     33  C   UNL     1       6.884 -11.606  -5.038  0.00  0.00    +0.166 A 
ATOM     34  C   UNL     1       6.217 -12.457  -4.156  0.00  0.00    +0.167 A 
ATOM     35  C   UNL     1       5.631 -11.945  -3.014  0.00  0.00    +0.062 A 
ATOM     36  O   UNL     1       6.293 -13.732  -4.639  0.00  0.00    -0.453 OA
ATOM     37  C   UNL     1       6.655 -13.595  -6.026  0.00  0.00    +0.466 C 
ATOM     38  O   UNL     1       7.375 -12.350  -6.071  0.00  0.00    -0.453 OA
ENDBRANCH  27  30
ENDBRANCH   1  26
TORSDOF 9
