REMARK  Name = ZINC63993641
REMARK  11 active torsions:
REMARK  status: ('A' for Active; 'I' for Inactive)
REMARK    1  A    between atoms: C_1  and  C_2
REMARK    2  A    between atoms: C_2  and  N_3
REMARK    3  A    between atoms: C_7  and  C_9
REMARK    4  A    between atoms: C_9  and  N_10
REMARK    5  A    between atoms: C_11  and  C_13
REMARK    6  A    between atoms: N_16  and  C_18
REMARK    7  A    between atoms: C_18  and  C_19
REMARK    8  A    between atoms: C_19  and  O_20
REMARK    9  A    between atoms: O_20  and  C_21
REMARK   10  A    between atoms: N_24  and  C_26
REMARK   11  A    between atoms: C_26  and  C_27
REMARK                            x       y       z     vdW  Elec       q    Type
REMARK                         _______ _______ _______ _____ _____    ______ ____
ROOT
ATOM      1  C   UNL     1       5.108  -1.165  -1.105  0.00  0.00    +0.152 A 
ATOM      2  C   UNL     1       6.478  -1.271  -1.388  0.00  0.00    +0.020 A 
ATOM      3  C   UNL     1       6.704  -0.455  -2.450  0.00  0.00    +0.046 A 
ATOM      4  N   UNL     1       5.530   0.101  -2.781  0.00  0.00    -0.265 N 
ATOM      5  N   UNL     1       4.603  -0.323  -1.992  0.00  0.00    -0.166 NA
ATOM      6  C   UNL     1       8.066  -0.274  -3.069  0.00  0.00    +0.071 C 
ATOM      7  C   UNL     1       9.108  -0.812  -2.077  0.00  0.00    +0.091 C 
ATOM      8  N   UNL     1       8.712  -2.150  -1.617  0.00  0.00    -0.294 NA
ATOM      9  C   UNL     1       7.546  -2.088  -0.716  0.00  0.00    +0.124 C 
ENDROOT
BRANCH   1  11
ATOM     10  N   UNL     1       3.047  -1.664   0.116  0.00  0.00    -0.312 N 
ATOM     11  C   UNL     1       4.372  -1.862  -0.031  0.00  0.00    +0.264 C 
ATOM     12  O   UNL     1       4.961  -2.614   0.721  0.00  0.00    -0.268 OA
ATOM     13  H   UNL     1       2.577  -1.064  -0.484  0.00  0.00    +0.149 HD
BRANCH  10  14
ATOM     14  C   UNL     1       2.317  -2.355   1.181  0.00  0.00    +0.089 C 
BRANCH  14  19
ATOM     15  N   UNL     1       0.713  -0.491   1.192  0.00  0.00    +0.382 N 
ATOM     16  C   UNL     1      -0.052  -0.137   2.407  0.00  0.00    -0.078 C 
ATOM     17  C   UNL     1      -0.890  -1.399   2.729  0.00  0.00    -0.020 C 
ATOM     18  C   UNL     1       0.097  -2.535   2.352  0.00  0.00    -0.016 C 
ATOM     19  C   UNL     1       0.840  -1.958   1.128  0.00  0.00    -0.051 C 
ATOM     20  H   UNL     1       1.629  -0.072   1.236  0.00  0.00    -0.081 HD
BRANCH  15  22
ATOM     21  C   UNL     1      -0.019   1.526   0.010  0.00  0.00    -0.017 C 
ATOM     22  C   UNL     1       0.002  -0.004   0.002  0.00  0.00    -0.082 C 
ENDBRANCH  15  22
ENDBRANCH  14  19
ENDBRANCH  10  14
ENDBRANCH   1  11
BRANCH   4  23
ATOM     23  C   UNL     1       5.329   1.048  -3.881  0.00  0.00    +0.171 C 
BRANCH  23  24
ATOM     24  C   UNL     1       4.992   0.279  -5.160  0.00  0.00    +0.182 C 
BRANCH  24  25
ATOM     25  O   UNL     1       4.796   1.202  -6.233  0.00  0.00    -0.381 OA
ATOM     26  C   UNL     1       4.474   0.584  -7.480  0.00  0.00    +0.194 C 
ENDBRANCH  24  25
ENDBRANCH  23  24
ENDBRANCH   4  23
BRANCH   8  27
ATOM     27  C   UNL     1       9.838  -2.840  -0.974  0.00  0.00    +0.118 C 
BRANCH  27  28
ATOM     28  C   UNL     1      10.909  -3.115  -1.997  0.00  0.00    -0.028 C 
ATOM     29  C   UNL     1      11.999  -2.357  -2.258  0.00  0.00    +0.000 A 
ATOM     30  C   UNL     1      12.493  -1.097  -1.689  0.00  0.00    +0.010 A 
ATOM     31  C   UNL     1      13.642  -0.568  -2.167  0.00  0.00    +0.001 A 
ATOM     32  C   UNL     1      14.370  -1.190  -3.191  0.00  0.00    +0.002 A 
ATOM     33  C   UNL     1      13.980  -2.349  -3.763  0.00  0.00    +0.026 A 
ATOM     34  C   UNL     1      12.787  -2.994  -3.337  0.00  0.00    +0.043 A 
ATOM     35  N   UNL     1      12.207  -4.103  -3.728  0.00  0.00    -0.380 N 
ATOM     36  C   UNL     1      10.987  -4.298  -2.936  0.00  0.00    +0.146 C 
ATOM     37  H   UNL     1      12.532  -4.697  -4.422  0.00  0.00    +0.160 HD
ENDBRANCH  27  28
ENDBRANCH   8  27
TORSDOF 9
