REMARK  Name = ZINC35530515
REMARK  5 active torsions:
REMARK  status: ('A' for Active; 'I' for Inactive)
REMARK    1  A    between atoms: C_1  and  C_2
REMARK    2  A    between atoms: C_7  and  N_14
REMARK    3  A    between atoms: C_10  and  C_12
REMARK    4  A    between atoms: C_10  and  C_13
REMARK    5  A    between atoms: C_15  and  C_17
REMARK                            x       y       z     vdW  Elec       q    Type
REMARK                         _______ _______ _______ _____ _____    ______ ____
ROOT
ATOM      1  C   UNL     1      -0.162   1.388  -0.052  0.00  0.00    +0.047 C 
ATOM      2  C   UNL     1      -0.122  -0.117   0.001  0.00  0.00    -0.008 A 
ATOM      3  C   UNL     1      -0.248  -0.963  -1.040  0.00  0.00    +0.198 A 
ATOM      4  O   UNL     1      -0.157  -2.224  -0.579  0.00  0.00    -0.467 OA
ATOM      5  C   UNL     1       0.028  -2.200   0.746  0.00  0.00    +0.111 A 
ATOM      6  C   UNL     1       0.061  -0.912   1.147  0.00  0.00    +0.017 A 
ATOM      7  C   UNL     1       0.255  -0.465   2.572  0.00  0.00    +0.107 C 
ATOM      8  C   UNL     1       0.000  -1.665   3.494  0.00  0.00    +0.034 C 
ATOM      9  C   UNL     1       0.800  -2.871   2.994  0.00  0.00    -0.026 C 
ATOM     10  C   UNL     1       0.187  -3.376   1.679  0.00  0.00    +0.081 C 
ATOM     11  C   UNL     1       0.749  -3.986   4.039  0.00  0.00    +0.011 C 
ATOM     12  C   UNL     1       2.254  -2.457   2.761  0.00  0.00    +0.011 C 
ENDROOT
BRANCH   7  13
ATOM     13  N   UNL     1      -0.692   0.608   2.885  0.00  0.00    -0.308 N 
ATOM     14  C   UNL     1      -0.396   1.509   3.844  0.00  0.00    +0.217 C 
ATOM     15  O   UNL     1       0.691   1.486   4.382  0.00  0.00    -0.275 OA
ATOM     16  H   UNL     1      -1.531   0.671   2.403  0.00  0.00    +0.149 HD
BRANCH  14  17
ATOM     17  C   UNL     1      -1.415   2.543   4.246  0.00  0.00    +0.075 C 
ATOM     18  C   UNL     1      -1.778   3.401   3.032  0.00  0.00    +0.013 C 
ATOM     19  C   UNL     1      -2.813   4.451   3.441  0.00  0.00    +0.001 C 
ATOM     20  C   UNL     1      -2.229   5.342   4.539  0.00  0.00    +0.000 C 
ATOM     21  C   UNL     1      -1.866   4.484   5.753  0.00  0.00    +0.001 C 
ATOM     22  C   UNL     1      -0.831   3.434   5.344  0.00  0.00    +0.013 C 
ENDBRANCH  14  17
ENDBRANCH   7  13
TORSDOF 2
