REMARK  Name = ZINC63567122
REMARK  4 active torsions:
REMARK  status: ('A' for Active; 'I' for Inactive)
REMARK    1  A    between atoms: C_1  and  C_2
REMARK    2  A    between atoms: C_3  and  C_21
REMARK    3  A    between atoms: C_8  and  C_10
REMARK    4  A    between atoms: C_10  and  N_11
REMARK                            x       y       z     vdW  Elec       q    Type
REMARK                         _______ _______ _______ _____ _____    ______ ____
ROOT
ATOM      1  C   UNL     1      -0.018   1.503   0.010  0.00  0.00    +0.066 C 
ATOM      2  C   UNL     1       0.002  -0.004   0.002  0.00  0.00    +0.050 A 
ATOM      3  C   UNL     1       0.006  -0.706  -1.158  0.00  0.00    +0.011 A 
ATOM      4  S   UNL     1       0.032  -2.379  -0.535  0.00  0.00    -0.057 S 
ATOM      5  C   UNL     1       0.036  -2.015   1.108  0.00  0.00    +0.165 A 
ATOM      6  N   UNL     1       0.023  -0.700   1.124  0.00  0.00    -0.230 NA
ATOM      7  N   UNL     1       0.053  -2.891   2.187  0.00  0.00    -0.264 N 
ATOM      8  C   UNL     1       0.053  -2.410   3.446  0.00  0.00    +0.233 C 
ATOM      9  O   UNL     1       0.038  -1.213   3.638  0.00  0.00    -0.274 OA
ATOM     10  C   UNL     1      -0.009  -0.210  -2.581  0.00  0.00    +0.053 C 
ATOM     11  H   UNL     1       0.065  -3.849   2.034  0.00  0.00    +0.157 HD
ENDROOT
BRANCH   8  12
ATOM     12  C   UNL     1       0.072  -3.361   4.616  0.00  0.00    +0.181 C 
BRANCH  12  13
ATOM     13  N   UNL     1       0.068  -2.595   5.869  0.00  0.00    -0.286 NA
ATOM     14  C   UNL     1       1.320  -1.839   6.029  0.00  0.00    +0.113 C 
ATOM     15  C   UNL     1       1.259  -1.018   7.320  0.00  0.00    +0.175 C 
ATOM     16  O   UNL     1       1.000  -1.888   8.427  0.00  0.00    -0.374 OA
ATOM     17  C   UNL     1      -0.215  -2.627   8.297  0.00  0.00    +0.135 C 
ATOM     18  C   UNL     1      -0.152  -3.475   7.024  0.00  0.00    +0.086 C 
ATOM     19  C   UNL     1      -1.468  -4.238   6.860  0.00  0.00    +0.021 C 
ATOM     20  C   UNL     1      -1.671  -5.156   8.069  0.00  0.00    +0.002 C 
ATOM     21  C   UNL     1      -1.716  -4.320   9.349  0.00  0.00    +0.003 C 
ATOM     22  C   UNL     1      -0.405  -3.545   9.505  0.00  0.00    +0.033 C 
ENDBRANCH  12  13
ENDBRANCH   8  12
TORSDOF 2
