REMARK  Name = ZINC38669686
REMARK  8 active torsions:
REMARK  status: ('A' for Active; 'I' for Inactive)
REMARK    1  A    between atoms: C_1  and  O_2
REMARK    2  A    between atoms: O_2  and  C_3
REMARK    3  A    between atoms: C_9  and  C_27
REMARK    4  A    between atoms: C_11  and  N_13
REMARK    5  A    between atoms: C_14  and  C_16
REMARK    6  A    between atoms: C_16  and  N_17
REMARK    7  A    between atoms: C_27  and  O_29
REMARK    8  A    between atoms: O_29  and  C_30
REMARK                            x       y       z     vdW  Elec       q    Type
REMARK                         _______ _______ _______ _____ _____    ______ ____
ROOT
ATOM      1  C   UNL     1       1.012  -5.725   1.808  0.00  0.00    +0.131 A 
ATOM      2  C   UNL     1       1.413  -6.214   3.018  0.00  0.00    +0.046 A 
ATOM      3  C   UNL     1       1.816  -5.366   4.046  0.00  0.00    +0.006 A 
ATOM      4  C   UNL     1       1.837  -4.016   3.916  0.00  0.00    +0.026 A 
ATOM      5  C   UNL     1       1.440  -3.405   2.702  0.00  0.00    +0.048 A 
ATOM      6  N   UNL     1       1.375  -2.138   2.340  0.00  0.00    -0.367 N 
ATOM      7  C   UNL     1       0.892  -2.061   0.958  0.00  0.00    +0.234 C 
ATOM      8  C   UNL     1       0.666  -3.490   0.514  0.00  0.00    +0.056 C 
ATOM      9  C   UNL     1       1.013  -4.277   1.593  0.00  0.00    +0.059 A 
ATOM     10  H   UNL     1       1.608  -1.380   2.899  0.00  0.00    +0.161 HD
ENDROOT
BRANCH   8  11
ATOM     11  N   UNL     1       0.218  -3.912  -0.702  0.00  0.00    -0.285 N 
ATOM     12  C   UNL     1      -0.223  -3.016  -1.606  0.00  0.00    +0.231 C 
ATOM     13  O   UNL     1      -0.131  -1.829  -1.377  0.00  0.00    -0.274 OA
ATOM     14  H   UNL     1       0.216  -4.858  -0.916  0.00  0.00    +0.155 HD
BRANCH  12  15
ATOM     15  C   UNL     1      -0.830  -3.489  -2.901  0.00  0.00    +0.181 C 
BRANCH  15  16
ATOM     16  N   UNL     1      -1.228  -2.327  -3.708  0.00  0.00    -0.289 NA
ATOM     17  C   UNL     1      -2.017  -2.744  -4.879  0.00  0.00    +0.090 C 
ATOM     18  C   UNL     1      -2.704  -1.510  -5.465  0.00  0.00    +0.051 C 
ATOM     19  C   UNL     1      -1.697  -0.407  -5.665  0.00  0.00    -0.042 A 
ATOM     20  C   UNL     1      -2.030   0.648  -6.501  0.00  0.00    +0.004 A 
ATOM     21  C   UNL     1      -1.138   1.681  -6.709  0.00  0.00    +0.000 A 
ATOM     22  C   UNL     1       0.093   1.664  -6.080  0.00  0.00    +0.000 A 
ATOM     23  C   UNL     1       0.425   0.614  -5.248  0.00  0.00    +0.005 A 
ATOM     24  C   UNL     1      -0.469  -0.427  -5.041  0.00  0.00    -0.030 A 
ATOM     25  C   UNL     1      -0.056  -1.556  -4.134  0.00  0.00    +0.120 C 
ENDBRANCH  15  16
ENDBRANCH  12  15
ENDBRANCH   8  11
BRANCH   1  27
ATOM     26  C   UNL     1       0.650  -7.966   1.111  0.00  0.00    +0.277 C 
ATOM     27  O   UNL     1       0.623  -6.568   0.819  0.00  0.00    -0.494 OA
ENDBRANCH   1  27
BRANCH   7  28
ATOM     28  C   UNL     1       1.927  -1.402   0.083  0.00  0.00    +0.335 C 
ATOM     29  O   UNL     1       3.097  -1.667   0.227  0.00  0.00    -0.248 OA
BRANCH  28  30
ATOM     30  O   UNL     1       1.550  -0.521  -0.857  0.00  0.00    -0.466 OA
ATOM     31  C   UNL     1       2.584   0.065  -1.650  0.00  0.00    +0.280 C 
ENDBRANCH  28  30
ENDBRANCH   7  28
TORSDOF 6
