REMARK  Name = ZINC02264917
REMARK  8 active torsions:
REMARK  status: ('A' for Active; 'I' for Inactive)
REMARK    1  A    between atoms: C_4  and  C_7
REMARK    2  A    between atoms: C_7  and  C_8
REMARK    3  A    between atoms: C_8  and  C_9
REMARK    4  A    between atoms: C_9  and  N_10
REMARK    5  A    between atoms: C_11  and  C_13
REMARK    6  A    between atoms: N_24  and  N_27
REMARK    7  A    between atoms: C_25  and  N_26
REMARK    8  A    between atoms: C_28  and  C_29
REMARK                            x       y       z     vdW  Elec       q    Type
REMARK                         _______ _______ _______ _____ _____    ______ ____
ROOT
ATOM      1  C   UNL     1       1.555  -2.056  -0.024  0.00  0.00    +0.105 A 
ATOM      2  C   UNL     1       1.157  -0.638  -0.013  0.00  0.00    +0.124 A 
ATOM      3  C   UNL     1       2.413   0.118  -0.020  0.00  0.00    +0.183 A 
ATOM      4  N   UNL     1       2.376   1.433  -0.014  0.00  0.00    -0.224 NA
ATOM      5  C   UNL     1       1.197   2.067   0.002  0.00  0.00    +0.092 A 
ATOM      6  C   UNL     1       1.149   3.474   0.010  0.00  0.00    +0.030 A 
ATOM      7  C   UNL     1      -0.054   4.110   0.025  0.00  0.00    +0.002 A 
ATOM      8  C   UNL     1      -1.246   3.389   0.032  0.00  0.00    +0.002 A 
ATOM      9  C   UNL     1      -1.240   2.029   0.019  0.00  0.00    +0.030 A 
ATOM     10  C   UNL     1      -0.016   1.334   0.009  0.00  0.00    +0.090 A 
ATOM     11  N   UNL     1       0.002  -0.004   0.002  0.00  0.00    -0.241 NA
ATOM     12  N   UNL     1       3.440  -0.806  -0.035  0.00  0.00    -0.198 N 
ATOM     13  C   UNL     1       2.945  -2.076  -0.037  0.00  0.00    +0.134 A 
ENDROOT
BRANCH   1  15
ATOM     14  N   UNL     1       0.290  -3.720   1.148  0.00  0.00    -0.311 N 
ATOM     15  C   UNL     1       0.690  -3.180  -0.020  0.00  0.00    +0.250 C 
ATOM     16  O   UNL     1       0.308  -3.657  -1.074  0.00  0.00    -0.270 OA
ATOM     17  H   UNL     1       0.594  -3.340   1.987  0.00  0.00    +0.149 HD
BRANCH  14  18
ATOM     18  C   UNL     1      -0.604  -4.880   1.151  0.00  0.00    +0.105 C 
BRANCH  18  19
ATOM     19  C   UNL     1      -0.900  -5.292   2.595  0.00  0.00    +0.023 C 
BRANCH  19  20
ATOM     20  C   UNL     1      -1.833  -6.504   2.598  0.00  0.00    +0.036 C 
BRANCH  20  24
ATOM     21  C   UNL     1      -2.662  -7.653   6.628  0.00  0.00    +0.000 A 
ATOM     22  C   UNL     1      -3.477  -6.737   5.989  0.00  0.00    +0.000 A 
ATOM     23  C   UNL     1      -3.208  -6.365   4.685  0.00  0.00    +0.003 A 
ATOM     24  C   UNL     1      -2.126  -6.909   4.020  0.00  0.00    -0.047 A 
ATOM     25  C   UNL     1      -1.314  -7.830   4.657  0.00  0.00    +0.003 A 
ATOM     26  C   UNL     1      -1.580  -8.197   5.963  0.00  0.00    +0.000 A 
ENDBRANCH  20  24
ENDBRANCH  19  20
ENDBRANCH  18  19
ENDBRANCH  14  18
ENDBRANCH   1  15
BRANCH  13  27
ATOM     27  N   UNL     1       3.711  -3.214  -0.050  0.00  0.00    -0.342 N 
ATOM     28  H   UNL     1       3.285  -4.085  -0.050  0.00  0.00    +0.144 HD
ATOM     29  H   UNL     1       4.679  -3.148  -0.059  0.00  0.00    +0.144 HD
ENDBRANCH  13  27
BRANCH  12  30
ATOM     30  N   UNL     1       4.803  -0.482  -0.046  0.00  0.00    -0.171 NA
ATOM     31  C   UNL     1       5.424  -0.327  -1.175  0.00  0.00    +0.141 C 
BRANCH  31  32
ATOM     32  C   UNL     1       6.858   0.015  -1.187  0.00  0.00    -0.005 A 
ATOM     33  C   UNL     1       7.550   0.177   0.016  0.00  0.00    +0.012 A 
ATOM     34  C   UNL     1       8.893   0.491  -0.001  0.00  0.00    +0.039 A 
ATOM     35  C   UNL     1       9.553   0.656  -1.209  0.00  0.00    +0.123 A 
ATOM     36  C   UNL     1       8.871   0.502  -2.405  0.00  0.00    +0.039 A 
ATOM     37  C   UNL     1       7.529   0.183  -2.401  0.00  0.00    +0.012 A 
ATOM     38  F   UNL     1      10.868   0.968  -1.220  0.00  0.00    -0.205 F 
ENDBRANCH  31  32
ENDBRANCH  12  30
TORSDOF 8
