REMARK  Name = ZINC10932352
REMARK  8 active torsions:
REMARK  status: ('A' for Active; 'I' for Inactive)
REMARK    1  A    between atoms: C_4  and  C_7
REMARK    2  A    between atoms: N_9  and  N_10
REMARK    3  A    between atoms: C_11  and  C_13
REMARK    4  A    between atoms: C_13  and  O_14
REMARK    5  A    between atoms: O_14  and  C_15
REMARK    6  A    between atoms: C_15  and  C_17
REMARK    7  A    between atoms: C_21  and  N_22
REMARK    8  A    between atoms: C_23  and  C_25
REMARK                            x       y       z     vdW  Elec       q    Type
REMARK                         _______ _______ _______ _____ _____    ______ ____
ROOT
ATOM      1  C   UNL     1      -3.795  -6.133   0.005  0.00  0.00    +0.342 C 
ATOM      2  O   UNL     1      -2.821  -6.861  -0.008  0.00  0.00    -0.245 OA
ENDROOT
BRANCH   1   3
ATOM      3  C   UNL     1      -5.141  -6.711   0.015  0.00  0.00    +0.091 A 
ATOM      4  C   UNL     1      -5.851  -6.999  -1.231  0.00  0.00    -0.021 A 
ATOM      5  C   UNL     1      -7.075  -7.535  -1.079  0.00  0.00    -0.004 A 
ATOM      6  S   UNL     1      -7.305  -7.648   0.678  0.00  0.00    -0.077 S 
ATOM      7  C   UNL     1      -5.789  -7.001   1.204  0.00  0.00    +0.086 A 
ATOM      8  C   UNL     1      -7.738  -7.812  -2.402  0.00  0.00    +0.043 C 
ATOM      9  C   UNL     1      -6.585  -7.780  -3.429  0.00  0.00    +0.010 C 
ATOM     10  C   UNL     1      -5.564  -6.863  -2.727  0.00  0.00    +0.037 C 
BRANCH   7  11
ATOM     11  N   UNL     1      -5.335  -6.816   2.501  0.00  0.00    -0.279 N 
ATOM     12  C   UNL     1      -6.115  -7.161   3.544  0.00  0.00    +0.221 C 
ATOM     13  O   UNL     1      -7.215  -7.633   3.349  0.00  0.00    -0.275 OA
ATOM     14  H   UNL     1      -4.455  -6.439   2.657  0.00  0.00    +0.155 HD
BRANCH  12  15
ATOM     15  C   UNL     1      -5.621  -6.960   4.954  0.00  0.00    +0.075 C 
ATOM     16  C   UNL     1      -4.341  -7.771   5.165  0.00  0.00    +0.013 C 
ATOM     17  C   UNL     1      -3.839  -7.567   6.596  0.00  0.00    +0.001 C 
ATOM     18  C   UNL     1      -4.909  -8.036   7.584  0.00  0.00    +0.000 C 
ATOM     19  C   UNL     1      -6.189  -7.225   7.372  0.00  0.00    +0.001 C 
ATOM     20  C   UNL     1      -6.691  -7.429   5.941  0.00  0.00    +0.013 C 
ENDBRANCH  12  15
ENDBRANCH   7  11
ENDBRANCH   1   3
BRANCH   1  21
ATOM     21  O   UNL     1      -3.636  -4.794   0.011  0.00  0.00    -0.452 OA
BRANCH  21  22
ATOM     22  C   UNL     1      -2.274  -4.291   0.001  0.00  0.00    +0.329 C 
BRANCH  22  24
ATOM     23  N   UNL     1      -1.137  -2.095   0.002  0.00  0.00    -0.231 N 
ATOM     24  C   UNL     1      -2.295  -2.784   0.009  0.00  0.00    +0.267 C 
ATOM     25  O   UNL     1      -3.353  -2.192   0.022  0.00  0.00    -0.271 OA
ATOM     26  H   UNL     1      -0.290  -2.568  -0.009  0.00  0.00    +0.173 HD
BRANCH  23  29
ATOM     27  C   UNL     1       0.002  -0.004   0.002  0.00  0.00    +0.260 C 
ATOM     28  O   UNL     1       1.063  -0.597  -0.011  0.00  0.00    -0.269 OA
ATOM     29  N   UNL     1      -1.156  -0.694   0.009  0.00  0.00    -0.230 N 
ATOM     30  H   UNL     1      -2.002  -0.220   0.020  0.00  0.00    +0.173 HD
BRANCH  27  34
ATOM     31  C   UNL     1      -0.056   4.243   0.026  0.00  0.00    +0.000 A 
ATOM     32  C   UNL     1       1.154   3.571   0.010  0.00  0.00    +0.001 A 
ATOM     33  C   UNL     1       1.179   2.192   0.003  0.00  0.00    +0.013 A 
ATOM     34  C   UNL     1      -0.018   1.474   0.010  0.00  0.00    +0.038 A 
ATOM     35  C   UNL     1      -1.234   2.159   0.020  0.00  0.00    +0.013 A 
ATOM     36  C   UNL     1      -1.246   3.538   0.033  0.00  0.00    +0.001 A 
ENDBRANCH  27  34
ENDBRANCH  23  29
ENDBRANCH  22  24
ENDBRANCH  21  22
ENDBRANCH   1  21
TORSDOF 8
