REMARK  Name = ZINC03431818
REMARK  8 active torsions:
REMARK  status: ('A' for Active; 'I' for Inactive)
REMARK    1  A    between atoms: C_1  and  C_2
REMARK    2  A    between atoms: C_2  and  N_3
REMARK    3  A    between atoms: C_7  and  C_9
REMARK    4  A    between atoms: C_9  and  O_10
REMARK    5  A    between atoms: O_10  and  C_11
REMARK    6  A    between atoms: C_11  and  C_13
REMARK    7  A    between atoms: C_17  and  S_19
REMARK    8  A    between atoms: S_19  and  N_22
REMARK                            x       y       z     vdW  Elec       q    Type
REMARK                         _______ _______ _______ _____ _____    ______ ____
ROOT
ATOM      1  C   UNL     1       0.658  -2.076  -1.122  0.00  0.00    +0.061 A 
ATOM      2  C   UNL     1       0.099  -2.853  -0.105  0.00  0.00    +0.015 A 
ATOM      3  C   UNL     1       0.152  -4.229  -0.185  0.00  0.00    +0.003 A 
ATOM      4  C   UNL     1       0.768  -4.840  -1.263  0.00  0.00    +0.029 A 
ATOM      5  C   UNL     1       1.329  -4.076  -2.271  0.00  0.00    +0.109 A 
ATOM      6  C   UNL     1       1.278  -2.699  -2.207  0.00  0.00    +0.043 A 
ENDROOT
BRANCH   5   7
ATOM      7  S   UNL     1       2.110  -4.864  -3.640  0.00  0.00    +0.075 S 
ATOM      8  O   UNL     1       1.545  -6.165  -3.736  0.00  0.00    -0.150 OA
ATOM      9  O   UNL     1       2.075  -3.937  -4.716  0.00  0.00    -0.150 OA
BRANCH   7  10
ATOM     10  N   UNL     1       3.704  -5.069  -3.242  0.00  0.00    -0.202 N 
ATOM     11  C   UNL     1       4.257  -6.247  -2.568  0.00  0.00    +0.136 C 
ATOM     12  C   UNL     1       5.761  -5.961  -2.426  0.00  0.00    +0.058 C 
ATOM     13  C   UNL     1       5.949  -4.597  -3.051  0.00  0.00    -0.023 A 
ATOM     14  C   UNL     1       4.719  -4.147  -3.506  0.00  0.00    +0.054 A 
ATOM     15  C   UNL     1       4.642  -2.901  -4.132  0.00  0.00    +0.025 A 
ATOM     16  C   UNL     1       5.776  -2.135  -4.297  0.00  0.00    +0.002 A 
ATOM     17  C   UNL     1       6.999  -2.595  -3.843  0.00  0.00    +0.000 A 
ATOM     18  C   UNL     1       7.082  -3.823  -3.214  0.00  0.00    +0.005 A 
ENDBRANCH   7  10
ENDBRANCH   5   7
BRANCH   1  19
ATOM     19  C   UNL     1       0.601  -0.602  -1.046  0.00  0.00    +0.340 C 
ATOM     20  O   UNL     1       1.092   0.071  -1.930  0.00  0.00    -0.245 OA
BRANCH  19  21
ATOM     21  O   UNL     1       0.002  -0.004   0.002  0.00  0.00    -0.452 OA
BRANCH  21  22
ATOM     22  C   UNL     1      -0.018   1.448   0.010  0.00  0.00    +0.328 C 
BRANCH  22  27
ATOM     23  N   UNL     1      -1.632   5.013   2.802  0.00  0.00    -0.299 N 
ATOM     24  C   UNL     1      -1.493   3.691   2.580  0.00  0.00    +0.306 C 
ATOM     25  O   UNL     1      -1.936   2.890   3.381  0.00  0.00    -0.252 OA
ATOM     26  N   UNL     1      -0.862   3.256   1.472  0.00  0.00    -0.237 N 
ATOM     27  C   UNL     1      -0.723   1.934   1.250  0.00  0.00    +0.258 C 
ATOM     28  O   UNL     1      -1.165   1.135   2.048  0.00  0.00    -0.272 OA
ATOM     29  H   UNL     1      -1.278   5.651   2.164  0.00  0.00    +0.150 HD
ATOM     30  H   UNL     1      -0.508   3.895   0.833  0.00  0.00    +0.159 HD
BRANCH  23  32
ATOM     31  C   UNL     1      -2.338   7.015   4.016  0.00  0.00    +0.024 C 
ATOM     32  C   UNL     1      -2.318   5.485   4.008  0.00  0.00    +0.102 C 
ENDBRANCH  23  32
ENDBRANCH  22  27
ENDBRANCH  21  22
ENDBRANCH  19  21
ENDBRANCH   1  19
TORSDOF 7
