REMARK  Name = ZINC31493592
REMARK  10 active torsions:
REMARK  status: ('A' for Active; 'I' for Inactive)
REMARK    1  A    between atoms: C_1  and  C_2
REMARK    2  A    between atoms: C_4  and  N_11
REMARK    3  A    between atoms: C_6  and  C_8
REMARK    4  A    between atoms: C_8  and  C_9
REMARK    5  A    between atoms: C_8  and  C_10
REMARK    6  A    between atoms: C_17  and  C_19
REMARK    7  A    between atoms: C_20  and  C_29
REMARK    8  A    between atoms: C_21  and  C_26
REMARK    9  A    between atoms: C_22  and  C_25
REMARK   10  A    between atoms: C_26  and  C_28
REMARK                            x       y       z     vdW  Elec       q    Type
REMARK                         _______ _______ _______ _____ _____    ______ ____
ROOT
ATOM      1  N   UNL     1      -2.630   1.768  -1.413  0.00  0.00    -0.312 N 
ATOM      2  C   UNL     1      -1.767   0.587  -1.279  0.00  0.00    +0.125 C 
ATOM      3  C   UNL     1      -0.689   0.862  -0.225  0.00  0.00    +0.127 C 
ATOM      4  N   UNL     1      -1.345   1.297   1.018  0.00  0.00    -0.293 N 
ATOM      5  C   UNL     1      -2.332   2.386   0.938  0.00  0.00    +0.127 C 
ATOM      6  C   UNL     1      -3.345   2.050  -0.161  0.00  0.00    +0.125 C 
ATOM      7  C   UNL     1      -1.053   0.711   2.196  0.00  0.00    +0.263 C 
ATOM      8  O   UNL     1      -0.297  -0.241   2.231  0.00  0.00    -0.268 OA
ENDROOT
BRANCH   1  12
ATOM      9  C   UNL     1      -6.297   3.492  -4.207  0.00  0.00    +0.063 C 
ATOM     10  C   UNL     1      -5.291   2.433  -3.836  0.00  0.00    +0.017 A 
ATOM     11  C   UNL     1      -4.434   2.626  -2.771  0.00  0.00    +0.064 A 
ATOM     12  C   UNL     1      -3.515   1.619  -2.468  0.00  0.00    +0.125 A 
ATOM     13  N   UNL     1      -3.507   0.513  -3.206  0.00  0.00    -0.219 NA
ATOM     14  C   UNL     1      -4.348   0.368  -4.210  0.00  0.00    +0.112 A 
ATOM     15  N   UNL     1      -5.223   1.302  -4.524  0.00  0.00    -0.347 N 
ATOM     16  H   UNL     1      -5.902   1.132  -5.372  0.00  0.00    +0.167 HD
BRANCH  14  17
ATOM     17  C   UNL     1      -4.307  -0.901  -5.022  0.00  0.00    +0.049 C 
ATOM     18  C   UNL     1      -5.663  -1.604  -4.937  0.00  0.00    +0.015 C 
ATOM     19  C   UNL     1      -3.998  -0.563  -6.482  0.00  0.00    +0.015 C 
ENDBRANCH  14  17
ENDBRANCH   1  12
BRANCH   7  20
ATOM     20  C   UNL     1      -1.648   1.222   3.437  0.00  0.00    +0.106 A 
ATOM     21  C   UNL     1      -1.967   0.479   4.533  0.00  0.00    -0.010 A 
ATOM     22  C   UNL     1      -2.510   1.367   5.492  0.00  0.00    +0.041 A 
ATOM     23  C   UNL     1      -2.503   2.631   4.922  0.00  0.00    +0.024 A 
ATOM     24  N   UNL     1      -1.985   2.535   3.689  0.00  0.00    -0.354 N 
ATOM     25  H   UNL     1      -1.811   3.304   2.922  0.00  0.00    +0.166 HD
ATOM     26  C   UNL     1      -2.995   3.896   5.576  0.00  0.00    +0.064 C 
ATOM     27  C   UNL     1      -1.775  -1.007   4.695  0.00  0.00    +0.047 C 
BRANCH  22  28
ATOM     28  C   UNL     1      -2.991   1.017   6.832  0.00  0.00    +0.162 C 
ATOM     29  O   UNL     1      -4.168   0.782   7.011  0.00  0.00    -0.292 OA
ATOM     30  C   UNL     1      -2.025   0.949   7.986  0.00  0.00    +0.091 C 
ENDBRANCH  22  28
ENDBRANCH   7  20
TORSDOF 4
