REMARK  Name = ZINC66273150
REMARK  4 active torsions:
REMARK  status: ('A' for Active; 'I' for Inactive)
REMARK    1  A    between atoms: C_6  and  N_7
REMARK    2  A    between atoms: C_8  and  C_10
REMARK    3  A    between atoms: C_10  and  C_11
REMARK    4  A    between atoms: C_14  and  C_16
REMARK                            x       y       z     vdW  Elec       q    Type
REMARK                         _______ _______ _______ _____ _____    ______ ____
ROOT
ATOM      1  N   UNL     1      -1.202  -0.721   0.009  0.00  0.00    -0.285 N 
ATOM      2  C   UNL     1      -2.326  -0.154  -0.471  0.00  0.00    +0.223 C 
ATOM      3  O   UNL     1      -2.279   0.941  -0.991  0.00  0.00    -0.275 OA
ATOM      4  H   UNL     1      -1.225  -1.626   0.356  0.00  0.00    +0.155 HD
ENDROOT
BRANCH   1  10
ATOM      5  C   UNL     1      -0.013   1.373   0.194  0.00  0.00    +0.027 A 
ATOM      6  C   UNL     1       1.173   2.085   0.192  0.00  0.00    +0.051 A 
ATOM      7  C   UNL     1       2.375   1.427   0.004  0.00  0.00    +0.167 A 
ATOM      8  C   UNL     1       2.392   0.045  -0.183  0.00  0.00    +0.169 A 
ATOM      9  C   UNL     1       1.206  -0.666  -0.181  0.00  0.00    +0.072 A 
ATOM     10  C   UNL     1       0.001  -0.002   0.007  0.00  0.00    +0.037 A 
ATOM     11  O   UNL     1       3.694  -0.352  -0.343  0.00  0.00    -0.447 OA
ATOM     12  C   UNL     1       4.372   0.847  -0.743  0.00  0.00    +0.254 C 
ATOM     13  O   UNL     1       3.668   1.882  -0.041  0.00  0.00    -0.448 OA
ATOM     14  C   UNL     1       4.293   1.052  -2.259  0.00  0.00    +0.093 C 
ATOM     15  C   UNL     1       5.652   1.707  -2.620  0.00  0.00    +0.008 C 
ATOM     16  C   UNL     1       6.644   0.989  -1.669  0.00  0.00    +0.008 C 
ATOM     17  C   UNL     1       5.850   0.812  -0.355  0.00  0.00    +0.093 C 
ENDBRANCH   1  10
BRANCH   2  18
ATOM     18  C   UNL     1      -3.642  -0.879  -0.360  0.00  0.00    +0.152 C 
BRANCH  18  19
ATOM     19  C   UNL     1      -4.734  -0.036  -0.968  0.00  0.00    +0.058 A 
ATOM     20  C   UNL     1      -5.527  -0.550  -1.947  0.00  0.00    +0.071 A 
ATOM     21  S   UNL     1      -6.596   0.847  -2.271  0.00  0.00    -0.074 S 
ATOM     22  C   UNL     1      -5.873   1.957  -1.071  0.00  0.00    +0.128 A 
ATOM     23  N   UNL     1      -4.924   1.192  -0.550  0.00  0.00    -0.242 NA
BRANCH  22  24
ATOM     24  C   UNL     1      -6.238   3.352  -0.743  0.00  0.00    +0.114 A 
ATOM     25  C   UNL     1      -7.293   3.976  -1.413  0.00  0.00    +0.141 A 
ATOM     26  N   UNL     1      -7.614   5.221  -1.117  0.00  0.00    -0.260 NA
ATOM     27  C   UNL     1      -6.940   5.877  -0.187  0.00  0.00    +0.130 A 
ATOM     28  C   UNL     1      -5.894   5.262   0.480  0.00  0.00    +0.131 A 
ATOM     29  N   UNL     1      -5.567   4.016   0.195  0.00  0.00    -0.250 NA
ENDBRANCH  22  24
ENDBRANCH  18  19
ENDBRANCH   2  18
TORSDOF 4
