REMARK  Name = ZINC64226378
REMARK  8 active torsions:
REMARK  status: ('A' for Active; 'I' for Inactive)
REMARK    1  A    between atoms: C_1  and  C_2
REMARK    2  A    between atoms: C_4  and  C_7
REMARK    3  A    between atoms: N_15  and  C_16
REMARK    4  A    between atoms: C_16  and  C_17
REMARK    5  A    between atoms: C_17  and  N_24
REMARK    6  A    between atoms: C_21  and  C_23
REMARK    7  A    between atoms: N_24  and  C_25
REMARK    8  A    between atoms: N_24  and  C_26
REMARK                            x       y       z     vdW  Elec       q    Type
REMARK                         _______ _______ _______ _____ _____    ______ ____
ROOT
ATOM      1  C   UNL     1       0.374  -6.456  -0.760  0.00  0.00    +0.095 C 
ATOM      2  C   UNL     1       0.443  -5.168   0.064  0.00  0.00    +0.016 C 
ATOM      3  C   UNL     1      -0.889  -4.422  -0.040  0.00  0.00    +0.020 C 
ATOM      4  C   UNL     1      -1.147  -4.048  -1.503  0.00  0.00    +0.109 C 
ATOM      5  N   UNL     1      -1.071  -5.264  -2.323  0.00  0.00    -0.285 N 
ATOM      6  C   UNL     1       0.131  -6.105  -2.231  0.00  0.00    +0.122 C 
ATOM      7  C   UNL     1      -2.084  -5.603  -3.144  0.00  0.00    +0.302 C 
ATOM      8  O   UNL     1      -3.115  -4.958  -3.137  0.00  0.00    -0.253 OA
ATOM      9  N   UNL     1      -1.956  -6.658  -3.974  0.00  0.00    -0.301 N 
ATOM     10  H   UNL     1      -1.164  -7.216  -3.929  0.00  0.00    +0.150 HD
ENDROOT
BRANCH   1  14
ATOM     11  C   UNL     1       3.662 -10.091   0.275  0.00  0.00    +0.091 C 
ATOM     12  C   UNL     1       3.107  -8.769  -0.188  0.00  0.00    +0.169 A 
ATOM     13  N   UNL     1       1.818  -8.414  -0.158  0.00  0.00    -0.196 NA
ATOM     14  C   UNL     1       1.675  -7.206  -0.630  0.00  0.00    +0.232 A 
ATOM     15  O   UNL     1       2.883  -6.748  -0.981  0.00  0.00    -0.338 OA
ATOM     16  N   UNL     1       3.805  -7.784  -0.677  0.00  0.00    -0.062 NA
ENDBRANCH   1  14
BRANCH   9  17
ATOM     17  C   UNL     1      -3.012  -6.961  -4.942  0.00  0.00    +0.094 C 
BRANCH  17  18
ATOM     18  C   UNL     1      -2.681  -8.268  -5.666  0.00  0.00    -0.050 C 
ATOM     19  C   UNL     1      -2.474  -9.382  -4.638  0.00  0.00    -0.010 C 
ATOM     20  C   UNL     1      -2.143 -10.688  -5.362  0.00  0.00    -0.001 C 
ATOM     21  C   UNL     1      -0.864 -10.507  -6.182  0.00  0.00    +0.003 C 
ATOM     22  C   UNL     1      -1.070  -9.393  -7.210  0.00  0.00    -0.015 C 
ATOM     23  C   UNL     1      -1.402  -8.086  -6.486  0.00  0.00    -0.007 C 
ATOM     24  C   UNL     1       0.209  -9.211  -8.030  0.00  0.00    +0.007 C 
BRANCH  18  25
ATOM     25  N   UNL     1      -3.789  -8.626  -6.561  0.00  0.00    +0.381 N 
ATOM     26  C   UNL     1      -5.037  -8.701  -5.790  0.00  0.00    -0.096 C 
ATOM     27  C   UNL     1      -3.922  -7.606  -7.609  0.00  0.00    -0.096 C 
ATOM     28  H   UNL     1      -3.602  -9.522  -6.986  0.00  0.00    -0.082 HD
ENDBRANCH  18  25
ENDBRANCH  17  18
ENDBRANCH   9  17
TORSDOF 4
