REMARK  Name = ZINC03460499
REMARK  8 active torsions:
REMARK  status: ('A' for Active; 'I' for Inactive)
REMARK    1  A    between atoms: C_1  and  C_2
REMARK    2  A    between atoms: N_13  and  C_26
REMARK    3  A    between atoms: C_14  and  S_16
REMARK    4  A    between atoms: S_16  and  C_17
REMARK    5  A    between atoms: C_17  and  C_19
REMARK    6  A    between atoms: C_17  and  C_20
REMARK    7  A    between atoms: C_26  and  C_27
REMARK    8  A    between atoms: C_27  and  C_28
REMARK                            x       y       z     vdW  Elec       q    Type
REMARK                         _______ _______ _______ _____ _____    ______ ____
ROOT
ATOM      1  C   UNL     1      -9.835   8.148   0.403  0.00  0.00    +0.008 C 
ATOM      2  C   UNL     1      -8.987   6.884   0.249  0.00  0.00    -0.009 C 
ATOM      3  C   UNL     1      -9.141   6.008   1.496  0.00  0.00    +0.008 C 
ATOM      4  C   UNL     1      -8.505   4.639   1.250  0.00  0.00    +0.037 C 
ATOM      5  C   UNL     1      -7.073   4.843   0.760  0.00  0.00    -0.023 A 
ATOM      6  C   UNL     1      -6.680   6.030   0.256  0.00  0.00    -0.004 A 
ATOM      7  S   UNL     1      -4.974   5.805  -0.172  0.00  0.00    -0.073 S 
ATOM      8  C   UNL     1      -4.795   4.111   0.328  0.00  0.00    +0.117 A 
ATOM      9  C   UNL     1      -6.071   3.777   0.813  0.00  0.00    +0.076 A 
ATOM     10  C   UNL     1      -6.224   2.439   1.295  0.00  0.00    +0.263 A 
ATOM     11  O   UNL     1      -7.296   2.059   1.733  0.00  0.00    -0.267 OA
ATOM     12  N   UNL     1      -5.168   1.605   1.256  0.00  0.00    -0.287 N 
ATOM     13  C   UNL     1      -3.961   2.013   0.768  0.00  0.00    +0.173 A 
ATOM     14  N   UNL     1      -3.791   3.242   0.323  0.00  0.00    -0.216 NA
ATOM     15  C   UNL     1      -7.508   7.268   0.096  0.00  0.00    +0.046 C 
ENDROOT
BRANCH  13  16
ATOM     16  S   UNL     1      -2.608   0.885   0.740  0.00  0.00    -0.075 S 
BRANCH  16  17
ATOM     17  C   UNL     1      -1.330   1.944   0.019  0.00  0.00    +0.137 C 
ATOM     18  C   UNL     1      -1.720   2.310  -1.414  0.00  0.00    +0.029 C 
BRANCH  17  19
ATOM     19  C   UNL     1      -0.014   1.208   0.009  0.00  0.00    +0.233 C 
ATOM     20  O   UNL     1       0.002  -0.004   0.002  0.00  0.00    -0.274 OA
ATOM     21  N   UNL     1       1.143   1.898   0.001  0.00  0.00    -0.239 N 
ATOM     22  C   UNL     1       2.320   1.240  -0.013  0.00  0.00    +0.303 C 
ATOM     23  O   UNL     1       2.336   0.025  -0.020  0.00  0.00    -0.253 OA
ATOM     24  N   UNL     1       3.478   1.930  -0.021  0.00  0.00    -0.313 N 
ATOM     25  H   UNL     1       1.130   2.868   0.007  0.00  0.00    +0.159 HD
ATOM     26  H   UNL     1       3.465   2.900  -0.015  0.00  0.00    +0.146 HD
ATOM     27  H   UNL     1       4.324   1.456  -0.031  0.00  0.00    +0.146 HD
ENDBRANCH  17  19
ENDBRANCH  16  17
ENDBRANCH  13  16
BRANCH  12  28
ATOM     28  C   UNL     1      -5.317   0.233   1.748  0.00  0.00    +0.132 C 
BRANCH  28  29
ATOM     29  C   UNL     1      -4.982   0.187   3.240  0.00  0.00    +0.057 C 
BRANCH  29  30
ATOM     30  C   UNL     1      -5.135  -1.224   3.746  0.00  0.00    -0.046 A 
ATOM     31  C   UNL     1      -6.351  -1.650   4.249  0.00  0.00    +0.004 A 
ATOM     32  C   UNL     1      -6.493  -2.946   4.708  0.00  0.00    +0.000 A 
ATOM     33  C   UNL     1      -5.417  -3.813   4.675  0.00  0.00    +0.000 A 
ATOM     34  C   UNL     1      -4.200  -3.385   4.178  0.00  0.00    +0.000 A 
ATOM     35  C   UNL     1      -4.059  -2.091   3.714  0.00  0.00    +0.004 A 
ENDBRANCH  29  30
ENDBRANCH  28  29
ENDBRANCH  12  28
TORSDOF 6
