REMARK  Name = ZINC02152642
REMARK  5 active torsions:
REMARK  status: ('A' for Active; 'I' for Inactive)
REMARK    1  A    between atoms: C_1  and  C_2
REMARK    2  A    between atoms: C_9  and  C_11
REMARK    3  A    between atoms: C_14  and  N_17
REMARK    4  A    between atoms: C_21  and  N_60
REMARK    5  A    between atoms: C_25  and  N_60
REMARK                            x       y       z     vdW  Elec       q    Type
REMARK                         _______ _______ _______ _____ _____    ______ ____
ROOT
ATOM      1  N   UNL     1      -6.553   2.258   3.146  0.00  0.00    -0.212 N 
ATOM      2  C   UNL     1      -6.975   3.520   3.002  0.00  0.00    +0.225 C 
ATOM      3  O   UNL     1      -8.063   3.939   3.335  0.00  0.00    -0.275 OA
ATOM      4  C   UNL     1      -5.880   4.341   2.357  0.00  0.00    +0.090 C 
ATOM      5  C   UNL     1      -4.739   3.324   2.151  0.00  0.00    +0.026 C 
ATOM      6  C   UNL     1      -5.310   2.035   2.701  0.00  0.00    +0.213 C 
ATOM      7  O   UNL     1      -4.733   0.969   2.733  0.00  0.00    -0.277 OA
ENDROOT
BRANCH   1  11
ATOM      8  C   UNL     1      -8.913  -0.734   4.841  0.00  0.00    +0.007 A 
ATOM      9  C   UNL     1      -8.578  -0.790   3.487  0.00  0.00    +0.012 A 
ATOM     10  C   UNL     1      -7.798   0.200   2.930  0.00  0.00    +0.024 A 
ATOM     11  C   UNL     1      -7.345   1.254   3.715  0.00  0.00    +0.044 A 
ATOM     12  C   UNL     1      -7.672   1.310   5.064  0.00  0.00    +0.024 A 
ATOM     13  C   UNL     1      -8.457   0.327   5.627  0.00  0.00    +0.012 A 
BRANCH   8  22
ATOM     14  C   UNL     1     -13.351  -6.337   8.105  0.00  0.00    +0.044 C 
ATOM     15  C   UNL     1     -12.535  -5.428   7.222  0.00  0.00    -0.049 A 
ATOM     16  C   UNL     1     -12.358  -5.731   5.879  0.00  0.00    +0.005 A 
ATOM     17  C   UNL     1     -11.627  -4.931   5.057  0.00  0.00    +0.029 A 
ATOM     18  C   UNL     1     -11.016  -3.752   5.547  0.00  0.00    +0.079 A 
ATOM     19  C   UNL     1     -11.215  -3.471   6.920  0.00  0.00    +0.040 A 
ATOM     20  C   UNL     1     -11.955  -4.286   7.741  0.00  0.00    +0.020 A 
ATOM     21  S   UNL     1     -10.307  -1.959   7.132  0.00  0.00    -0.067 S 
ATOM     22  C   UNL     1      -9.749  -1.794   5.442  0.00  0.00    +0.109 A 
ATOM     23  N   UNL     1     -10.267  -2.860   4.871  0.00  0.00    -0.239 NA
ENDBRANCH   8  22
ENDBRANCH   1  11
BRANCH   5  24
ATOM     24  N   UNL     1      -4.431   3.184   0.715  0.00  0.00    +0.389 N 
ATOM     25  H   UNL     1      -4.554   4.093   0.252  0.00  0.00    -0.084 HD
ATOM     26  H   UNL     1      -5.071   2.498   0.297  0.00  0.00    -0.084 HD
BRANCH  24  27
ATOM     27  C   UNL     1      -3.041   2.728   0.531  0.00  0.00    -0.071 C 
ATOM     28  C   UNL     1      -2.545   3.170  -0.847  0.00  0.00    -0.016 C 
ATOM     29  C   UNL     1      -1.020   3.060  -0.899  0.00  0.00    -0.002 C 
ATOM     30  C   UNL     1      -0.619   1.591  -1.048  0.00  0.00    -0.000 C 
ATOM     31  C   UNL     1       0.093   1.124   0.223  0.00  0.00    -0.000 C 
ATOM     32  C   UNL     1      -0.667   1.634   1.449  0.00  0.00    -0.000 C 
ATOM     33  C   UNL     1      -1.929   0.792   1.654  0.00  0.00    -0.002 C 
ATOM     34  C   UNL     1      -2.987   1.202   0.627  0.00  0.00    -0.016 C 
ENDBRANCH  24  27
ENDBRANCH   5  24
TORSDOF 4
