REMARK  Name = ZINC63547098
REMARK  7 active torsions:
REMARK  status: ('A' for Active; 'I' for Inactive)
REMARK    1  A    between atoms: C_1  and  C_2
REMARK    2  A    between atoms: C_8  and  C_11
REMARK    3  A    between atoms: C_11  and  C_12
REMARK    4  A    between atoms: C_12  and  N_13
REMARK    5  A    between atoms: C_14  and  C_16
REMARK    6  A    between atoms: C_21  and  C_30
REMARK    7  A    between atoms: C_23  and  C_26
REMARK                            x       y       z     vdW  Elec       q    Type
REMARK                         _______ _______ _______ _____ _____    ______ ____
ROOT
ATOM      1  C   UNL     1      -2.534  -2.338   7.783  0.00  0.00    +0.185 C 
ATOM      2  C   UNL     1      -1.769  -3.421   8.508  0.00  0.00    +0.045 C 
ATOM      3  C   UNL     1      -2.643  -4.022   9.345  0.00  0.00    +0.116 C 
ATOM      4  N   UNL     1      -2.424  -5.050  10.202  0.00  0.00    -0.339 N 
ATOM      5  C   UNL     1      -3.397  -5.525  10.957  0.00  0.00    +0.085 C 
ATOM      6  C   UNL     1      -4.734  -4.933  10.869  0.00  0.00    +0.058 C 
ATOM      7  C   UNL     1      -4.940  -3.913  10.015  0.00  0.00    +0.133 C 
ATOM      8  N   UNL     1      -3.900  -3.445   9.244  0.00  0.00    -0.215 N 
ATOM      9  N   UNL     1      -3.902  -2.426   8.323  0.00  0.00    -0.218 NA
ATOM     10  H   UNL     1      -4.571  -2.603   7.588  0.00  0.00    +0.146 HD
ATOM     11  H   UNL     1      -1.539  -5.442  10.261  0.00  0.00    +0.167 HD
ENDROOT
BRANCH   5  12
ATOM     12  C   UNL     1      -3.141  -6.641  11.882  0.00  0.00    +0.151 A 
ATOM     13  C   UNL     1      -4.056  -7.223  12.708  0.00  0.00    +0.051 A 
ATOM     14  C   UNL     1      -3.381  -8.240  13.406  0.00  0.00    +0.042 A 
ATOM     15  C   UNL     1      -2.101  -8.232  12.979  0.00  0.00    +0.196 A 
ATOM     16  O   UNL     1      -1.961  -7.269  12.056  0.00  0.00    -0.461 OA
ENDBRANCH   5  12
BRANCH   1  18
ATOM     17  N   UNL     1      -1.377  -2.600   5.613  0.00  0.00    -0.313 N 
ATOM     18  C   UNL     1      -2.537  -2.599   6.299  0.00  0.00    +0.236 C 
ATOM     19  O   UNL     1      -3.583  -2.808   5.722  0.00  0.00    -0.274 OA
ATOM     20  H   UNL     1      -0.540  -2.433   6.075  0.00  0.00    +0.149 HD
BRANCH  17  21
ATOM     21  C   UNL     1      -1.379  -2.854   4.170  0.00  0.00    +0.108 C 
BRANCH  21  22
ATOM     22  C   UNL     1       0.055  -2.799   3.641  0.00  0.00    +0.052 C 
BRANCH  22  30
ATOM     23  C   UNL     1      -0.018   1.503   0.010  0.00  0.00    +0.044 C 
ATOM     24  C   UNL     1       0.002  -0.004   0.002  0.00  0.00    -0.050 A 
ATOM     25  C   UNL     1       0.005  -0.680  -1.226  0.00  0.00    +0.005 A 
ATOM     26  C   UNL     1       0.023  -2.026  -1.317  0.00  0.00    +0.026 A 
ATOM     27  C   UNL     1       0.039  -2.826  -0.141  0.00  0.00    +0.043 A 
ATOM     28  N   UNL     1       0.057  -4.126   0.030  0.00  0.00    -0.380 N 
ATOM     29  C   UNL     1       0.067  -4.408   1.470  0.00  0.00    +0.144 C 
ATOM     30  C   UNL     1       0.052  -3.060   2.156  0.00  0.00    -0.040 C 
ATOM     31  C   UNL     1       0.036  -2.137   1.168  0.00  0.00    -0.001 A 
ATOM     32  C   UNL     1       0.022  -0.669   1.180  0.00  0.00    +0.013 A 
ATOM     33  H   UNL     1       0.062  -4.790  -0.677  0.00  0.00    +0.160 HD
ENDBRANCH  22  30
ENDBRANCH  21  22
ENDBRANCH  17  21
ENDBRANCH   1  18
BRANCH   7  34
ATOM     34  C   UNL     1      -6.305  -3.285   9.903  0.00  0.00    +0.432 C 
ATOM     35  F   UNL     1      -7.187  -3.928  10.779  0.00  0.00    -0.165 F 
ATOM     36  F   UNL     1      -6.224  -1.929  10.235  0.00  0.00    -0.165 F 
ATOM     37  F   UNL     1      -6.773  -3.416   8.591  0.00  0.00    -0.165 F 
ENDBRANCH   7  34
TORSDOF 6
