REMARK  Name = ZINC14975380
REMARK  11 active torsions:
REMARK  status: ('A' for Active; 'I' for Inactive)
REMARK    1  A    between atoms: C_4  and  O_20
REMARK    2  A    between atoms: C_5  and  C_7
REMARK    3  A    between atoms: C_7  and  N_59
REMARK    4  A    between atoms: C_8  and  C_9
REMARK    5  A    between atoms: C_8  and  N_59
REMARK    6  A    between atoms: C_9  and  C_10
REMARK    7  A    between atoms: O_20  and  C_21
REMARK    8  A    between atoms: C_21  and  C_22
REMARK    9  A    between atoms: C_22  and  C_24
REMARK   10  A    between atoms: C_22  and  O_30
REMARK   11  A    between atoms: C_24  and  N_62
REMARK                            x       y       z     vdW  Elec       q    Type
REMARK                         _______ _______ _______ _____ _____    ______ ____
ROOT
ATOM      1  C   UNL     1       1.835  -1.835  -3.209  0.00  0.00    +0.000 A 
ATOM      2  C   UNL     1       1.781  -0.455  -3.140  0.00  0.00    +0.004 A 
ATOM      3  C   UNL     1       1.163   0.161  -2.068  0.00  0.00    +0.046 A 
ATOM      4  C   UNL     1       0.606  -0.607  -1.056  0.00  0.00    +0.122 A 
ATOM      5  C   UNL     1       0.661  -1.991  -1.128  0.00  0.00    -0.023 A 
ATOM      6  C   UNL     1       1.275  -2.602  -2.204  0.00  0.00    +0.005 A 
ENDROOT
BRANCH   5   7
ATOM      7  C   UNL     1       0.051  -2.828  -0.033  0.00  0.00    -0.043 C 
BRANCH   7   8
ATOM      8  N   UNL     1      -1.407  -2.908  -0.241  0.00  0.00    +0.382 N 
ATOM      9  H   UNL     1      -1.596  -3.337  -1.155  0.00  0.00    -0.085 HD
ATOM     10  H   UNL     1      -1.805  -1.962  -0.219  0.00  0.00    -0.085 HD
BRANCH   8  11
ATOM     11  C   UNL     1      -2.032  -3.723   0.818  0.00  0.00    -0.077 C 
BRANCH  11  12
ATOM     12  C   UNL     1      -3.542  -3.788   0.576  0.00  0.00    +0.018 C 
BRANCH  12  13
ATOM     13  C   UNL     1      -4.188  -4.619   1.654  0.00  0.00    -0.024 A 
ATOM     14  C   UNL     1      -4.486  -5.926   1.584  0.00  0.00    +0.087 A 
ATOM     15  N   UNL     1      -5.062  -6.337   2.755  0.00  0.00    -0.360 N 
ATOM     16  H   UNL     1      -5.362  -7.240   2.942  0.00  0.00    +0.165 HD
ATOM     17  C   UNL     1      -5.159  -5.275   3.626  0.00  0.00    +0.047 A 
ATOM     18  C   UNL     1      -4.616  -4.152   2.975  0.00  0.00    +0.003 A 
ATOM     19  C   UNL     1      -4.580  -2.919   3.627  0.00  0.00    +0.010 A 
ATOM     20  C   UNL     1      -5.073  -2.807   4.897  0.00  0.00    +0.001 A 
ATOM     21  C   UNL     1      -5.611  -3.912   5.543  0.00  0.00    +0.002 A 
ATOM     22  C   UNL     1      -5.656  -5.139   4.918  0.00  0.00    +0.026 A 
ENDBRANCH  12  13
ENDBRANCH  11  12
ENDBRANCH   8  11
ENDBRANCH   7   8
ENDBRANCH   5   7
BRANCH   4  23
ATOM     23  O   UNL     1       0.002  -0.004   0.002  0.00  0.00    -0.489 OA
BRANCH  23  24
ATOM     24  C   UNL     1      -0.017   1.425   0.010  0.00  0.00    +0.258 C 
BRANCH  24  25
ATOM     25  C   UNL     1      -0.733   1.918   1.269  0.00  0.00    +0.135 C 
BRANCH  25  26
ATOM     26  O   UNL     1       0.021   1.544   2.423  0.00  0.00    -0.390 OA
ATOM     27  H   UNL     1       0.916   1.908   2.443  0.00  0.00    +0.210 HD
ENDBRANCH  25  26
BRANCH  25  28
ATOM     28  C   UNL     1      -0.865   3.442   1.217  0.00  0.00    -0.044 C 
BRANCH  28  34
ATOM     29  C   UNL     1      -2.924   3.405   2.483  0.00  0.00    -0.068 C 
ATOM     30  C   UNL     1      -3.458   3.512   3.916  0.00  0.00    +0.050 C 
ATOM     31  S   UNL     1      -3.468   5.268   4.394  0.00  0.00    -0.164 S 
ATOM     32  C   UNL     1      -1.784   5.809   3.968  0.00  0.00    +0.050 C 
ATOM     33  C   UNL     1      -1.488   5.375   2.528  0.00  0.00    -0.068 C 
ATOM     34  N   UNL     1      -1.527   3.898   2.451  0.00  0.00    +0.382 N 
ATOM     35  H   UNL     1      -1.024   3.513   3.260  0.00  0.00    -0.082 HD
ENDBRANCH  28  34
ENDBRANCH  25  28
ENDBRANCH  24  25
ENDBRANCH  23  24
ENDBRANCH   4  23
TORSDOF 11
