REMARK  Name = ZINC23680990
REMARK  8 active torsions:
REMARK  status: ('A' for Active; 'I' for Inactive)
REMARK    1  A    between atoms: C_8  and  C_13
REMARK    2  A    between atoms: C_13  and  C_14
REMARK    3  A    between atoms: C_14  and  C_15
REMARK    4  A    between atoms: N_17  and  C_18
REMARK    5  A    between atoms: C_22  and  S_24
REMARK    6  A    between atoms: S_24  and  N_27
REMARK    7  A    between atoms: N_27  and  C_28
REMARK    8  A    between atoms: C_28  and  C_29
REMARK                            x       y       z     vdW  Elec       q    Type
REMARK                         _______ _______ _______ _____ _____    ______ ____
ROOT
ATOM      1  C   UNL     1       0.087  -2.773   0.087  0.00  0.00    +0.217 C 
ATOM      2  O   UNL     1      -0.975  -2.187   0.101  0.00  0.00    -0.275 OA
ATOM      3  N   UNL     1       1.237  -2.080  -0.021  0.00  0.00    -0.285 N 
ATOM      4  H   UNL     1       2.194  -2.614  -0.121  0.00  0.00    +0.155 HD
ENDROOT
BRANCH   3   5
ATOM      5  C   UNL     1       1.216  -0.681  -0.007  0.00  0.00    +0.035 A 
ATOM      6  C   UNL     1       0.270  -0.007   0.755  0.00  0.00    +0.023 A 
ATOM      7  C   UNL     1       0.251   1.374   0.766  0.00  0.00    +0.004 A 
ATOM      8  C   UNL     1       1.172   2.086   0.019  0.00  0.00    +0.028 A 
ATOM      9  C   UNL     1       2.114   1.418  -0.741  0.00  0.00    +0.107 A 
ATOM     10  C   UNL     1       2.139   0.037  -0.756  0.00  0.00    +0.051 A 
BRANCH   9  11
ATOM     11  S   UNL     1       3.285   2.330  -1.691  0.00  0.00    +0.059 S 
ATOM     12  O   UNL     1       3.399   3.607  -1.078  0.00  0.00    -0.153 OA
ATOM     13  O   UNL     1       4.404   1.476  -1.885  0.00  0.00    -0.153 OA
BRANCH  11  14
ATOM     14  N   UNL     1       2.615   2.579  -3.184  0.00  0.00    -0.183 NA
ATOM     15  H   UNL     1       2.976   1.991  -4.041  0.00  0.00    +0.148 HD
BRANCH  14  16
ATOM     16  C   UNL     1       1.415   3.408  -3.320  0.00  0.00    +0.180 C 
BRANCH  16  17
ATOM     17  C   UNL     1       1.222   3.781  -4.767  0.00  0.00    +0.120 A 
ATOM     18  C   UNL     1       0.519   3.079  -5.674  0.00  0.00    +0.046 A 
ATOM     19  C   UNL     1       0.602   3.787  -6.894  0.00  0.00    +0.041 A 
ATOM     20  C   UNL     1       1.350   4.880  -6.661  0.00  0.00    +0.195 A 
ATOM     21  O   UNL     1       1.718   4.874  -5.370  0.00  0.00    -0.466 OA
ENDBRANCH  16  17
ENDBRANCH  14  16
ENDBRANCH  11  14
ENDBRANCH   9  11
ENDBRANCH   3   5
BRANCH   1  22
ATOM     22  C   UNL     1       0.119  -4.276   0.192  0.00  0.00    +0.097 C 
BRANCH  22  23
ATOM     23  C   UNL     1      -1.310  -4.810   0.303  0.00  0.00    +0.022 C 
BRANCH  23  31
ATOM     24  C   UNL     1      -5.372  -6.003   2.919  0.00  0.00    +0.000 A 
ATOM     25  C   UNL     1      -4.647  -5.985   4.096  0.00  0.00    +0.002 A 
ATOM     26  C   UNL     1      -3.291  -6.245   4.078  0.00  0.00    +0.023 A 
ATOM     27  C   UNL     1      -2.655  -6.525   2.875  0.00  0.00    +0.037 A 
ATOM     28  C   UNL     1      -3.387  -6.554   1.697  0.00  0.00    -0.025 A 
ATOM     29  C   UNL     1      -4.743  -6.288   1.721  0.00  0.00    +0.005 A 
ATOM     30  C   UNL     1      -2.707  -6.878   0.392  0.00  0.00    +0.049 C 
ATOM     31  C   UNL     1      -1.277  -6.336   0.410  0.00  0.00    +0.080 C 
ATOM     32  C   UNL     1      -0.598  -6.734   1.694  0.00  0.00    +0.221 C 
ATOM     33  O   UNL     1       0.576  -7.039   1.682  0.00  0.00    -0.275 OA
ATOM     34  N   UNL     1      -1.276  -6.754   2.852  0.00  0.00    -0.285 N 
ATOM     35  H   UNL     1      -0.736  -6.954   3.789  0.00  0.00    +0.155 HD
ENDBRANCH  23  31
ENDBRANCH  22  23
ENDBRANCH   1  22
TORSDOF 8
