REMARK  Name = ZINC54197323
REMARK  9 active torsions:
REMARK  status: ('A' for Active; 'I' for Inactive)
REMARK    1  A    between atoms: C_1  and  C_2
REMARK    2  A    between atoms: C_3  and  C_13
REMARK    3  A    between atoms: C_4  and  C_12
REMARK    4  A    between atoms: C_9  and  C_10
REMARK    5  A    between atoms: C_13  and  C_14
REMARK    6  A    between atoms: C_14  and  C_15
REMARK    7  A    between atoms: N_17  and  C_18
REMARK    8  A    between atoms: C_18  and  C_19
REMARK    9  A    between atoms: C_19  and  C_20
REMARK                            x       y       z     vdW  Elec       q    Type
REMARK                         _______ _______ _______ _____ _____    ______ ____
ROOT
ATOM      1  C   UNL     1      -2.891   0.344   1.455  0.00  0.00    +0.100 C 
ENDROOT
BRANCH   1   2
ATOM      2  C   UNL     1      -4.212   1.070   1.465  0.00  0.00    +0.213 C 
ATOM      3  O   UNL     1      -4.792   1.287   0.422  0.00  0.00    -0.276 OA
ATOM      4  N   UNL     1      -4.748   1.477   2.632  0.00  0.00    -0.315 N 
ATOM      5  H   UNL     1      -4.284   1.303   3.466  0.00  0.00    +0.149 HD
BRANCH   4   6
ATOM      6  C   UNL     1      -6.032   2.182   2.642  0.00  0.00    +0.109 C 
BRANCH   6   7
ATOM      7  C   UNL     1      -6.412   2.530   4.083  0.00  0.00    +0.057 C 
BRANCH   7   8
ATOM      8  C   UNL     1      -7.733   3.256   4.093  0.00  0.00    -0.009 A 
ATOM      9  C   UNL     1      -7.766   4.635   3.990  0.00  0.00    +0.046 A 
ATOM     10  C   UNL     1      -8.979   5.300   4.000  0.00  0.00    +0.020 A 
ATOM     11  C   UNL     1     -10.158   4.587   4.112  0.00  0.00    +0.003 A 
ATOM     12  C   UNL     1     -10.125   3.209   4.215  0.00  0.00    +0.020 A 
ATOM     13  C   UNL     1      -8.913   2.542   4.199  0.00  0.00    +0.046 A 
ATOM     14 CL   UNL     1      -8.873   0.811   4.320  0.00  0.00    -0.083 Cl
ATOM     15 CL   UNL     1      -6.285   5.530   3.851  0.00  0.00    -0.083 Cl
ENDBRANCH   7   8
ENDBRANCH   6   7
ENDBRANCH   4   6
ENDBRANCH   1   2
BRANCH   1  16
ATOM     16  C   UNL     1      -2.511  -0.004   0.014  0.00  0.00    +0.046 C 
BRANCH  16  19
ATOM     17  C   UNL     1      -0.018   1.503   0.010  0.00  0.00    +0.045 C 
ATOM     18  C   UNL     1       0.002  -0.004   0.002  0.00  0.00    -0.023 A 
ATOM     19  C   UNL     1      -1.190  -0.729   0.004  0.00  0.00    -0.024 A 
ATOM     20  C   UNL     1      -1.163  -2.086  -0.003  0.00  0.00    +0.019 A 
ATOM     21  N   UNL     1       0.010  -2.764  -0.012  0.00  0.00    -0.325 N 
ATOM     22  H   UNL     1      -0.000  -3.734  -0.017  0.00  0.00    +0.169 HD
ATOM     23  C   UNL     1       1.189  -2.114  -0.015  0.00  0.00    +0.267 A 
ATOM     24  O   UNL     1       2.234  -2.742  -0.023  0.00  0.00    -0.266 OA
ATOM     25  C   UNL     1       1.211  -0.695  -0.013  0.00  0.00    +0.119 A 
ATOM     26  C   UNL     1      -2.461  -2.851  -0.001  0.00  0.00    +0.063 C 
BRANCH  25  27
ATOM     27  C   UNL     1       2.455   0.014  -0.021  0.00  0.00    +0.105 C 
ATOM     28  N   UNL     1       3.442   0.577  -0.028  0.00  0.00    -0.191 NA
ENDBRANCH  25  27
ENDBRANCH  16  19
ENDBRANCH   1  16
TORSDOF 7
