REMARK  Name = ZINC36587101
REMARK  15 active torsions:
REMARK  status: ('A' for Active; 'I' for Inactive)
REMARK    1  A    between atoms: C_1  and  C_2
REMARK    2  A    between atoms: C_5  and  C_8
REMARK    3  A    between atoms: C_8  and  C_10
REMARK    4  A    between atoms: C_8  and  N_24
REMARK    5  A    between atoms: N_12  and  C_13
REMARK    6  A    between atoms: C_13  and  S_14
REMARK    7  A    between atoms: S_14  and  C_17
REMARK    8  A    between atoms: C_20  and  C_23
REMARK    9  A    between atoms: N_24  and  C_35
REMARK   10  A    between atoms: C_25  and  C_27
REMARK   11  A    between atoms: C_31  and  O_34
REMARK   12  A    between atoms: C_32  and  O_33
REMARK   13  A    between atoms: C_35  and  C_36
REMARK   14  A    between atoms: C_35  and  C_37
REMARK   15  A    between atoms: C_35  and  C_38
REMARK                            x       y       z     vdW  Elec       q    Type
REMARK                         _______ _______ _______ _____ _____    ______ ____
ROOT
ATOM      1  C   UNL     1      -1.432  -3.502   2.282  0.00  0.00    +0.193 C 
ENDROOT
BRANCH   1   6
ATOM      2  C   UNL     1      -4.052  -1.928   7.186  0.00  0.00    +0.044 C 
ATOM      3  C   UNL     1      -3.369  -2.338   5.907  0.00  0.00    -0.050 A 
ATOM      4  C   UNL     1      -3.523  -1.574   4.765  0.00  0.00    +0.004 A 
ATOM      5  C   UNL     1      -2.896  -1.951   3.592  0.00  0.00    +0.006 A 
ATOM      6  C   UNL     1      -2.115  -3.091   3.561  0.00  0.00    -0.018 A 
ATOM      7  C   UNL     1      -1.960  -3.854   4.703  0.00  0.00    +0.006 A 
ATOM      8  C   UNL     1      -2.583  -3.475   5.877  0.00  0.00    +0.004 A 
ENDBRANCH   1   6
BRANCH   1   9
ATOM      9  C   UNL     1       0.003  -3.042   2.308  0.00  0.00    +0.239 C 
ATOM     10  O   UNL     1       0.900  -3.848   2.178  0.00  0.00    -0.273 OA
ATOM     11  N   UNL     1       0.289  -1.736   2.477  0.00  0.00    -0.294 N 
ATOM     12  H   UNL     1      -0.428  -1.092   2.581  0.00  0.00    +0.150 HD
BRANCH  11  13
ATOM     13  C   UNL     1       1.684  -1.289   2.502  0.00  0.00    +0.278 C 
BRANCH  13  14
ATOM     14  S   UNL     1       2.173  -0.738   0.845  0.00  0.00    +0.013 S 
ATOM     15  O   UNL     1       3.505  -0.242   0.867  0.00  0.00    -0.168 OA
ATOM     16  O   UNL     1       1.772  -1.693  -0.127  0.00  0.00    -0.168 OA
BRANCH  14  17
ATOM     17  C   UNL     1       1.172   0.677   0.525  0.00  0.00    +0.090 A 
ATOM     18  C   UNL     1      -0.063   0.527  -0.077  0.00  0.00    +0.027 A 
ATOM     19  C   UNL     1      -0.848   1.637  -0.329  0.00  0.00    +0.005 A 
ATOM     20  C   UNL     1      -0.398   2.896   0.023  0.00  0.00    -0.050 A 
ATOM     21  C   UNL     1       0.837   3.045   0.626  0.00  0.00    +0.005 A 
ATOM     22  C   UNL     1       1.620   1.935   0.881  0.00  0.00    +0.027 A 
ATOM     23  C   UNL     1      -1.254   4.106  -0.252  0.00  0.00    +0.044 C 
ENDBRANCH  14  17
ENDBRANCH  13  14
ENDBRANCH  11  13
ENDBRANCH   1   9
BRANCH   1  24
ATOM     24  N   UNL     1      -1.476  -4.960   2.152  0.00  0.00    -0.277 N 
ATOM     25  C   UNL     1      -1.184  -5.740   3.212  0.00  0.00    +0.252 C 
ATOM     26  O   UNL     1      -0.281  -5.429   3.965  0.00  0.00    -0.270 OA
BRANCH  25  27
ATOM     27  C   UNL     1      -1.959  -6.971   3.457  0.00  0.00    +0.082 A 
ATOM     28  C   UNL     1      -2.576  -7.636   2.394  0.00  0.00    +0.017 A 
ATOM     29  C   UNL     1      -3.299  -8.786   2.627  0.00  0.00    +0.005 A 
ATOM     30  C   UNL     1      -3.418  -9.289   3.912  0.00  0.00    +0.049 A 
ATOM     31  C   UNL     1      -2.812  -8.642   4.976  0.00  0.00    +0.159 A 
ATOM     32  C   UNL     1      -2.074  -7.482   4.755  0.00  0.00    +0.171 A 
BRANCH  32  33
ATOM     33  O   UNL     1      -1.474  -6.848   5.794  0.00  0.00    -0.503 OA
ATOM     34  H   UNL     1      -2.029  -6.180   6.221  0.00  0.00    +0.292 HD
ENDBRANCH  32  33
BRANCH  31  35
ATOM     35  O   UNL     1      -2.934  -9.141   6.235  0.00  0.00    -0.503 OA
ATOM     36  H   UNL     1      -2.240  -9.769   6.478  0.00  0.00    +0.292 HD
ENDBRANCH  31  35
ENDBRANCH  25  27
BRANCH  24  37
ATOM     37  C   UNL     1      -1.837  -5.571   0.870  0.00  0.00    +0.030 C 
ATOM     38  C   UNL     1      -1.446  -4.630  -0.271  0.00  0.00    +0.031 C 
ATOM     39  C   UNL     1      -1.096  -6.900   0.712  0.00  0.00    +0.031 C 
ATOM     40  C   UNL     1      -3.346  -5.820   0.831  0.00  0.00    +0.031 C 
ENDBRANCH  24  37
ENDBRANCH   1  24
TORSDOF 10
