REMARK  Name = ZINC44404222
REMARK  8 active torsions:
REMARK  status: ('A' for Active; 'I' for Inactive)
REMARK    1  A    between atoms: C_1  and  C_2
REMARK    2  A    between atoms: C_2  and  C_3
REMARK    3  A    between atoms: C_3  and  C_5
REMARK    4  A    between atoms: C_3  and  N_17
REMARK    5  A    between atoms: C_5  and  C_6
REMARK    6  A    between atoms: C_9  and  O_14
REMARK    7  A    between atoms: C_11  and  O_12
REMARK    8  A    between atoms: O_14  and  C_15
REMARK                            x       y       z     vdW  Elec       q    Type
REMARK                         _______ _______ _______ _____ _____    ______ ____
ROOT
ATOM      1  C   UNL     1      -2.829  -2.568  -0.234  0.00  0.00    -0.005 A 
ATOM      2  C   UNL     1      -3.499  -3.000   0.895  0.00  0.00    +0.026 A 
ATOM      3  C   UNL     1      -4.796  -3.469   0.795  0.00  0.00    +0.061 A 
ATOM      4  C   UNL     1      -5.428  -3.507  -0.440  0.00  0.00    +0.151 A 
ATOM      5  C   UNL     1      -4.757  -3.074  -1.574  0.00  0.00    +0.102 A 
ATOM      6  C   UNL     1      -3.458  -2.600  -1.470  0.00  0.00    +0.137 A 
ATOM      7 BR   UNL     1      -5.615  -3.125  -3.259  0.00  0.00    -0.043 Br
ATOM      8 BR   UNL     1      -5.709  -4.059   2.342  0.00  0.00    -0.046 Br
ENDROOT
BRANCH   6   9
ATOM      9  O   UNL     1      -2.800  -2.170  -2.579  0.00  0.00    -0.505 OA
ATOM     10  H   UNL     1      -2.303  -2.863  -3.035  0.00  0.00    +0.292 HD
ENDBRANCH   6   9
BRANCH   4  11
ATOM     11  O   UNL     1      -6.703  -3.968  -0.538  0.00  0.00    -0.493 OA
ATOM     12  C   UNL     1      -7.753  -3.009  -0.396  0.00  0.00    +0.277 C 
ENDBRANCH   4  11
BRANCH   1  13
ATOM     13  C   UNL     1      -1.416  -2.058  -0.121  0.00  0.00    +0.022 C 
BRANCH  13  14
ATOM     14  C   UNL     1      -1.433  -0.534   0.013  0.00  0.00    -0.071 C 
BRANCH  14  15
ATOM     15  N   UNL     1      -2.083  -0.161   1.276  0.00  0.00    +0.380 N 
ATOM     16  H   UNL     1      -2.095   0.844   1.365  0.00  0.00    -0.090 HD
ATOM     17  H   UNL     1      -3.030  -0.510   1.284  0.00  0.00    -0.090 HD
ATOM     18  H   UNL     1      -1.571  -0.560   2.049  0.00  0.00    -0.090 HD
ENDBRANCH  14  15
BRANCH  14  20
ATOM     19  C   UNL     1      -0.019   1.526   0.010  0.00  0.00    +0.002 C 
ATOM     20  C   UNL     1       0.002  -0.004   0.002  0.00  0.00    -0.019 C 
ENDBRANCH  14  20
ENDBRANCH  13  14
ENDBRANCH   1  13
TORSDOF 6
