REMARK  Name = ZINC01478096
REMARK  4 active torsions:
REMARK  status: ('A' for Active; 'I' for Inactive)
REMARK    1  A    between atoms: C_1  and  C_2
REMARK    2  A    between atoms: C_5  and  C_7
REMARK    3  A    between atoms: N_8  and  N_9
REMARK    4  A    between atoms: C_10  and  C_15
REMARK                            x       y       z     vdW  Elec       q    Type
REMARK                         _______ _______ _______ _____ _____    ______ ____
ROOT
ATOM      1  N   UNL     1      -1.383  -2.141   0.004  0.00  0.00    -0.186 N 
ATOM      2  C   UNL     1      -1.267  -0.764   0.011  0.00  0.00    +0.187 A 
ATOM      3  N   UNL     1      -2.465  -0.247   0.031  0.00  0.00    -0.126 NA
ATOM      4  N   UNL     1      -3.391  -1.299   0.030  0.00  0.00    -0.119 NA
ATOM      5  C   UNL     1      -2.695  -2.454   0.016  0.00  0.00    +0.223 A 
ATOM      6  S   UNL     1      -3.356  -4.033   0.014  0.00  0.00    -0.007 SA
ENDROOT
BRANCH   2   7
ATOM      7  C   UNL     1       0.002  -0.004   0.002  0.00  0.00    +0.039 A 
ATOM      8  C   UNL     1       1.223  -0.680  -0.013  0.00  0.00    +0.014 A 
ATOM      9  C   UNL     1       2.403   0.034  -0.021  0.00  0.00    +0.021 A 
ATOM     10  C   UNL     1       2.379   1.419  -0.013  0.00  0.00    +0.042 A 
ATOM     11  C   UNL     1       1.171   2.095   0.002  0.00  0.00    +0.040 A 
ATOM     12  C   UNL     1      -0.017   1.392   0.010  0.00  0.00    +0.053 A 
ATOM     13 CL   UNL     1      -1.531   2.241   0.021  0.00  0.00    -0.083 Cl
ATOM     14 CL   UNL     1       3.869   2.310  -0.022  0.00  0.00    -0.083 Cl
ENDBRANCH   2   7
BRANCH   1  16
ATOM     15  C   UNL     1       0.183  -3.485   1.109  0.00  0.00    +0.179 C 
ATOM     16  N   UNL     1      -0.322  -3.054  -0.011  0.00  0.00    -0.167 NA
BRANCH  15  21
ATOM     17  C   UNL     1       3.757  -6.562  -0.575  0.00  0.00    +0.086 C 
ATOM     18  C   UNL     1       2.863  -5.792   0.362  0.00  0.00    +0.103 A 
ATOM     19  C   UNL     1       2.915  -5.833   1.709  0.00  0.00    +0.045 A 
ATOM     20  C   UNL     1       1.917  -4.965   2.188  0.00  0.00    +0.051 A 
ATOM     21  C   UNL     1       1.294  -4.440   1.093  0.00  0.00    +0.148 A 
ATOM     22  O   UNL     1       1.884  -4.950  -0.007  0.00  0.00    -0.459 OA
ENDBRANCH  15  21
ENDBRANCH   1  16
TORSDOF 3
