REMARK  Name = ZINC63560272
REMARK  4 active torsions:
REMARK  status: ('A' for Active; 'I' for Inactive)
REMARK    1  A    between atoms: C_1  and  C_2
REMARK    2  A    between atoms: C_2  and  C_20
REMARK    3  A    between atoms: N_5  and  C_9
REMARK    4  A    between atoms: C_9  and  C_10
REMARK                            x       y       z     vdW  Elec       q    Type
REMARK                         _______ _______ _______ _____ _____    ______ ____
ROOT
ATOM      1  C   UNL     1      -0.019   1.526   0.010  0.00  0.00    +0.047 C 
ATOM      2  C   UNL     1       0.002  -0.004   0.002  0.00  0.00    +0.135 C 
ATOM      3  C   UNL     1      -1.403  -0.557   0.139  0.00  0.00    +0.251 C 
ATOM      4  O   UNL     1      -2.332  -0.392  -0.621  0.00  0.00    -0.272 OA
ATOM      5  N   UNL     1      -1.403  -1.272   1.282  0.00  0.00    -0.219 N 
ATOM      6  C   UNL     1      -0.206  -1.247   1.879  0.00  0.00    +0.310 C 
ATOM      7  O   UNL     1       0.040  -1.819   2.924  0.00  0.00    -0.252 OA
ATOM      8  N   UNL     1       0.695  -0.520   1.195  0.00  0.00    -0.281 N 
ATOM      9  H   UNL     1       1.621  -0.365   1.440  0.00  0.00    +0.152 HD
ENDROOT
BRANCH   2  10
ATOM     10  C   UNL     1       0.657  -0.517  -1.255  0.00  0.00    -0.012 A 
ATOM     11  C   UNL     1      -0.109  -0.772  -2.377  0.00  0.00    +0.010 A 
ATOM     12  C   UNL     1       0.488  -1.243  -3.531  0.00  0.00    +0.050 A 
ATOM     13  C   UNL     1       1.857  -1.462  -3.566  0.00  0.00    +0.162 A 
ATOM     14  C   UNL     1       2.627  -1.204  -2.438  0.00  0.00    +0.162 A 
ATOM     15  C   UNL     1       2.023  -0.727  -1.285  0.00  0.00    +0.055 A 
ATOM     16  O   UNL     1       3.973  -1.404  -2.453  0.00  0.00    -0.485 OA
ATOM     17  C   UNL     1       4.490  -2.228  -3.504  0.00  0.00    +0.270 C 
ATOM     18  C   UNL     1       3.849  -1.780  -4.825  0.00  0.00    +0.270 C 
ATOM     19  O   UNL     1       2.430  -1.931  -4.708  0.00  0.00    -0.485 OA
ENDBRANCH   2  10
BRANCH   5  20
ATOM     20  C   UNL     1      -2.569  -1.986   1.805  0.00  0.00    +0.157 C 
BRANCH  20  21
ATOM     21  C   UNL     1      -2.585  -3.391   1.260  0.00  0.00    +0.016 A 
ATOM     22  C   UNL     1      -3.400  -3.707   0.189  0.00  0.00    +0.009 A 
ATOM     23  C   UNL     1      -3.416  -4.995  -0.314  0.00  0.00    +0.004 A 
ATOM     24  C   UNL     1      -2.619  -5.971   0.254  0.00  0.00    +0.049 A 
ATOM     25  C   UNL     1      -1.799  -5.661   1.328  0.00  0.00    +0.162 A 
ATOM     26  C   UNL     1      -1.776  -4.364   1.829  0.00  0.00    +0.167 A 
ATOM     27  O   UNL     1      -0.970  -4.035   2.874  0.00  0.00    -0.485 OA
ATOM     28  C   UNL     1      -0.455  -5.119   3.655  0.00  0.00    +0.270 C 
ATOM     29  C   UNL     1       0.072  -6.194   2.696  0.00  0.00    +0.270 C 
ATOM     30  O   UNL     1      -1.022  -6.633   1.879  0.00  0.00    -0.485 OA
ENDBRANCH  20  21
ENDBRANCH   5  20
TORSDOF 3
