REMARK  Name = ZINC51965266
REMARK  12 active torsions:
REMARK  status: ('A' for Active; 'I' for Inactive)
REMARK    1  A    between atoms: C_1  and  C_2
REMARK    2  A    between atoms: C_2  and  C_4
REMARK    3  A    between atoms: C_2  and  N_16
REMARK    4  A    between atoms: C_7  and  N_10
REMARK    5  A    between atoms: C_11  and  C_13
REMARK    6  A    between atoms: C_17  and  C_19
REMARK    7  A    between atoms: C_19  and  N_20
REMARK    8  A    between atoms: N_20  and  C_21
REMARK    9  A    between atoms: C_21  and  C_23
REMARK   10  A    between atoms: C_21  and  C_28
REMARK   11  A    between atoms: C_28  and  C_29
REMARK   12  A    between atoms: C_28  and  C_30
REMARK                            x       y       z     vdW  Elec       q    Type
REMARK                         _______ _______ _______ _____ _____    ______ ____
ROOT
ATOM      1  N   UNL     1       1.853  -0.240  -2.777  0.00  0.00    -0.310 N 
ATOM      2  C   UNL     1       0.735  -0.373  -3.518  0.00  0.00    +0.196 C 
ATOM      3  O   UNL     1      -0.288   0.182  -3.177  0.00  0.00    -0.278 OA
ATOM      4  H   UNL     1       2.671  -0.683  -3.050  0.00  0.00    +0.149 HD
ENDROOT
BRANCH   1   6
ATOM      5  C   UNL     1       2.075   2.042  -1.924  0.00  0.00    +0.033 C 
ATOM      6  C   UNL     1       1.832   0.575  -1.560  0.00  0.00    +0.100 C 
BRANCH   6   7
ATOM      7  C   UNL     1       2.914   0.105  -0.622  0.00  0.00    -0.027 A 
ATOM      8  C   UNL     1       4.152  -0.254  -1.122  0.00  0.00    +0.007 A 
ATOM      9  C   UNL     1       5.146  -0.686  -0.265  0.00  0.00    +0.023 A 
ATOM     10  C   UNL     1       4.900  -0.759   1.100  0.00  0.00    +0.033 A 
ATOM     11  C   UNL     1       3.655  -0.398   1.599  0.00  0.00    +0.023 A 
ATOM     12  C   UNL     1       2.667   0.038   0.737  0.00  0.00    +0.007 A 
BRANCH  10  13
ATOM     13  N   UNL     1       5.904  -1.196   1.971  0.00  0.00    -0.285 N 
ATOM     14  C   UNL     1       7.196  -0.922   1.702  0.00  0.00    +0.220 C 
ATOM     15  O   UNL     1       7.482  -0.220   0.755  0.00  0.00    -0.275 OA
ATOM     16  H   UNL     1       5.670  -1.697   2.768  0.00  0.00    +0.155 HD
BRANCH  14  17
ATOM     17  C   UNL     1       8.284  -1.489   2.576  0.00  0.00    +0.075 C 
ATOM     18  C   UNL     1       9.073  -0.508   3.446  0.00  0.00    +0.013 C 
ATOM     19  C   UNL     1       9.731  -1.141   2.219  0.00  0.00    +0.013 C 
ENDBRANCH  14  17
ENDBRANCH  10  13
ENDBRANCH   6   7
ENDBRANCH   1   6
BRANCH   2  20
ATOM     20  C   UNL     1       0.756  -1.211  -4.771  0.00  0.00    +0.016 C 
BRANCH  20  21
ATOM     21  N   UNL     1      -0.575  -1.196  -5.392  0.00  0.00    +0.390 N 
ATOM     22  H   UNL     1      -1.242  -1.626  -4.769  0.00  0.00    -0.084 HD
ATOM     23  H   UNL     1      -0.850  -0.243  -5.575  0.00  0.00    -0.084 HD
BRANCH  21  24
ATOM     24  C   UNL     1      -0.533  -1.945  -6.656  0.00  0.00    -0.031 C 
BRANCH  24  25
ATOM     25  C   UNL     1      -0.248  -3.397  -6.370  0.00  0.00    -0.024 A 
ATOM     26  C   UNL     1       0.553  -4.258  -7.045  0.00  0.00    +0.009 A 
ATOM     27  C   UNL     1       0.665  -5.560  -6.596  0.00  0.00    +0.008 A 
ATOM     28  C   UNL     1      -0.028  -5.938  -5.494  0.00  0.00    +0.045 A 
ATOM     29  S   UNL     1      -0.869  -4.427  -5.052  0.00  0.00    -0.103 S 
ENDBRANCH  24  25
BRANCH  24  30
ATOM     30  C   UNL     1      -1.883  -1.820  -7.367  0.00  0.00    -0.027 C 
ATOM     31  C   UNL     1      -2.165  -0.348  -7.671  0.00  0.00    +0.006 C 
ATOM     32  C   UNL     1      -1.845  -2.613  -8.674  0.00  0.00    +0.006 C 
ENDBRANCH  24  30
ENDBRANCH  21  24
ENDBRANCH  20  21
ENDBRANCH   2  20
TORSDOF 9
