REMARK  Name = ZINC13567352
REMARK  8 active torsions:
REMARK  status: ('A' for Active; 'I' for Inactive)
REMARK    1  A    between atoms: C_1  and  O_2
REMARK    2  A    between atoms: O_2  and  C_3
REMARK    3  A    between atoms: C_7  and  C_11
REMARK    4  A    between atoms: C_8  and  O_9
REMARK    5  A    between atoms: O_9  and  C_10
REMARK    6  A    between atoms: C_22  and  S_24
REMARK    7  A    between atoms: S_24  and  C_25
REMARK    8  A    between atoms: C_25  and  C_26
REMARK                            x       y       z     vdW  Elec       q    Type
REMARK                         _______ _______ _______ _____ _____    ______ ____
ROOT
ATOM      1  C   UNL     1      -2.549  -4.175   0.017  0.00  0.00    +0.070 C 
ATOM      2  C   UNL     1      -3.283  -4.655   1.270  0.00  0.00    +0.109 C 
ATOM      3  C   UNL     1      -4.753  -4.356   1.151  0.00  0.00    +0.219 C 
ATOM      4  O   UNL     1      -5.382  -4.046   2.141  0.00  0.00    -0.275 OA
ATOM      5  N   UNL     1      -5.379  -4.426  -0.038  0.00  0.00    -0.270 N 
ATOM      6  C   UNL     1      -4.673  -4.753  -1.188  0.00  0.00    +0.137 A 
ATOM      7  C   UNL     1      -3.288  -4.645  -1.206  0.00  0.00    +0.067 A 
ATOM      8  C   UNL     1      -2.606  -4.977  -2.369  0.00  0.00    +0.280 A 
ATOM      9  O   UNL     1      -1.255  -4.884  -2.426  0.00  0.00    -0.265 OA
ATOM     10  N   UNL     1      -3.302  -5.389  -3.425  0.00  0.00    -0.183 NA
ATOM     11  C   UNL     1      -4.623  -5.481  -3.374  0.00  0.00    +0.194 A 
ATOM     12  N   UNL     1      -5.304  -5.170  -2.280  0.00  0.00    -0.206 NA
ATOM     13  H   UNL     1      -6.331  -4.248  -0.092  0.00  0.00    +0.156 HD
ENDROOT
BRANCH   1  18
ATOM     14  C   UNL     1      -1.201  -0.638   0.010  0.00  0.00    +0.162 A 
ATOM     15  C   UNL     1      -2.374   0.099   0.019  0.00  0.00    +0.049 A 
ATOM     16  C   UNL     1      -3.596  -0.546   0.027  0.00  0.00    +0.004 A 
ATOM     17  C   UNL     1      -3.652  -1.928   0.026  0.00  0.00    +0.008 A 
ATOM     18  C   UNL     1      -2.485  -2.669   0.017  0.00  0.00    +0.006 A 
ATOM     19  C   UNL     1      -1.257  -2.028   0.003  0.00  0.00    +0.165 A 
BRANCH  14  21
ATOM     20  C   UNL     1      -0.017   1.425   0.010  0.00  0.00    +0.277 C 
ATOM     21  O   UNL     1       0.002  -0.004   0.002  0.00  0.00    -0.491 OA
ENDBRANCH  14  21
BRANCH  19  22
ATOM     22  O   UNL     1      -0.108  -2.756  -0.012  0.00  0.00    -0.491 OA
ATOM     23  C   UNL     1       0.452  -3.110   1.254  0.00  0.00    +0.277 C 
ENDBRANCH  19  22
ENDBRANCH   1  18
BRANCH  11  24
ATOM     24  S   UNL     1      -5.499  -6.032  -4.800  0.00  0.00    -0.081 S 
BRANCH  24  25
ATOM     25  C   UNL     1      -4.196  -6.334  -6.026  0.00  0.00    +0.112 C 
BRANCH  25  26
ATOM     26  C   UNL     1      -4.817  -6.816  -7.311  0.00  0.00    -0.037 A 
ATOM     27  C   UNL     1      -5.013  -8.169  -7.519  0.00  0.00    +0.007 A 
ATOM     28  C   UNL     1      -5.583  -8.612  -8.697  0.00  0.00    +0.038 A 
ATOM     29  C   UNL     1      -5.958  -7.701  -9.669  0.00  0.00    +0.123 A 
ATOM     30  C   UNL     1      -5.761  -6.347  -9.460  0.00  0.00    +0.038 A 
ATOM     31  C   UNL     1      -5.196  -5.905  -8.279  0.00  0.00    +0.007 A 
ATOM     32  F   UNL     1      -6.515  -8.133 -10.822  0.00  0.00    -0.205 F 
ENDBRANCH  25  26
ENDBRANCH  24  25
ENDBRANCH  11  24
TORSDOF 6
