REMARK  Name = ZINC65269448
REMARK  3 active torsions:
REMARK  status: ('A' for Active; 'I' for Inactive)
REMARK    1  A    between atoms: C_6  and  O_7
REMARK    2  A    between atoms: O_7  and  C_8
REMARK    3  A    between atoms: N_16  and  C_17
REMARK                            x       y       z     vdW  Elec       q    Type
REMARK                         _______ _______ _______ _____ _____    ______ ____
ROOT
ATOM      1  C   UNL     1      -1.051  -2.132   0.001  0.00  0.00    +0.194 C 
ATOM      2  C   UNL     1      -2.305  -2.779  -0.643  0.00  0.00    +0.065 C 
ATOM      3  C   UNL     1      -2.355  -4.172   0.019  0.00  0.00    +0.113 C 
ATOM      4  N   UNL     1      -1.602  -4.083   1.279  0.00  0.00    -0.282 N 
ATOM      5  C   UNL     1      -1.111  -2.702   1.440  0.00  0.00    +0.154 C 
ATOM      6  C   UNL     1      -1.395  -5.096   2.143  0.00  0.00    +0.303 C 
ATOM      7  O   UNL     1      -0.754  -4.907   3.159  0.00  0.00    -0.253 OA
ATOM      8  N   UNL     1      -1.899  -6.319   1.881  0.00  0.00    -0.296 N 
ATOM      9  H   UNL     1      -2.410  -6.470   1.071  0.00  0.00    +0.151 HD
ENDROOT
BRANCH   8  10
ATOM     10  C   UNL     1      -1.674  -7.420   2.821  0.00  0.00    +0.074 C 
ATOM     11  C   UNL     1      -0.347  -8.134   2.490  0.00  0.00    +0.022 C 
ATOM     12  C   UNL     1      -0.642  -9.630   2.765  0.00  0.00    +0.002 C 
ATOM     13  C   UNL     1      -2.098  -9.789   2.263  0.00  0.00    +0.002 C 
ATOM     14  C   UNL     1      -2.787  -8.472   2.676  0.00  0.00    +0.022 C 
ENDBRANCH   8  10
BRANCH   1  15
ATOM     15  O   UNL     1      -1.157  -0.707   0.010  0.00  0.00    -0.471 OA
BRANCH  15  21
ATOM     16  C   UNL     1      -0.017   1.385   0.010  0.00  0.00    +0.110 A 
ATOM     17  C   UNL     1       1.201   2.061   0.002  0.00  0.00    +0.128 A 
ATOM     18  N   UNL     1       2.330   1.357  -0.013  0.00  0.00    -0.221 NA
ATOM     19  C   UNL     1       2.305   0.040  -0.020  0.00  0.00    +0.227 A 
ATOM     20  N   UNL     1       1.173  -0.635  -0.013  0.00  0.00    -0.201 NA
ATOM     21  C   UNL     1       0.002  -0.004   0.002  0.00  0.00    +0.220 A 
ATOM     22  N   UNL     1       1.235   3.447   0.008  0.00  0.00    -0.315 N 
ATOM     23  C   UNL     1       2.445   4.274  -0.109  0.00  0.00    +0.106 C 
ATOM     24  C   UNL     1       2.001   5.750  -0.027  0.00  0.00    +0.020 C 
ATOM     25  C   UNL     1       0.633   5.660   0.700  0.00  0.00    +0.020 C 
ATOM     26  C   UNL     1       0.065   4.335   0.128  0.00  0.00    +0.106 C 
ENDBRANCH  15  21
ENDBRANCH   1  15
TORSDOF 3
