REMARK  Name = ZINC13393499
REMARK  8 active torsions:
REMARK  status: ('A' for Active; 'I' for Inactive)
REMARK    1  A    between atoms: C_1  and  C_2
REMARK    2  A    between atoms: C_3  and  C_31
REMARK    3  A    between atoms: C_9  and  C_13
REMARK    4  A    between atoms: C_13  and  S_14
REMARK    5  A    between atoms: S_14  and  C_15
REMARK    6  A    between atoms: N_27  and  C_28
REMARK    7  A    between atoms: C_28  and  C_29
REMARK    8  A    between atoms: C_28  and  C_30
REMARK                            x       y       z     vdW  Elec       q    Type
REMARK                         _______ _______ _______ _____ _____    ______ ____
ROOT
ATOM      1  S   UNL     1       3.701  -4.891  -0.654  0.00  0.00    -0.080 S 
ENDROOT
BRANCH   1   2
ATOM      2  C   UNL     1       4.489  -6.455  -0.463  0.00  0.00    +0.173 A 
ATOM      3  N   UNL     1       3.781  -7.559  -0.592  0.00  0.00    -0.216 NA
ATOM      4  C   UNL     1       4.351  -8.751  -0.453  0.00  0.00    +0.117 A 
ATOM      5  C   UNL     1       5.716  -8.895  -0.165  0.00  0.00    +0.076 A 
ATOM      6  C   UNL     1       6.206 -10.277  -0.039  0.00  0.00    -0.023 A 
ATOM      7  C   UNL     1       5.307 -11.259  -0.212  0.00  0.00    -0.004 A 
ATOM      8  S   UNL     1       3.773 -10.425  -0.546  0.00  0.00    -0.073 S 
ATOM      9  C   UNL     1       5.922 -12.625  -0.066  0.00  0.00    +0.043 C 
ATOM     10  C   UNL     1       7.441 -12.383  -0.198  0.00  0.00    +0.010 C 
ATOM     11  C   UNL     1       7.565 -10.917   0.261  0.00  0.00    +0.037 C 
ATOM     12  C   UNL     1       6.461  -7.682  -0.030  0.00  0.00    +0.263 A 
ATOM     13  O   UNL     1       7.654  -7.712   0.219  0.00  0.00    -0.267 OA
ATOM     14  N   UNL     1       5.825  -6.506  -0.189  0.00  0.00    -0.285 N 
BRANCH  14  15
ATOM     15  C   UNL     1       6.580  -5.257  -0.059  0.00  0.00    +0.087 C 
ATOM     16  C   UNL     1       7.217  -5.188   1.331  0.00  0.00    +0.031 C 
ATOM     17  C   UNL     1       7.677  -5.210  -1.125  0.00  0.00    +0.031 C 
ENDBRANCH  14  15
ENDBRANCH   1   2
BRANCH   1  18
ATOM     18  C   UNL     1       1.970  -5.311  -0.999  0.00  0.00    +0.151 C 
BRANCH  18  27
ATOM     19  C   UNL     1       0.539   1.875  -1.429  0.00  0.00    +0.087 C 
ATOM     20  C   UNL     1       0.468   0.370  -1.415  0.00  0.00    +0.119 A 
ATOM     21  C   UNL     1      -0.660  -0.366  -1.632  0.00  0.00    +0.118 A 
ATOM     22  C   UNL     1      -0.240  -1.773  -1.519  0.00  0.00    +0.118 A 
ATOM     23  C   UNL     1      -0.890  -3.021  -1.628  0.00  0.00    +0.263 A 
ATOM     24  O   UNL     1      -2.083  -3.087  -1.872  0.00  0.00    -0.267 OA
ATOM     25  N   UNL     1      -0.151  -4.141  -1.455  0.00  0.00    -0.309 N 
ATOM     26  H   UNL     1      -0.570  -5.013  -1.524  0.00  0.00    +0.170 HD
ATOM     27  C   UNL     1       1.174  -4.045  -1.186  0.00  0.00    +0.124 A 
ATOM     28  N   UNL     1       1.785  -2.898  -1.083  0.00  0.00    -0.198 NA
ATOM     29  C   UNL     1       1.126  -1.739  -1.240  0.00  0.00    +0.235 A 
ATOM     30  O   UNL     1       1.502  -0.450  -1.194  0.00  0.00    -0.441 OA
BRANCH  21  31
ATOM     31  C   UNL     1      -2.009   0.139  -1.917  0.00  0.00    +0.391 C 
ATOM     32  O   UNL     1      -2.211   1.344  -1.982  0.00  0.00    -0.240 OA
ATOM     33  O   UNL     1      -2.932  -0.646  -2.091  0.00  0.00    -0.240 OA
ENDBRANCH  21  31
ENDBRANCH  18  27
ENDBRANCH   1  18
TORSDOF 5
