REMARK  Name = ZINC08718579
REMARK  5 active torsions:
REMARK  status: ('A' for Active; 'I' for Inactive)
REMARK    1  A    between atoms: C_8  and  C_10
REMARK    2  A    between atoms: C_13  and  C_15
REMARK    3  A    between atoms: C_15  and  N_16
REMARK    4  A    between atoms: C_17  and  C_19
REMARK    5  A    between atoms: C_19  and  N_20
REMARK                            x       y       z     vdW  Elec       q    Type
REMARK                         _______ _______ _______ _____ _____    ______ ____
ROOT
ATOM      1  N   UNL     1       4.070   0.839  -1.413  0.00  0.00    -0.307 N 
ATOM      2  C   UNL     1       5.392   0.900  -1.671  0.00  0.00    +0.231 C 
ATOM      3  O   UNL     1       6.187   0.932  -0.756  0.00  0.00    -0.274 OA
ATOM      4  H   UNL     1       3.434   0.814  -2.145  0.00  0.00    +0.149 HD
ENDROOT
BRANCH   1   5
ATOM      5  C   UNL     1       3.595   0.809  -0.028  0.00  0.00    +0.178 C 
BRANCH   5   9
ATOM      6  C   UNL     1      -0.016   1.359   0.009  0.00  0.00    +0.160 A 
ATOM      7  C   UNL     1       0.002  -0.004   0.002  0.00  0.00    +0.052 A 
ATOM      8  C   UNL     1       1.355  -0.390  -0.013  0.00  0.00    +0.047 A 
ATOM      9  C   UNL     1       2.090   0.741  -0.014  0.00  0.00    +0.123 A 
ATOM     10  O   UNL     1       1.259   1.794  -0.000  0.00  0.00    -0.456 OA
BRANCH   6  18
ATOM     11  C   UNL     1      -5.779   3.510   0.047  0.00  0.00    +0.002 A 
ATOM     12  C   UNL     1      -5.369   4.836   0.053  0.00  0.00    +0.001 A 
ATOM     13  C   UNL     1      -4.017   5.126   0.049  0.00  0.00    +0.017 A 
ATOM     14  C   UNL     1      -3.106   4.099   0.039  0.00  0.00    +0.040 A 
ATOM     15  C   UNL     1      -3.493   2.738   0.033  0.00  0.00    +0.079 A 
ATOM     16  C   UNL     1      -4.886   2.485   0.038  0.00  0.00    +0.029 A 
ATOM     17  N   UNL     1      -2.485   1.844   0.018  0.00  0.00    -0.236 NA
ATOM     18  C   UNL     1      -1.218   2.206   0.020  0.00  0.00    +0.144 A 
ATOM     19  S   UNL     1      -1.332   3.990   0.030  0.00  0.00    -0.064 S 
ENDBRANCH   6  18
ENDBRANCH   5   9
ENDBRANCH   1   5
BRANCH   2  20
ATOM     20  C   UNL     1       5.880   0.931  -3.096  0.00  0.00    +0.213 C 
BRANCH  20  21
ATOM     21  N   UNL     1       7.344   0.998  -3.110  0.00  0.00    -0.215 N 
ATOM     22  C   UNL     1       8.153  -0.083  -3.123  0.00  0.00    +0.251 C 
ATOM     23  O   UNL     1       7.821  -1.249  -3.124  0.00  0.00    -0.272 OA
ATOM     24  C   UNL     1       9.557   0.468  -3.134  0.00  0.00    +0.139 C 
ATOM     25  C   UNL     1      10.337   0.006  -1.912  0.00  0.00    +0.040 C 
ATOM     26  C   UNL     1      11.801   0.442  -2.026  0.00  0.00    +0.008 C 
ATOM     27  C   UNL     1      12.471  -0.356  -3.154  0.00  0.00    +0.043 C 
ATOM     28  C   UNL     1      11.585  -0.320  -4.356  0.00  0.00    -0.005 A 
ATOM     29  C   UNL     1      10.272   0.041  -4.404  0.00  0.00    -0.005 A 
ATOM     30  C   UNL     1       9.660  -0.010  -5.656  0.00  0.00    +0.014 A 
ATOM     31  C   UNL     1      10.366  -0.401  -6.741  0.00  0.00    +0.046 A 
ATOM     32  S   UNL     1      11.975  -0.727  -6.036  0.00  0.00    -0.101 S 
ATOM     33  N   UNL     1       9.375   1.923  -3.126  0.00  0.00    -0.281 N 
ATOM     34  C   UNL     1       8.045   2.138  -3.116  0.00  0.00    +0.310 C 
ATOM     35  O   UNL     1       7.539   3.243  -3.110  0.00  0.00    -0.252 OA
ATOM     36  H   UNL     1      10.073   2.596  -3.130  0.00  0.00    +0.152 HD
ENDBRANCH  20  21
ENDBRANCH   2  20
TORSDOF 5
