REMARK  Name = ZINC10450814
REMARK  6 active torsions:
REMARK  status: ('A' for Active; 'I' for Inactive)
REMARK    1  A    between atoms: C_4  and  C_7
REMARK    2  A    between atoms: C_7  and  N_54
REMARK    3  A    between atoms: C_10  and  N_13
REMARK    4  A    between atoms: C_14  and  C_16
REMARK    5  A    between atoms: C_16  and  O_17
REMARK    6  A    between atoms: O_17  and  C_18
REMARK                            x       y       z     vdW  Elec       q    Type
REMARK                         _______ _______ _______ _____ _____    ______ ____
ROOT
ATOM      1  N   UNL     1       3.159  10.292   0.022  0.00  0.00    -0.310 N 
ATOM      2  C   UNL     1       2.100   9.458   0.028  0.00  0.00    +0.251 C 
ATOM      3  O   UNL     1       0.974   9.907   0.041  0.00  0.00    -0.272 OA
ATOM      4  H   UNL     1       4.060   9.932   0.011  0.00  0.00    +0.149 HD
ENDROOT
BRANCH   1   7
ATOM      5  C   UNL     1       3.976  13.949   0.583  0.00  0.00    -0.077 C 
ATOM      6  C   UNL     1       4.176  12.433   0.632  0.00  0.00    +0.003 C 
ATOM      7  C   UNL     1       2.949  11.742   0.030  0.00  0.00    +0.070 C 
ATOM      8  C   UNL     1       2.745  12.238  -1.404  0.00  0.00    +0.003 C 
ATOM      9  C   UNL     1       2.587  13.760  -1.394  0.00  0.00    -0.077 C 
ATOM     10  N   UNL     1       3.810  14.366  -0.826  0.00  0.00    +0.382 N 
ATOM     11  H   UNL     1       4.623  14.045  -1.366  0.00  0.00    -0.081 HD
BRANCH  10  12
ATOM     12  C   UNL     1       3.730  15.839  -0.911  0.00  0.00    -0.043 C 
BRANCH  12  16
ATOM     13  C   UNL     1       3.878  16.991  -5.021  0.00  0.00    +0.000 A 
ATOM     14  C   UNL     1       2.659  16.755  -4.413  0.00  0.00    +0.000 A 
ATOM     15  C   UNL     1       2.611  16.382  -3.083  0.00  0.00    +0.002 A 
ATOM     16  C   UNL     1       3.782  16.245  -2.361  0.00  0.00    -0.064 A 
ATOM     17  C   UNL     1       5.001  16.487  -2.967  0.00  0.00    +0.002 A 
ATOM     18  C   UNL     1       5.049  16.855  -4.299  0.00  0.00    +0.000 A 
ENDBRANCH  12  16
ENDBRANCH  10  12
ENDBRANCH   1   7
BRANCH   2  19
ATOM     19  C   UNL     1       2.316   7.966   0.019  0.00  0.00    +0.324 C 
BRANCH  19  20
ATOM     20  O   UNL     1       1.051   7.302   0.028  0.00  0.00    -0.482 OA
BRANCH  20  21
ATOM     21  C   UNL     1       1.068   5.943   0.021  0.00  0.00    +0.136 A 
ATOM     22  C   UNL     1       2.293   5.268   0.006  0.00  0.00    +0.047 A 
ATOM     23  C   UNL     1       2.342   3.909  -0.000  0.00  0.00    +0.012 A 
ATOM     24  C   UNL     1       1.148   3.167   0.008  0.00  0.00    -0.017 A 
ATOM     25  C   UNL     1       1.163   1.762   0.000  0.00  0.00    +0.008 A 
ATOM     26  C   UNL     1      -0.013   1.076   0.008  0.00  0.00    +0.001 A 
ATOM     27  C   UNL     1      -1.235   1.746   0.017  0.00  0.00    +0.001 A 
ATOM     28  C   UNL     1      -1.288   3.106   0.030  0.00  0.00    +0.010 A 
ATOM     29  C   UNL     1      -0.095   3.849   0.023  0.00  0.00    -0.000 A 
ATOM     30  C   UNL     1      -0.112   5.254   0.029  0.00  0.00    +0.067 A 
ATOM     31 BR   UNL     1      -1.757   6.185   0.049  0.00  0.00    -0.046 Br
ENDBRANCH  20  21
ENDBRANCH  19  20
ENDBRANCH   2  19
TORSDOF 6
