REMARK  Name = ZINC44049603
REMARK  8 active torsions:
REMARK  status: ('A' for Active; 'I' for Inactive)
REMARK    1  A    between atoms: C_1  and  C_2
REMARK    2  A    between atoms: C_2  and  C_4
REMARK    3  A    between atoms: C_2  and  S_13
REMARK    4  A    between atoms: N_9  and  C_10
REMARK    5  A    between atoms: C_10  and  C_11
REMARK    6  A    between atoms: C_10  and  C_12
REMARK    7  A    between atoms: S_13  and  C_14
REMARK    8  A    between atoms: N_22  and  C_23
REMARK                            x       y       z     vdW  Elec       q    Type
REMARK                         _______ _______ _______ _____ _____    ______ ____
ROOT
ATOM      1  C   UNL     1      -0.019   1.526   0.010  0.00  0.00    +0.029 C 
ATOM      2  C   UNL     1       0.002  -0.004   0.002  0.00  0.00    +0.137 C 
ENDROOT
BRANCH   2   3
ATOM      3  C   UNL     1      -1.412  -0.526   0.013  0.00  0.00    +0.233 C 
ATOM      4  O   UNL     1      -1.939  -0.827   1.062  0.00  0.00    -0.274 OA
ATOM      5  N   UNL     1      -2.090  -0.657  -1.144  0.00  0.00    -0.239 N 
ATOM      6  C   UNL     1      -3.355  -1.124  -1.135  0.00  0.00    +0.306 C 
ATOM      7  O   UNL     1      -3.883  -1.426  -0.083  0.00  0.00    -0.252 OA
ATOM      8  N   UNL     1      -4.033  -1.255  -2.292  0.00  0.00    -0.297 N 
ATOM      9  H   UNL     1      -1.669  -0.416  -1.984  0.00  0.00    +0.159 HD
ATOM     10  H   UNL     1      -3.611  -1.014  -3.131  0.00  0.00    +0.151 HD
BRANCH   8  11
ATOM     11  C   UNL     1      -5.408  -1.762  -2.281  0.00  0.00    +0.068 C 
ATOM     12  C   UNL     1      -6.375  -0.608  -2.015  0.00  0.00    +0.027 C 
ATOM     13  C   UNL     1      -5.728  -2.394  -3.637  0.00  0.00    +0.027 C 
ENDBRANCH   8  11
ENDBRANCH   2   3
BRANCH   2  14
ATOM     14  S   UNL     1       0.879  -0.605   1.472  0.00  0.00    -0.075 S 
BRANCH  14  15
ATOM     15  C   UNL     1       2.533  -0.042   1.241  0.00  0.00    +0.170 A 
ATOM     16  N   UNL     1       2.955   0.655   0.214  0.00  0.00    -0.222 NA
ATOM     17  C   UNL     1       4.280   0.920   0.356  0.00  0.00    +0.092 A 
ATOM     18  C   UNL     1       5.210   1.609  -0.427  0.00  0.00    +0.050 A 
ATOM     19  C   UNL     1       6.518   1.710  -0.006  0.00  0.00    +0.043 A 
ATOM     20  C   UNL     1       6.919   1.130   1.190  0.00  0.00    +0.022 A 
ATOM     21  C   UNL     1       6.012   0.446   1.974  0.00  0.00    +0.029 A 
ATOM     22  C   UNL     1       4.692   0.336   1.565  0.00  0.00    +0.069 A 
ATOM     23  N   UNL     1       3.566  -0.262   2.108  0.00  0.00    -0.322 N 
ATOM     24  C   UNL     1       3.496  -0.996   3.374  0.00  0.00    +0.151 C 
ATOM     25 CL   UNL     1       7.673   2.566  -0.979  0.00  0.00    -0.083 Cl
ENDBRANCH  14  15
ENDBRANCH   2  14
TORSDOF 4
