REMARK  Name = ZINC62089870
REMARK  4 active torsions:
REMARK  status: ('A' for Active; 'I' for Inactive)
REMARK    1  A    between atoms: C_1  and  N_2
REMARK    2  A    between atoms: C_6  and  N_12
REMARK    3  A    between atoms: C_13  and  C_15
REMARK    4  A    between atoms: C_15  and  C_16
REMARK                            x       y       z     vdW  Elec       q    Type
REMARK                         _______ _______ _______ _____ _____    ______ ____
ROOT
ATOM      1  N   UNL     1      -3.773  -4.056  -0.002  0.00  0.00    -0.285 N 
ATOM      2  C   UNL     1      -5.098  -3.830   0.107  0.00  0.00    +0.222 C 
ATOM      3  O   UNL     1      -5.520  -2.693   0.115  0.00  0.00    -0.275 OA
ATOM      4  H   UNL     1      -3.441  -4.964  -0.076  0.00  0.00    +0.155 HD
ENDROOT
BRANCH   1  10
ATOM      5  C   UNL     1       0.906   0.694   0.286  0.00  0.00    +0.156 C 
ATOM      6  N   UNL     1      -0.442   0.365  -0.183  0.00  0.00    -0.277 N 
ATOM      7  C   UNL     1      -1.099  -0.856  -0.018  0.00  0.00    +0.090 A 
ATOM      8  C   UNL     1      -0.743  -2.054   0.583  0.00  0.00    +0.031 A 
ATOM      9  C   UNL     1      -1.629  -3.112   0.588  0.00  0.00    +0.025 A 
ATOM     10  C   UNL     1      -2.877  -2.979  -0.009  0.00  0.00    +0.037 A 
ATOM     11  C   UNL     1      -3.238  -1.783  -0.612  0.00  0.00    +0.071 A 
ATOM     12  C   UNL     1      -2.351  -0.719  -0.618  0.00  0.00    +0.159 A 
ATOM     13  O   UNL     1      -2.422   0.540  -1.116  0.00  0.00    -0.407 OA
ATOM     14  C   UNL     1      -1.277   1.187  -0.849  0.00  0.00    +0.421 A 
ATOM     15  O   UNL     1      -1.031   2.336  -1.161  0.00  0.00    -0.223 OA
ENDBRANCH   1  10
BRANCH   2  16
ATOM     16  C   UNL     1      -6.053  -4.990   0.219  0.00  0.00    +0.133 C 
BRANCH  16  17
ATOM     17  C   UNL     1      -7.463  -4.471   0.328  0.00  0.00    -0.014 A 
ATOM     18  C   UNL     1      -8.148  -4.252   1.462  0.00  0.00    +0.087 A 
ATOM     19  N   UNL     1      -9.398  -3.779   1.169  0.00  0.00    -0.360 N 
ATOM     20  H   UNL     1     -10.074  -3.548   1.824  0.00  0.00    +0.165 HD
ATOM     21  C   UNL     1      -9.552  -3.680  -0.197  0.00  0.00    +0.047 A 
ATOM     22  C   UNL     1      -8.345  -4.103  -0.782  0.00  0.00    +0.005 A 
ATOM     23  C   UNL     1      -8.207  -4.104  -2.171  0.00  0.00    +0.030 A 
ATOM     24  C   UNL     1      -9.256  -3.687  -2.961  0.00  0.00    +0.042 A 
ATOM     25  C   UNL     1     -10.446  -3.266  -2.381  0.00  0.00    +0.022 A 
ATOM     26  C   UNL     1     -10.600  -3.267  -1.012  0.00  0.00    +0.027 A 
ATOM     27 CL   UNL     1      -9.089  -3.685  -4.689  0.00  0.00    -0.084 Cl
ENDBRANCH  16  17
ENDBRANCH   2  16
TORSDOF 3
