REMARK  Name = ZINC39973001
REMARK  9 active torsions:
REMARK  status: ('A' for Active; 'I' for Inactive)
REMARK    1  A    between atoms: C_1  and  C_2
REMARK    2  A    between atoms: C_3  and  C_26
REMARK    3  A    between atoms: C_4  and  N_10
REMARK    4  A    between atoms: C_6  and  C_7
REMARK    5  A    between atoms: C_11  and  C_13
REMARK    6  A    between atoms: C_13  and  S_14
REMARK    7  A    between atoms: S_14  and  C_15
REMARK    8  A    between atoms: C_18  and  C_21
REMARK    9  A    between atoms: N_19  and  C_20
REMARK                            x       y       z     vdW  Elec       q    Type
REMARK                         _______ _______ _______ _____ _____    ______ ____
ROOT
ATOM      1  N   UNL     1       0.033  -3.045  -2.115  0.00  0.00    -0.278 N 
ATOM      2  C   UNL     1       0.053  -4.364  -1.836  0.00  0.00    +0.228 C 
ATOM      3  O   UNL     1       0.063  -4.739  -0.683  0.00  0.00    -0.275 OA
ATOM      4  H   UNL     1       0.025  -2.744  -3.037  0.00  0.00    +0.155 HD
ENDROOT
BRANCH   1   8
ATOM      5  C   UNL     1      -0.018   1.503   0.010  0.00  0.00    +0.046 C 
ATOM      6  C   UNL     1       0.002  -0.004   0.002  0.00  0.00    -0.012 A 
ATOM      7  C   UNL     1       0.007  -0.730  -1.180  0.00  0.00    +0.084 A 
ATOM      8  C   UNL     1       0.026  -2.121  -1.086  0.00  0.00    +0.090 A 
ATOM      9  S   UNL     1       0.037  -2.413   0.568  0.00  0.00    -0.067 S 
ATOM     10  C   UNL     1       0.023  -0.733   1.162  0.00  0.00    +0.080 A 
BRANCH  10  11
ATOM     11  C   UNL     1       0.030  -0.252   2.544  0.00  0.00    +0.248 C 
ATOM     12  O   UNL     1       0.015   0.943   2.773  0.00  0.00    -0.270 OA
ATOM     13  N   UNL     1       0.051  -1.133   3.564  0.00  0.00    -0.325 N 
ATOM     14  H   UNL     1       0.062  -2.086   3.382  0.00  0.00    +0.145 HD
ATOM     15  H   UNL     1       0.056  -0.814   4.480  0.00  0.00    +0.145 HD
ENDBRANCH  10  11
BRANCH   7  16
ATOM     16  C   UNL     1      -0.009  -0.073  -2.453  0.00  0.00    +0.102 C 
ATOM     17  N   UNL     1      -0.021   0.448  -3.462  0.00  0.00    -0.191 NA
ENDBRANCH   7  16
ENDBRANCH   1   8
BRANCH   2  18
ATOM     18  C   UNL     1       0.061  -5.370  -2.957  0.00  0.00    +0.173 C 
BRANCH  18  19
ATOM     19  S   UNL     1       0.087  -7.047  -2.264  0.00  0.00    -0.077 S 
BRANCH  19  20
ATOM     20  C   UNL     1       0.094  -8.094  -3.681  0.00  0.00    +0.192 A 
ATOM     21  N   UNL     1       0.088  -7.709  -4.936  0.00  0.00    -0.122 NA
ATOM     22  N   UNL     1       0.097  -8.736  -5.708  0.00  0.00    -0.133 NA
ATOM     23  C   UNL     1       0.108  -9.829  -4.998  0.00  0.00    +0.137 A 
ATOM     24  N   UNL     1       0.113  -9.459  -3.682  0.00  0.00    -0.309 N 
ATOM     25  C   UNL     1       0.130 -10.344  -2.514  0.00  0.00    +0.152 C 
BRANCH  23  26
ATOM     26  C   UNL     1       0.120 -11.239  -5.530  0.00  0.00    +0.057 C 
ATOM     27  C   UNL     1       1.338 -11.446  -6.453  0.00  0.00    +0.011 C 
ATOM     28  C   UNL     1       0.809 -12.367  -7.580  0.00  0.00    +0.001 C 
ATOM     29  C   UNL     1      -0.629 -11.838  -7.807  0.00  0.00    +0.001 C 
ATOM     30  C   UNL     1      -1.131 -11.489  -6.390  0.00  0.00    +0.011 C 
ENDBRANCH  23  26
ENDBRANCH  19  20
ENDBRANCH  18  19
ENDBRANCH   2  18
TORSDOF 7
