REMARK  Name = ZINC21240409
REMARK  8 active torsions:
REMARK  status: ('A' for Active; 'I' for Inactive)
REMARK    1  A    between atoms: C_1  and  C_2
REMARK    2  A    between atoms: C_11  and  N_30
REMARK    3  A    between atoms: C_13  and  S_15
REMARK    4  A    between atoms: S_15  and  C_16
REMARK    5  A    between atoms: C_16  and  C_17
REMARK    6  A    between atoms: N_19  and  C_20
REMARK    7  A    between atoms: C_25  and  O_26
REMARK    8  A    between atoms: O_26  and  C_27
REMARK                            x       y       z     vdW  Elec       q    Type
REMARK                         _______ _______ _______ _____ _____    ______ ____
ROOT
ATOM      1  C   UNL     1      -2.377  -0.293   0.019  0.00  0.00    +0.008 C 
ATOM      2  C   UNL     1      -0.940   0.164  -0.240  0.00  0.00    -0.009 C 
ATOM      3  C   UNL     1      -0.018  -0.379   0.856  0.00  0.00    +0.008 C 
ATOM      4  C   UNL     1       1.442  -0.139   0.471  0.00  0.00    +0.037 C 
ATOM      5  C   UNL     1       1.628   1.337   0.131  0.00  0.00    -0.025 A 
ATOM      6  C   UNL     1       0.562   2.113  -0.170  0.00  0.00    -0.004 A 
ATOM      7  S   UNL     1       1.233   3.725  -0.493  0.00  0.00    -0.073 S 
ATOM      8  C   UNL     1       2.938   3.360  -0.227  0.00  0.00    +0.115 A 
ATOM      9  C   UNL     1       2.931   1.982   0.108  0.00  0.00    +0.051 A 
ATOM     10  C   UNL     1       4.192   1.379   0.386  0.00  0.00    +0.129 A 
ATOM     11  N   UNL     1       5.252   2.179   0.301  0.00  0.00    -0.207 NA
ATOM     12  C   UNL     1       5.185   3.463  -0.020  0.00  0.00    +0.191 A 
ATOM     13  N   UNL     1       4.036   4.086  -0.290  0.00  0.00    -0.214 NA
ATOM     14  C   UNL     1      -0.876   1.698  -0.220  0.00  0.00    +0.046 C 
ENDROOT
BRANCH  10  15
ATOM     15  N   UNL     1       4.308   0.043   0.724  0.00  0.00    -0.343 N 
ATOM     16  H   UNL     1       5.298  -0.388   0.931  0.00  0.00    +0.144 HD
ATOM     17  H   UNL     1       3.409  -0.588   0.786  0.00  0.00    +0.144 HD
ENDBRANCH  10  15
BRANCH  12  18
ATOM     18  S   UNL     1       6.681   4.391  -0.091  0.00  0.00    -0.077 S 
BRANCH  18  19
ATOM     19  C   UNL     1       7.872   3.100   0.347  0.00  0.00    +0.173 C 
BRANCH  19  20
ATOM     20  C   UNL     1       9.263   3.681   0.349  0.00  0.00    +0.228 C 
ATOM     21  O   UNL     1       9.432   4.851   0.081  0.00  0.00    -0.275 OA
ATOM     22  N   UNL     1      10.319   2.898   0.649  0.00  0.00    -0.282 N 
ATOM     23  H   UNL     1      10.159   1.863   0.984  0.00  0.00    +0.155 HD
BRANCH  22  24
ATOM     24  C   UNL     1      11.621   3.404   0.533  0.00  0.00    +0.076 A 
ATOM     25  C   UNL     1      11.884   4.456  -0.332  0.00  0.00    +0.027 A 
ATOM     26  C   UNL     1      13.168   4.957  -0.440  0.00  0.00    +0.002 A 
ATOM     27  C   UNL     1      14.194   4.405   0.304  0.00  0.00    +0.004 A 
ATOM     28  C   UNL     1      13.940   3.353   1.165  0.00  0.00    +0.048 A 
ATOM     29  C   UNL     1      12.655   2.849   1.283  0.00  0.00    +0.148 A 
BRANCH  29  30
ATOM     30  O   UNL     1      12.404   1.814   2.128  0.00  0.00    -0.432 OA
BRANCH  30  31
ATOM     31  C   UNL     1      13.513   1.294   2.865  0.00  0.00    +0.541 C 
ATOM     32  F   UNL     1      14.485   0.826   1.976  0.00  0.00    -0.166 F 
ATOM     33  F   UNL     1      14.059   2.307   3.662  0.00  0.00    -0.166 F 
ENDBRANCH  30  31
ENDBRANCH  29  30
ENDBRANCH  22  24
ENDBRANCH  19  20
ENDBRANCH  18  19
ENDBRANCH  12  18
TORSDOF 7
