REMARK  Name = ZINC19800843
REMARK  2 active torsions:
REMARK  status: ('A' for Active; 'I' for Inactive)
REMARK    1  A    between atoms: C_6  and  N_7
REMARK    2  A    between atoms: C_13  and  C_18
REMARK                            x       y       z     vdW  Elec       q    Type
REMARK                         _______ _______ _______ _____ _____    ______ ____
ROOT
ATOM      1  N   UNL     1      -3.615   1.908   0.138  0.00  0.00    -0.328 N 
ATOM      2  C   UNL     1      -2.577   1.255  -0.486  0.00  0.00    +0.180 C 
ATOM      3  N   UNL     1      -2.471  -0.040  -0.392  0.00  0.00    -0.371 N 
ATOM      4  N   UNL     1      -1.648   1.972  -1.211  0.00  0.00    -0.296 N 
ATOM      5  C   UNL     1      -0.563   1.322  -1.782  0.00  0.00    +0.234 A 
ATOM      6  N   UNL     1       0.316   2.026  -2.480  0.00  0.00    -0.208 NA
ATOM      7  C   UNL     1       1.361   1.440  -3.044  0.00  0.00    +0.153 A 
ATOM      8  C   UNL     1       1.530   0.075  -2.900  0.00  0.00    +0.104 A 
ATOM      9  C   UNL     1       0.588  -0.637  -2.161  0.00  0.00    +0.275 A 
ATOM     10  N   UNL     1      -0.436   0.014  -1.622  0.00  0.00    -0.173 NA
ATOM     11  O   UNL     1       0.715  -1.976  -1.994  0.00  0.00    -0.266 OA
ATOM     12  H   UNL     1      -4.411   1.331   0.631  0.00  0.00    +0.169 HD
ATOM     13  H   UNL     1      -1.641  -0.562  -0.891  0.00  0.00    +0.159 HD
ATOM     14  H   UNL     1      -1.767   3.058  -1.335  0.00  0.00    +0.172 HD
ATOM     15  H   UNL     1      -3.212  -0.612   0.186  0.00  0.00    +0.159 HD
ENDROOT
BRANCH   1  21
ATOM     16  C   UNL     1      -2.478   4.039   0.144  0.00  0.00    +0.027 A 
ATOM     17  C   UNL     1      -2.524   5.420   0.147  0.00  0.00    +0.017 A 
ATOM     18  C   UNL     1      -3.744   6.073   0.162  0.00  0.00    +0.018 A 
ATOM     19  C   UNL     1      -4.921   5.345   0.169  0.00  0.00    +0.017 A 
ATOM     20  C   UNL     1      -4.881   3.965   0.161  0.00  0.00    +0.027 A 
ATOM     21  C   UNL     1      -3.658   3.307   0.146  0.00  0.00    +0.042 A 
ATOM     22 BR   UNL     1      -3.802   7.963   0.173  0.00  0.00    -0.050 Br
ENDBRANCH   1  21
BRANCH   7  23
ATOM     23  C   UNL     1       2.354   2.252  -3.835  0.00  0.00    +0.435 C 
ATOM     24  F   UNL     1       1.956   2.300  -5.175  0.00  0.00    -0.164 F 
ATOM     25  F   UNL     1       2.411   3.551  -3.318  0.00  0.00    -0.164 F 
ATOM     26  F   UNL     1       3.618   1.658  -3.745  0.00  0.00    -0.164 F 
ENDBRANCH   7  23
TORSDOF 2
