REMARK  Name = ZINC11908911
REMARK  6 active torsions:
REMARK  status: ('A' for Active; 'I' for Inactive)
REMARK    1  A    between atoms: C_1  and  C_2
REMARK    2  A    between atoms: C_14  and  C_15
REMARK    3  A    between atoms: C_14  and  N_52
REMARK    4  A    between atoms: N_17  and  C_18
REMARK    5  A    between atoms: C_18  and  C_19
REMARK    6  A    between atoms: C_22  and  N_25
REMARK                            x       y       z     vdW  Elec       q    Type
REMARK                         _______ _______ _______ _____ _____    ______ ____
ROOT
ATOM      1  C   UNL     1      -2.268   1.605  -0.895  0.00  0.00    +0.197 C 
ATOM      2  O   UNL     1      -2.593   0.964   0.081  0.00  0.00    -0.278 OA
ATOM      3  N   UNL     1      -3.199   1.979  -1.796  0.00  0.00    -0.313 N 
ATOM      4  H   UNL     1      -2.939   2.493  -2.577  0.00  0.00    +0.149 HD
ENDROOT
BRANCH   1   5
ATOM      5  C   UNL     1      -0.825   1.985  -1.101  0.00  0.00    +0.019 C 
BRANCH   5  18
ATOM      6  C   UNL     1       3.418   2.573   1.218  0.00  0.00    +0.050 C 
ATOM      7  C   UNL     1       2.091   1.814   1.284  0.00  0.00    +0.154 C 
ATOM      8  C   UNL     1       1.323   2.042   0.000  0.00  0.00    -0.033 C 
ATOM      9  C   UNL     1       0.002  -0.004   0.002  0.00  0.00    -0.038 C 
ATOM     10  C   UNL     1       0.165  -0.498   1.427  0.00  0.00    -0.021 A 
ATOM     11  C   UNL     1      -0.872  -1.159   2.054  0.00  0.00    +0.025 A 
ATOM     12  C   UNL     1      -0.705  -1.621   3.348  0.00  0.00    +0.041 A 
ATOM     13  C   UNL     1       0.495  -1.423   4.007  0.00  0.00    +0.023 A 
ATOM     14  C   UNL     1       1.530  -0.755   3.380  0.00  0.00    +0.047 A 
ATOM     15  C   UNL     1       1.360  -0.284   2.086  0.00  0.00    +0.122 A 
ATOM     16  O   UNL     1       2.355   0.419   1.477  0.00  0.00    -0.491 OA
ATOM     17 CL   UNL     1      -2.005  -2.451   4.146  0.00  0.00    -0.084 Cl
ATOM     18  N   UNL     1      -0.043   1.478   0.038  0.00  0.00    +0.391 N 
ATOM     19  H   UNL     1      -0.497   1.772   0.910  0.00  0.00    -0.081 HD
ENDBRANCH   5  18
ENDBRANCH   1   5
BRANCH   3  20
ATOM     20  C   UNL     1      -4.602   1.611  -1.596  0.00  0.00    +0.139 C 
BRANCH  20  21
ATOM     21  C   UNL     1      -5.430   2.146  -2.736  0.00  0.00    -0.030 A 
ATOM     22  C   UNL     1      -5.994   3.405  -2.647  0.00  0.00    +0.007 A 
ATOM     23  C   UNL     1      -6.749   3.900  -3.692  0.00  0.00    +0.028 A 
ATOM     24  C   UNL     1      -6.950   3.128  -4.828  0.00  0.00    +0.065 A 
ATOM     25  C   UNL     1      -6.387   1.861  -4.912  0.00  0.00    +0.028 A 
ATOM     26  C   UNL     1      -5.628   1.374  -3.866  0.00  0.00    +0.007 A 
BRANCH  24  27
ATOM     27  N   UNL     1      -7.721   3.625  -5.888  0.00  0.00    -0.240 N 
ATOM     28  C   UNL     1      -8.328   4.833  -5.933  0.00  0.00    +0.114 A 
ATOM     29  C   UNL     1      -8.966   4.929  -7.123  0.00  0.00    +0.041 A 
ATOM     30  C   UNL     1      -8.750   3.738  -7.825  0.00  0.00    +0.135 A 
ATOM     31  N   UNL     1      -8.005   2.956  -7.086  0.00  0.00    -0.175 NA
ENDBRANCH  24  27
ENDBRANCH  20  21
ENDBRANCH   3  20
TORSDOF 5
