REMARK  Name = ZINC20111544
REMARK  4 active torsions:
REMARK  status: ('A' for Active; 'I' for Inactive)
REMARK    1  A    between atoms: C_11  and  C_16
REMARK    2  A    between atoms: C_21  and  O_22
REMARK    3  A    between atoms: O_22  and  C_23
REMARK    4  A    between atoms: C_23  and  C_24
REMARK                            x       y       z     vdW  Elec       q    Type
REMARK                         _______ _______ _______ _____ _____    ______ ____
ROOT
ATOM      1  C   UNL     1      -0.680   8.641  -5.424  0.00  0.00    +0.001 A 
ATOM      2  C   UNL     1      -0.237   7.341  -5.607  0.00  0.00    +0.002 A 
ATOM      3  C   UNL     1       0.448   6.650  -4.623  0.00  0.00    +0.026 A 
ATOM      4  C   UNL     1       0.680   7.321  -3.425  0.00  0.00    +0.047 A 
ATOM      5  C   UNL     1       0.224   8.653  -3.242  0.00  0.00    +0.003 A 
ATOM      6  C   UNL     1      -0.467   9.327  -4.254  0.00  0.00    +0.010 A 
ATOM      7  C   UNL     1       0.627   9.031  -1.906  0.00  0.00    -0.016 A 
ATOM      8  C   UNL     1       1.275   7.972  -1.370  0.00  0.00    +0.042 A 
ATOM      9  N   UNL     1       1.310   6.945  -2.273  0.00  0.00    -0.356 N 
ATOM     10  H   UNL     1       1.748   5.939  -2.188  0.00  0.00    +0.166 HD
ATOM     11  C   UNL     1       1.852   7.982   0.026  0.00  0.00    +0.135 C 
ATOM     12  N   UNL     1       1.944   9.378   0.483  0.00  0.00    -0.304 NA
ATOM     13  C   UNL     1       0.665  10.082   0.319  0.00  0.00    +0.086 C 
ATOM     14  C   UNL     1       0.406  10.330  -1.173  0.00  0.00    +0.052 C 
ATOM     15  H   UNL     1       2.219   9.398   1.548  0.00  0.00    +0.123 HD
ENDROOT
BRANCH  11  16
ATOM     16  C   UNL     1       3.226   7.363   0.010  0.00  0.00    +0.018 A 
ATOM     17  C   UNL     1       4.348   8.170   0.004  0.00  0.00    +0.024 A 
ATOM     18  C   UNL     1       5.609   7.602  -0.010  0.00  0.00    +0.018 A 
ATOM     19  C   UNL     1       5.750   6.226  -0.018  0.00  0.00    +0.019 A 
ATOM     20  C   UNL     1       4.632   5.416  -0.007  0.00  0.00    +0.047 A 
ATOM     21  C   UNL     1       3.366   5.983   0.002  0.00  0.00    +0.126 A 
ATOM     22 BR   UNL     1       7.143   8.709  -0.019  0.00  0.00    -0.050 Br
BRANCH  21  23
ATOM     23  O   UNL     1       2.264   5.188   0.008  0.00  0.00    -0.486 OA
BRANCH  23  24
ATOM     24  C   UNL     1       2.483   3.776  -0.001  0.00  0.00    +0.284 C 
BRANCH  24  25
ATOM     25  C   UNL     1       1.156   3.061   0.007  0.00  0.00    +0.078 A 
ATOM     26  C   UNL     1      -0.015   3.796   0.022  0.00  0.00    +0.027 A 
ATOM     27  C   UNL     1      -1.231   3.129   0.030  0.00  0.00    +0.003 A 
ATOM     28  C   UNL     1      -1.223   1.742   0.017  0.00  0.00    +0.020 A 
ATOM     29  C   UNL     1      -0.013   1.076   0.008  0.00  0.00    +0.111 A 
ATOM     30  N   UNL     1       1.125   1.743   0.001  0.00  0.00    -0.256 NA
ENDBRANCH  24  25
ENDBRANCH  23  24
ENDBRANCH  21  23
ENDBRANCH  11  16
TORSDOF 4
