REMARK  Name = ZINC59368319
REMARK  6 active torsions:
REMARK  status: ('A' for Active; 'I' for Inactive)
REMARK    1  A    between atoms: C_1  and  N_2
REMARK    2  A    between atoms: N_2  and  C_3
REMARK    3  A    between atoms: C_3  and  C_4
REMARK    4  A    between atoms: N_6  and  N_7
REMARK    5  A    between atoms: C_8  and  C_10
REMARK    6  A    between atoms: C_21  and  C_23
REMARK                            x       y       z     vdW  Elec       q    Type
REMARK                         _______ _______ _______ _____ _____    ______ ____
ROOT
ATOM      1  C   UNL     1      -1.232  -1.048   1.826  0.00  0.00    +0.246 C 
ATOM      2  O   UNL     1      -2.229  -0.690   1.236  0.00  0.00    -0.273 OA
ATOM      3  N   UNL     1      -1.343  -1.724   2.987  0.00  0.00    -0.233 N 
ATOM      4  H   UNL     1      -0.545  -2.010   3.459  0.00  0.00    +0.173 HD
ENDROOT
BRANCH   3   5
ATOM      5  N   UNL     1      -2.609  -2.012   3.512  0.00  0.00    -0.231 N 
ATOM      6  C   UNL     1      -2.720  -2.687   4.674  0.00  0.00    +0.273 C 
ATOM      7  O   UNL     1      -1.723  -3.045   5.264  0.00  0.00    -0.270 OA
ATOM      8  H   UNL     1      -3.407  -1.725   3.040  0.00  0.00    +0.173 HD
BRANCH   6   9
ATOM      9  C   UNL     1      -4.082  -2.997   5.239  0.00  0.00    +0.297 C 
ATOM     10  C   UNL     1      -4.789  -1.692   5.630  0.00  0.00    +0.283 C 
ATOM     11  O   UNL     1      -6.071  -2.023   6.174  0.00  0.00    -0.484 OA
ATOM     12  C   UNL     1      -6.106  -3.030   7.089  0.00  0.00    +0.162 A 
ATOM     13  C   UNL     1      -7.213  -3.164   7.913  0.00  0.00    +0.049 A 
ATOM     14  C   UNL     1      -7.264  -4.184   8.845  0.00  0.00    +0.004 A 
ATOM     15  C   UNL     1      -6.212  -5.072   8.958  0.00  0.00    +0.004 A 
ATOM     16  C   UNL     1      -5.104  -4.944   8.142  0.00  0.00    +0.049 A 
ATOM     17  C   UNL     1      -5.046  -3.922   7.205  0.00  0.00    +0.163 A 
ATOM     18  O   UNL     1      -3.945  -3.804   6.413  0.00  0.00    -0.472 OA
ENDBRANCH   6   9
ENDBRANCH   3   5
BRANCH   1  19
ATOM     19  C   UNL     1       0.130  -0.738   1.261  0.00  0.00    +0.205 C 
BRANCH  19  21
ATOM     20  C   UNL     1      -0.078   1.461   0.013  0.00  0.00    +0.133 C 
ATOM     21  N   UNL     1      -0.019  -0.003   0.003  0.00  0.00    -0.291 N 
ATOM     22  C   UNL     1      -0.102  -0.673  -1.163  0.00  0.00    +0.253 C 
ATOM     23  O   UNL     1      -0.158  -1.889  -1.164  0.00  0.00    -0.269 OA
BRANCH  22  24
ATOM     24  C   UNL     1      -0.124   0.062  -2.430  0.00  0.00    +0.075 A 
ATOM     25  C   UNL     1      -0.322  -0.418  -3.716  0.00  0.00    +0.022 A 
ATOM     26  C   UNL     1      -0.288   0.522  -4.717  0.00  0.00    +0.024 A 
ATOM     27  C   UNL     1      -0.069   1.822  -4.393  0.00  0.00    +0.056 A 
ATOM     28  S   UNL     1       0.089   1.808  -2.720  0.00  0.00    -0.077 S 
ATOM     29 BR   UNL     1       0.027   3.309  -5.556  0.00  0.00    -0.043 Br
ENDBRANCH  22  24
ENDBRANCH  19  21
ENDBRANCH   1  19
TORSDOF 5
