REMARK  Name = ZINC40426346
REMARK  5 active torsions:
REMARK  status: ('A' for Active; 'I' for Inactive)
REMARK    1  A    between atoms: C_1  and  C_2
REMARK    2  A    between atoms: C_5  and  C_7
REMARK    3  A    between atoms: C_15  and  C_16
REMARK    4  A    between atoms: N_18  and  C_19
REMARK    5  A    between atoms: C_19  and  C_20
REMARK                            x       y       z     vdW  Elec       q    Type
REMARK                         _______ _______ _______ _____ _____    ______ ____
ROOT
ATOM      1  C   UNL     1       1.658  -3.217  -0.024  0.00  0.00    +0.111 A 
ATOM      2  C   UNL     1       1.704  -4.076  -1.113  0.00  0.00    +0.051 A 
ATOM      3  C   UNL     1       2.585  -5.153  -1.087  0.00  0.00    +0.115 A 
ATOM      4  N   UNL     1       3.362  -5.352  -0.042  0.00  0.00    -0.235 NA
ATOM      5  C   UNL     1       3.331  -4.537   1.012  0.00  0.00    +0.168 A 
ATOM      6  N   UNL     1       2.491  -3.460   1.043  0.00  0.00    -0.210 N 
ATOM      7  N   UNL     1       2.682  -2.792   2.257  0.00  0.00    -0.172 NA
ATOM      8  C   UNL     1       3.597  -3.411   2.956  0.00  0.00    +0.150 A 
ATOM      9  C   UNL     1       4.043  -4.529   2.227  0.00  0.00    +0.100 A 
ENDROOT
BRANCH   1  14
ATOM     10  C   UNL     1      -0.018   1.503   0.010  0.00  0.00    +0.086 C 
ATOM     11  C   UNL     1       0.002  -0.004   0.002  0.00  0.00    +0.103 A 
ATOM     12  C   UNL     1      -1.085  -0.805   0.003  0.00  0.00    +0.045 A 
ATOM     13  C   UNL     1      -0.620  -2.132  -0.007  0.00  0.00    +0.052 A 
ATOM     14  C   UNL     1       0.744  -2.070  -0.013  0.00  0.00    +0.153 A 
ATOM     15  O   UNL     1       1.103  -0.770  -0.013  0.00  0.00    -0.458 OA
ENDBRANCH   1  14
BRANCH   9  16
ATOM     16  C   UNL     1       5.064  -5.493   2.647  0.00  0.00    +0.249 C 
ATOM     17  O   UNL     1       5.370  -6.414   1.912  0.00  0.00    -0.270 OA
ATOM     18  N   UNL     1       5.665  -5.359   3.845  0.00  0.00    -0.307 N 
ATOM     19  H   UNL     1       5.421  -4.625   4.431  0.00  0.00    +0.149 HD
BRANCH  18  20
ATOM     20  C   UNL     1       6.686  -6.322   4.264  0.00  0.00    +0.140 C 
BRANCH  20  21
ATOM     21  C   UNL     1       7.196  -5.950   5.633  0.00  0.00    -0.027 A 
ATOM     22  C   UNL     1       8.274  -5.094   5.758  0.00  0.00    +0.009 A 
ATOM     23  C   UNL     1       8.746  -4.750   7.011  0.00  0.00    +0.050 A 
ATOM     24  C   UNL     1       8.138  -5.262   8.145  0.00  0.00    +0.166 A 
ATOM     25  C   UNL     1       7.051  -6.125   8.020  0.00  0.00    +0.167 A 
ATOM     26  C   UNL     1       6.581  -6.461   6.761  0.00  0.00    +0.054 A 
ATOM     27  O   UNL     1       6.636  -6.487   9.268  0.00  0.00    -0.453 OA
ATOM     28  C   UNL     1       7.730  -6.165  10.147  0.00  0.00    +0.466 C 
ATOM     29  O   UNL     1       8.402  -5.085   9.473  0.00  0.00    -0.453 OA
ENDBRANCH  20  21
ENDBRANCH  18  20
ENDBRANCH   9  16
TORSDOF 4
