REMARK  Name = ZINC39935996
REMARK  7 active torsions:
REMARK  status: ('A' for Active; 'I' for Inactive)
REMARK    1  A    between atoms: C_1  and  N_2
REMARK    2  A    between atoms: C_3  and  C_25
REMARK    3  A    between atoms: C_7  and  S_8
REMARK    4  A    between atoms: S_8  and  C_9
REMARK    5  A    between atoms: C_11  and  N_21
REMARK    6  A    between atoms: N_21  and  C_22
REMARK    7  A    between atoms: C_25  and  C_26
REMARK                            x       y       z     vdW  Elec       q    Type
REMARK                         _______ _______ _______ _____ _____    ______ ____
ROOT
ATOM      1  C   UNL     1       3.771  -1.444  -0.204  0.00  0.00    +0.184 C 
ATOM      2  C   UNL     1       5.237  -1.279   0.145  0.00  0.00    +0.036 C 
ATOM      3  C   UNL     1       6.169  -1.841  -0.740  0.00  0.00    +0.014 A 
ATOM      4  C   UNL     1       7.551  -1.735  -0.491  0.00  0.00    +0.011 A 
ATOM      5  C   UNL     1       8.435  -2.290  -1.366  0.00  0.00    +0.001 A 
ATOM      6  C   UNL     1       8.001  -2.961  -2.503  0.00  0.00    +0.002 A 
ATOM      7  C   UNL     1       6.676  -3.095  -2.796  0.00  0.00    +0.024 A 
ATOM      8  C   UNL     1       5.709  -2.547  -1.936  0.00  0.00    +0.042 A 
ATOM      9  N   UNL     1       4.407  -2.680  -2.225  0.00  0.00    -0.284 N 
ATOM     10  C   UNL     1       3.441  -2.196  -1.473  0.00  0.00    +0.236 C 
ATOM     11  O   UNL     1       2.280  -2.357  -1.800  0.00  0.00    -0.274 OA
ATOM     12  H   UNL     1       4.163  -3.159  -3.033  0.00  0.00    +0.155 HD
ENDROOT
BRANCH   2  13
ATOM     13  N   UNL     1       5.625  -0.626   1.249  0.00  0.00    -0.342 N 
ATOM     14  H   UNL     1       6.567  -0.459   1.408  0.00  0.00    +0.146 HD
BRANCH  13  15
ATOM     15  C   UNL     1       4.626  -0.165   2.217  0.00  0.00    +0.070 C 
ATOM     16  C   UNL     1       4.700   1.295   2.667  0.00  0.00    +0.024 C 
ATOM     17  C   UNL     1       5.113   0.177   3.626  0.00  0.00    +0.024 C 
ENDBRANCH  13  15
ENDBRANCH   2  13
BRANCH   1  18
ATOM     18  S   UNL     1       3.040   0.212  -0.334  0.00  0.00    -0.070 S 
BRANCH  18  24
ATOM     19  C   UNL     1       0.590   2.344  -0.637  0.00  0.00    +0.133 C 
ATOM     20  N   UNL     1       0.353   0.899  -0.605  0.00  0.00    -0.292 N 
ATOM     21  C   UNL     1      -0.949   0.218  -0.706  0.00  0.00    +0.177 C 
ATOM     22  N   UNL     1      -0.608  -1.213  -0.619  0.00  0.00    -0.246 N 
ATOM     23  N   UNL     1       0.784  -1.274  -0.481  0.00  0.00    -0.163 NA
ATOM     24  C   UNL     1       1.311  -0.096  -0.480  0.00  0.00    +0.176 C 
ATOM     25  H   UNL     1      -1.224  -1.961  -0.650  0.00  0.00    +0.170 HD
BRANCH  21  26
ATOM     26  C   UNL     1      -1.860   0.627   0.453  0.00  0.00    +0.048 C 
BRANCH  26  27
ATOM     27  C   UNL     1      -3.204  -0.093   0.324  0.00  0.00    +0.015 C 
ATOM     28  C   UNL     1      -3.943   0.407  -0.928  0.00  0.00    +0.028 C 
ATOM     29  C   UNL     1      -5.417  -0.067  -0.895  0.00  0.00    +0.166 C 
ATOM     30  S   UNL     1      -5.755  -0.208   0.907  0.00  0.00    -0.031 S 
ATOM     31  O   UNL     1      -6.043  -1.564   1.219  0.00  0.00    -0.174 OA
ATOM     32  O   UNL     1      -6.676   0.807   1.284  0.00  0.00    -0.174 OA
ATOM     33  C   UNL     1      -4.088   0.219   1.565  0.00  0.00    +0.169 C 
ENDBRANCH  26  27
ENDBRANCH  21  26
ENDBRANCH  18  24
ENDBRANCH   1  18
TORSDOF 6
