REMARK  Name = ZINC09235670
REMARK  7 active torsions:
REMARK  status: ('A' for Active; 'I' for Inactive)
REMARK    1  A    between atoms: C_1  and  C_2
REMARK    2  A    between atoms: C_2  and  N_3
REMARK    3  A    between atoms: C_4  and  C_12
REMARK    4  A    between atoms: C_7  and  S_8
REMARK    5  A    between atoms: S_8  and  C_9
REMARK    6  A    between atoms: C_9  and  C_10
REMARK    7  A    between atoms: C_17  and  O_18
REMARK                            x       y       z     vdW  Elec       q    Type
REMARK                         _______ _______ _______ _____ _____    ______ ____
ROOT
ATOM      1  N   UNL     1       2.043   0.663  -0.176  0.00  0.00    -0.302 N 
ATOM      2  C   UNL     1       1.192   1.743  -0.137  0.00  0.00    +0.168 A 
ATOM      3  N   UNL     1      -0.015   1.276   0.083  0.00  0.00    -0.128 NA
ATOM      4  N   UNL     1       0.022  -0.005   0.183  0.00  0.00    -0.122 NA
ATOM      5  C   UNL     1       1.255  -0.434   0.033  0.00  0.00    +0.192 A 
ENDROOT
BRANCH   2   6
ATOM      6  C   UNL     1       1.566   3.162  -0.310  0.00  0.00    +0.062 A 
ATOM      7  C   UNL     1       2.639   3.697   0.405  0.00  0.00    +0.030 A 
ATOM      8  C   UNL     1       2.988   5.021   0.234  0.00  0.00    +0.019 A 
ATOM      9  C   UNL     1       2.269   5.825  -0.635  0.00  0.00    +0.019 A 
ATOM     10  C   UNL     1       1.201   5.308  -1.343  0.00  0.00    +0.047 A 
ATOM     11  C   UNL     1       0.843   3.979  -1.187  0.00  0.00    +0.128 A 
ATOM     12 BR   UNL     1       4.447   5.743   1.196  0.00  0.00    -0.050 Br
BRANCH  11  13
ATOM     13  O   UNL     1      -0.208   3.470  -1.883  0.00  0.00    -0.506 OA
ATOM     14  H   UNL     1      -1.056   3.547  -1.426  0.00  0.00    +0.292 HD
ENDBRANCH  11  13
ENDBRANCH   2   6
BRANCH   1  16
ATOM     15  C   UNL     1       3.780   0.630  -1.897  0.00  0.00    +0.027 C 
ATOM     16  C   UNL     1       3.491   0.683  -0.395  0.00  0.00    +0.122 C 
ENDBRANCH   1  16
BRANCH   5  17
ATOM     17  S   UNL     1       1.792  -2.111   0.090  0.00  0.00    -0.075 S 
BRANCH  17  18
ATOM     18  C   UNL     1       0.210  -2.937   0.396  0.00  0.00    +0.202 C 
BRANCH  18  19
ATOM     19  C   UNL     1       0.430  -4.426   0.485  0.00  0.00    +0.366 C 
ATOM     20  O   UNL     1       1.542  -4.881   0.356  0.00  0.00    -0.245 OA
ATOM     21  O   UNL     1      -0.609  -5.245   0.709  0.00  0.00    -0.245 OA
ENDBRANCH  18  19
ENDBRANCH  17  18
ENDBRANCH   5  17
TORSDOF 6
