REMARK  Name = ZINC64557675
REMARK  6 active torsions:
REMARK  status: ('A' for Active; 'I' for Inactive)
REMARK    1  A    between atoms: C_1  and  C_2
REMARK    2  A    between atoms: C_4  and  C_7
REMARK    3  A    between atoms: C_7  and  N_13
REMARK    4  A    between atoms: N_13  and  C_14
REMARK    5  A    between atoms: C_14  and  C_15
REMARK    6  A    between atoms: N_18  and  C_20
REMARK                            x       y       z     vdW  Elec       q    Type
REMARK                         _______ _______ _______ _____ _____    ______ ____
ROOT
ATOM      1  N   UNL     1      -2.510  -3.159   1.132  0.00  0.00    +0.391 N 
ATOM      2  H   UNL     1      -3.129  -3.956   1.131  0.00  0.00    -0.084 HD
ATOM      3  H   UNL     1      -1.982  -3.145   1.991  0.00  0.00    -0.084 HD
ENDROOT
BRANCH   1   4
ATOM      4  C   UNL     1      -1.588  -3.254  -0.008  0.00  0.00    -0.003 C 
ATOM      5  C   UNL     1      -2.389  -3.276  -1.311  0.00  0.00    -0.005 C 
ATOM      6  C   UNL     1      -3.328  -4.483  -1.313  0.00  0.00    -0.001 C 
ATOM      7  C   UNL     1      -2.506  -5.769  -1.198  0.00  0.00    -0.000 C 
ATOM      8  C   UNL     1      -1.705  -5.747   0.105  0.00  0.00    -0.001 C 
ATOM      9  C   UNL     1      -0.766  -4.540   0.107  0.00  0.00    -0.005 C 
BRANCH   4  13
ATOM     10  C   UNL     1      -0.018   1.503   0.010  0.00  0.00    +0.112 C 
ATOM     11  C   UNL     1       0.002  -0.004   0.002  0.00  0.00    +0.224 A 
ATOM     12  N   UNL     1      -1.044  -0.783   0.003  0.00  0.00    -0.198 NA
ATOM     13  C   UNL     1      -0.663  -2.065  -0.006  0.00  0.00    +0.161 A 
ATOM     14  N   UNL     1       0.638  -2.118  -0.012  0.00  0.00    -0.063 NA
ATOM     15  O   UNL     1       1.097  -0.774  -0.013  0.00  0.00    -0.338 OA
ENDBRANCH   4  13
ENDBRANCH   1   4
BRANCH   1  16
ATOM     16  C   UNL     1      -3.299  -1.925   1.022  0.00  0.00    -0.023 C 
BRANCH  16  17
ATOM     17  C   UNL     1      -4.245  -1.827   2.191  0.00  0.00    +0.050 A 
ATOM     18  C   UNL     1      -5.550  -2.338   2.236  0.00  0.00    -0.005 A 
ATOM     19  C   UNL     1      -6.066  -2.049   3.451  0.00  0.00    +0.048 A 
ATOM     20  N   UNL     1      -5.121  -1.377   4.152  0.00  0.00    -0.236 N 
ATOM     21  N   UNL     1      -3.987  -1.257   3.339  0.00  0.00    -0.173 NA
ATOM     22  C   UNL     1      -7.480  -2.577   3.560  0.00  0.00    +0.056 C 
ATOM     23  C   UNL     1      -7.918  -2.851   2.104  0.00  0.00    +0.011 C 
ATOM     24  C   UNL     1      -6.564  -3.092   1.402  0.00  0.00    +0.039 C 
BRANCH  20  25
ATOM     25  C   UNL     1      -5.253  -0.893   5.460  0.00  0.00    +0.066 A 
ATOM     26  C   UNL     1      -6.479  -0.417   5.906  0.00  0.00    +0.028 A 
ATOM     27  C   UNL     1      -6.605   0.060   7.196  0.00  0.00    +0.002 A 
ATOM     28  C   UNL     1      -5.513   0.063   8.044  0.00  0.00    +0.000 A 
ATOM     29  C   UNL     1      -4.291  -0.410   7.603  0.00  0.00    +0.002 A 
ATOM     30  C   UNL     1      -4.159  -0.893   6.316  0.00  0.00    +0.028 A 
ENDBRANCH  20  25
ENDBRANCH  16  17
ENDBRANCH   1  16
TORSDOF 5
