REMARK  Name = ZINC66664538
REMARK  10 active torsions:
REMARK  status: ('A' for Active; 'I' for Inactive)
REMARK    1  A    between atoms: C_1  and  C_2
REMARK    2  A    between atoms: C_2  and  C_3
REMARK    3  A    between atoms: C_2  and  C_4
REMARK    4  A    between atoms: C_2  and  C_5
REMARK    5  A    between atoms: C_7  and  N_14
REMARK    6  A    between atoms: N_8  and  C_10
REMARK    7  A    between atoms: C_10  and  C_11
REMARK    8  A    between atoms: C_10  and  C_12
REMARK    9  A    between atoms: C_10  and  C_13
REMARK   10  A    between atoms: C_15  and  C_17
REMARK                            x       y       z     vdW  Elec       q    Type
REMARK                         _______ _______ _______ _____ _____    ______ ____
ROOT
ATOM      1  N   UNL     1       3.573  -1.162  -3.284  0.00  0.00    -0.266 N 
ATOM      2  C   UNL     1       4.689  -0.776  -2.635  0.00  0.00    +0.255 C 
ATOM      3  O   UNL     1       4.604  -0.205  -1.565  0.00  0.00    -0.270 OA
ATOM      4  H   UNL     1       3.637  -1.548  -4.172  0.00  0.00    +0.157 HD
ENDROOT
BRANCH   2   5
ATOM      5  C   UNL     1       6.011  -1.046  -3.221  0.00  0.00    +0.101 A 
ATOM      6  C   UNL     1       7.174  -0.757  -2.514  0.00  0.00    +0.023 A 
ATOM      7  C   UNL     1       8.415  -1.025  -3.098  0.00  0.00    -0.027 A 
ATOM      8  C   UNL     1       8.479  -1.564  -4.343  0.00  0.00    +0.022 A 
ATOM      9  N   UNL     1       7.344  -1.848  -5.036  0.00  0.00    -0.325 N 
ATOM     10  H   UNL     1       7.414  -2.232  -5.924  0.00  0.00    +0.169 HD
ATOM     11  C   UNL     1       6.126  -1.613  -4.517  0.00  0.00    +0.261 A 
ATOM     12  O   UNL     1       5.126  -1.882  -5.159  0.00  0.00    -0.267 OA
ATOM     13  C   UNL     1       9.927  -1.758  -4.749  0.00  0.00    +0.054 C 
ATOM     14  C   UNL     1      10.739  -0.873  -3.781  0.00  0.00    +0.011 C 
ATOM     15  C   UNL     1       9.810  -0.807  -2.550  0.00  0.00    +0.037 C 
ENDBRANCH   2   5
BRANCH   1  18
ATOM     16  C   UNL     1       0.710  -0.511  -1.226  0.00  0.00    +0.070 A 
ATOM     17  C   UNL     1       2.090  -0.484  -1.446  0.00  0.00    +0.069 A 
ATOM     18  C   UNL     1       2.327  -1.007  -2.680  0.00  0.00    +0.124 A 
ATOM     19  N   UNL     1       1.126  -1.351  -3.214  0.00  0.00    -0.245 N 
ATOM     20  N   UNL     1       0.134  -1.033  -2.278  0.00  0.00    -0.174 NA
BRANCH  16  22
ATOM     21  C   UNL     1      -0.024   1.503   0.020  0.00  0.00    +0.017 C 
ATOM     22  C   UNL     1       0.006  -0.026   0.015  0.00  0.00    +0.006 C 
ATOM     23  C   UNL     1       0.753  -0.526   1.253  0.00  0.00    +0.017 C 
ATOM     24  C   UNL     1      -1.426  -0.565   0.031  0.00  0.00    +0.017 C 
ENDBRANCH  16  22
BRANCH  19  25
ATOM     25  C   UNL     1       0.909  -1.952  -4.532  0.00  0.00    +0.057 C 
ATOM     26  C   UNL     1       1.646  -3.290  -4.610  0.00  0.00    +0.036 C 
ATOM     27  C   UNL     1      -0.589  -2.181  -4.747  0.00  0.00    +0.036 C 
ATOM     28  C   UNL     1       1.442  -1.012  -5.616  0.00  0.00    +0.036 C 
ENDBRANCH  19  25
ENDBRANCH   1  18
TORSDOF 4
