REMARK  Name = ZINC66760210
REMARK  3 active torsions:
REMARK  status: ('A' for Active; 'I' for Inactive)
REMARK    1  A    between atoms: C_6  and  C_7
REMARK    2  A    between atoms: C_9  and  C_12
REMARK    3  A    between atoms: N_14  and  C_15
REMARK                            x       y       z     vdW  Elec       q    Type
REMARK                         _______ _______ _______ _____ _____    ______ ____
ROOT
ATOM      1  C   UNL     1      -1.267  -0.763   0.013  0.00  0.00    +0.109 A 
ATOM      2  N   UNL     1      -2.508  -0.310   0.018  0.00  0.00    -0.234 NA
ATOM      3  C   UNL     1      -3.500  -1.189   0.084  0.00  0.00    +0.133 A 
ATOM      4  C   UNL     1      -3.204  -2.524   0.143  0.00  0.00    +0.080 A 
ATOM      5  S   UNL     1      -1.521  -2.526   0.099  0.00  0.00    -0.075 S 
ENDROOT
BRANCH   1  11
ATOM      6  C   UNL     1      -0.019   1.388  -0.117  0.00  0.00    +0.014 A 
ATOM      7  C   UNL     1       1.166   2.092  -0.180  0.00  0.00    +0.050 A 
ATOM      8  C   UNL     1       2.380   1.419  -0.180  0.00  0.00    +0.162 A 
ATOM      9  C   UNL     1       2.407   0.029  -0.115  0.00  0.00    +0.163 A 
ATOM     10  C   UNL     1       1.221  -0.683  -0.053  0.00  0.00    +0.060 A 
ATOM     11  C   UNL     1       0.001  -0.005  -0.054  0.00  0.00    +0.011 A 
ATOM     12  O   UNL     1       3.589  -0.645  -0.106  0.00  0.00    -0.485 OA
ATOM     13  C   UNL     1       4.745   0.077  -0.544  0.00  0.00    +0.270 C 
ATOM     14  C   UNL     1       4.737   1.453   0.135  0.00  0.00    +0.270 C 
ATOM     15  O   UNL     1       3.537   2.134  -0.246  0.00  0.00    -0.485 OA
ENDBRANCH   1  11
BRANCH   3  16
ATOM     16  C   UNL     1      -4.901  -0.733   0.093  0.00  0.00    +0.264 C 
ATOM     17  O   UNL     1      -5.804  -1.546   0.154  0.00  0.00    -0.268 OA
ATOM     18  N   UNL     1      -5.182   0.584   0.034  0.00  0.00    -0.299 N 
ATOM     19  H   UNL     1      -4.461   1.232  -0.015  0.00  0.00    +0.150 HD
BRANCH  18  20
ATOM     20  C   UNL     1      -6.575   1.036   0.043  0.00  0.00    +0.159 C 
ATOM     21  C   UNL     1      -6.646   2.491  -0.429  0.00  0.00    +0.032 C 
ATOM     22  C   UNL     1      -5.426   3.267   0.034  0.00  0.00    +0.004 C 
ATOM     23  C   UNL     1      -5.351   3.449   1.539  0.00  0.00    +0.019 C 
ATOM     24  C   UNL     1      -5.126   2.108   2.240  0.00  0.00    +0.104 C 
ATOM     25  N   UNL     1      -6.433   1.472   2.471  0.00  0.00    -0.314 N 
ATOM     26  C   UNL     1      -7.127   0.956   1.451  0.00  0.00    +0.233 C 
ATOM     27  O   UNL     1      -8.201   0.429   1.650  0.00  0.00    -0.274 OA
ATOM     28  H   UNL     1      -6.793   1.423   3.371  0.00  0.00    +0.149 HD
ENDBRANCH  18  20
ENDBRANCH   3  16
TORSDOF 3
