REMARK  Name = ZINC38752912
REMARK  12 active torsions:
REMARK  status: ('A' for Active; 'I' for Inactive)
REMARK    1  A    between atoms: C_1  and  C_2
REMARK    2  A    between atoms: C_2  and  C_3
REMARK    3  A    between atoms: C_3  and  C_4
REMARK    4  A    between atoms: C_4  and  N_5
REMARK    5  A    between atoms: C_6  and  O_40
REMARK    6  A    between atoms: C_8  and  C_15
REMARK    7  A    between atoms: C_21  and  O_37
REMARK    8  A    between atoms: N_28  and  C_33
REMARK    9  A    between atoms: C_33  and  C_34
REMARK   10  A    between atoms: C_34  and  C_35
REMARK   11  A    between atoms: C_35  and  C_36
REMARK   12  A    between atoms: O_37  and  C_38
REMARK                            x       y       z     vdW  Elec       q    Type
REMARK                         _______ _______ _______ _____ _____    ______ ____
ROOT
ATOM      1  C   UNL     1       0.595  -5.175  -3.684  0.00  0.00    +0.059 C 
ATOM      2  C   UNL     1       1.246  -6.421  -4.232  0.00  0.00    +0.005 A 
ATOM      3  C   UNL     1       2.537  -6.326  -4.728  0.00  0.00    +0.027 A 
ATOM      4  C   UNL     1       3.177  -7.441  -5.234  0.00  0.00    +0.045 A 
ATOM      5  C   UNL     1       2.530  -8.665  -5.248  0.00  0.00    +0.069 A 
ATOM      6  C   UNL     1       1.241  -8.767  -4.756  0.00  0.00    +0.164 A 
ATOM      7  C   UNL     1       0.593  -7.639  -4.248  0.00  0.00    +0.175 A 
ATOM      8  O   UNL     1      -0.683  -7.779  -3.791  0.00  0.00    -0.439 OA
ATOM      9  C   UNL     1      -1.217  -6.736  -3.126  0.00  0.00    +0.202 C 
ATOM     10  N   UNL     1      -1.946  -6.926  -2.070  0.00  0.00    -0.131 NA
ATOM     11  C   UNL     1      -2.485  -5.917  -1.370  0.00  0.00    +0.335 C 
ATOM     12  O   UNL     1      -3.170  -6.170  -0.397  0.00  0.00    -0.250 OA
ATOM     13  N   UNL     1      -2.286  -4.635  -1.716  0.00  0.00    -0.224 N 
ATOM     14  C   UNL     1      -1.554  -4.308  -2.792  0.00  0.00    +0.235 C 
ATOM     15  O   UNL     1      -1.394  -3.137  -3.065  0.00  0.00    -0.274 OA
ATOM     16  C   UNL     1      -0.927  -5.356  -3.665  0.00  0.00    +0.167 C 
ATOM     17 CL   UNL     1       4.793  -7.308  -5.854  0.00  0.00    -0.083 Cl
ENDROOT
BRANCH   1  20
ATOM     18  N   UNL     1      -0.492  -4.561  -6.457  0.00  0.00    -0.259 N 
ATOM     19  C   UNL     1       0.903  -4.402  -6.041  0.00  0.00    +0.218 C 
ATOM     20  C   UNL     1       0.954  -3.981  -4.571  0.00  0.00    +0.131 C 
ATOM     21  C   UNL     1      -0.034  -2.865  -4.340  0.00  0.00    +0.228 C 
ATOM     22  O   UNL     1       0.216  -1.990  -3.539  0.00  0.00    -0.275 OA
ATOM     23  N   UNL     1      -1.192  -2.841  -5.024  0.00  0.00    -0.240 N 
ATOM     24  C   UNL     1      -1.450  -3.746  -5.984  0.00  0.00    +0.310 C 
ATOM     25  O   UNL     1      -2.577  -3.834  -6.430  0.00  0.00    -0.252 OA
ATOM     26  H   UNL     1      -1.851  -2.158  -4.824  0.00  0.00    +0.159 HD
BRANCH  19  27
ATOM     27  O   UNL     1       1.528  -3.400  -6.845  0.00  0.00    -0.373 OA
ATOM     28  H   UNL     1       1.533  -3.601  -7.791  0.00  0.00    +0.212 HD
ENDBRANCH  19  27
BRANCH  18  29
ATOM     29  C   UNL     1      -0.848  -5.618  -7.406  0.00  0.00    +0.112 C 
BRANCH  29  30
ATOM     30  C   UNL     1      -0.824  -5.056  -8.828  0.00  0.00    +0.019 C 
BRANCH  30  32
ATOM     31  C   UNL     1      -1.171  -5.598 -11.242  0.00  0.00    +0.004 C 
ATOM     32  C   UNL     1      -1.195  -6.160  -9.820  0.00  0.00    -0.002 C 
ENDBRANCH  30  32
ENDBRANCH  29  30
ENDBRANCH  18  29
ENDBRANCH   1  20
BRANCH   6  33
ATOM     33  O   UNL     1       0.603  -9.967  -4.768  0.00  0.00    -0.491 OA
ATOM     34  C   UNL     1       1.324 -11.080  -5.302  0.00  0.00    +0.277 C 
ENDBRANCH   6  33
BRANCH  13  35
ATOM     35  C   UNL     1      -2.881  -3.572  -0.902  0.00  0.00    +0.118 C 
BRANCH  35  36
ATOM     36  C   UNL     1      -1.905  -3.173   0.207  0.00  0.00    +0.019 C 
BRANCH  36  37
ATOM     37  C   UNL     1      -2.481  -1.992   0.991  0.00  0.00    -0.002 C 
ATOM     38  C   UNL     1      -1.506  -1.592   2.100  0.00  0.00    +0.004 C 
ENDBRANCH  36  37
ENDBRANCH  35  36
ENDBRANCH  13  35
TORSDOF 9
