REMARK  Name = ZINC12701256
REMARK  12 active torsions:
REMARK  status: ('A' for Active; 'I' for Inactive)
REMARK    1  A    between atoms: C_1  and  N_60
REMARK    2  A    between atoms: C_2  and  C_3
REMARK    3  A    between atoms: C_2  and  N_60
REMARK    4  A    between atoms: C_3  and  C_5
REMARK    5  A    between atoms: C_3  and  O_22
REMARK    6  A    between atoms: C_5  and  O_6
REMARK    7  A    between atoms: O_6  and  C_7
REMARK    8  A    between atoms: C_11  and  C_13
REMARK    9  A    between atoms: C_13  and  N_62
REMARK   10  A    between atoms: C_14  and  C_15
REMARK   11  A    between atoms: C_14  and  N_62
REMARK   12  A    between atoms: C_23  and  N_60
REMARK                            x       y       z     vdW  Elec       q    Type
REMARK                         _______ _______ _______ _____ _____    ______ ____
ROOT
ATOM      1  C   UNL     1      -3.741  -0.770  -1.694  0.00  0.00    +0.121 A 
ATOM      2  C   UNL     1      -4.742  -0.112  -0.994  0.00  0.00    +0.045 A 
ATOM      3  C   UNL     1      -4.462   1.071  -0.338  0.00  0.00    +0.004 A 
ATOM      4  C   UNL     1      -3.185   1.600  -0.379  0.00  0.00    +0.002 A 
ATOM      5  C   UNL     1      -2.186   0.947  -1.076  0.00  0.00    -0.061 A 
ATOM      6  C   UNL     1      -2.462  -0.234  -1.738  0.00  0.00    +0.047 A 
ENDROOT
BRANCH   1   7
ATOM      7  O   UNL     1      -4.014  -1.933  -2.341  0.00  0.00    -0.489 OA
BRANCH   7   8
ATOM      8  C   UNL     1      -5.354  -2.423  -2.257  0.00  0.00    +0.258 C 
BRANCH   8   9
ATOM      9  C   UNL     1      -5.468  -3.732  -3.041  0.00  0.00    +0.135 C 
BRANCH   9  10
ATOM     10  O   UNL     1      -5.244  -3.478  -4.429  0.00  0.00    -0.390 OA
ATOM     11  H   UNL     1      -5.872  -2.855  -4.821  0.00  0.00    +0.210 HD
ENDBRANCH   9  10
BRANCH   9  12
ATOM     12  C   UNL     1      -6.868  -4.320  -2.849  0.00  0.00    -0.044 C 
BRANCH  12  14
ATOM     13  C   UNL     1      -6.060  -6.603  -2.834  0.00  0.00    -0.096 C 
ATOM     14  N   UNL     1      -6.931  -5.631  -3.529  0.00  0.00    +0.381 N 
ATOM     15  H   UNL     1      -6.604  -5.522  -4.496  0.00  0.00    -0.082 HD
BRANCH  14  16
ATOM     16  C   UNL     1      -8.324  -6.125  -3.546  0.00  0.00    -0.069 C 
ATOM     17  C   UNL     1      -8.823  -6.372  -2.121  0.00  0.00    -0.015 C 
ATOM     18  C   UNL     1     -10.265  -6.883  -2.168  0.00  0.00    -0.002 C 
ATOM     19  C   UNL     1     -10.318  -8.190  -2.961  0.00  0.00    -0.000 C 
ATOM     20  C   UNL     1      -9.819  -7.942  -4.386  0.00  0.00    -0.002 C 
ATOM     21  C   UNL     1      -8.377  -7.431  -4.340  0.00  0.00    -0.015 C 
ENDBRANCH  14  16
ENDBRANCH  12  14
ENDBRANCH   9  12
ENDBRANCH   8   9
ENDBRANCH   7   8
ENDBRANCH   1   7
BRANCH   5  22
ATOM     22  C   UNL     1      -0.795   1.527  -1.120  0.00  0.00    -0.046 C 
BRANCH  22  23
ATOM     23  N   UNL     1      -0.015   0.998   0.015  0.00  0.00    +0.384 N 
ATOM     24  H   UNL     1       0.032  -0.025  -0.054  0.00  0.00    -0.085 HD
ATOM     25  H   UNL     1      -0.475   1.261   0.894  0.00  0.00    -0.085 HD
BRANCH  23  26
ATOM     26  C   UNL     1       1.353   1.550  -0.003  0.00  0.00    -0.043 C 
BRANCH  26  27
ATOM     27  C   UNL     1       2.125   0.993   1.166  0.00  0.00    -0.029 A 
ATOM     28  C   UNL     1       2.294   1.753   2.308  0.00  0.00    +0.004 A 
ATOM     29  C   UNL     1       2.998   1.240   3.381  0.00  0.00    +0.000 A 
ATOM     30  C   UNL     1       3.542  -0.029   3.311  0.00  0.00    +0.003 A 
ATOM     31  C   UNL     1       3.378  -0.788   2.168  0.00  0.00    +0.038 A 
ATOM     32  C   UNL     1       2.669  -0.278   1.093  0.00  0.00    +0.125 A 
ATOM     33  F   UNL     1       2.509  -1.019  -0.025  0.00  0.00    -0.205 F 
ENDBRANCH  26  27
ENDBRANCH  23  26
ENDBRANCH  22  23
ENDBRANCH   5  22
TORSDOF 11
