REMARK  Name = ZINC60343235
REMARK  10 active torsions:
REMARK  status: ('A' for Active; 'I' for Inactive)
REMARK    1  A    between atoms: C_1  and  C_2
REMARK    2  A    between atoms: C_2  and  C_3
REMARK    3  A    between atoms: C_6  and  C_9
REMARK    4  A    between atoms: C_11  and  C_14
REMARK    5  A    between atoms: C_14  and  N_15
REMARK    6  A    between atoms: N_15  and  C_16
REMARK    7  A    between atoms: N_15  and  C_24
REMARK    8  A    between atoms: C_16  and  C_17
REMARK    9  A    between atoms: C_21  and  O_23
REMARK   10  A    between atoms: C_27  and  O_30
REMARK                            x       y       z     vdW  Elec       q    Type
REMARK                         _______ _______ _______ _____ _____    ______ ____
ROOT
ATOM      1  N   UNL     1       6.653  -1.593  -6.590  0.00  0.00    +0.388 N 
ATOM      2  H   UNL     1       6.418  -0.991  -7.365  0.00  0.00    -0.080 HD
ENDROOT
BRANCH   1   3
ATOM      3  C   UNL     1       8.053  -2.022  -6.710  0.00  0.00    -0.067 C 
ATOM      4  C   UNL     1       8.957  -0.791  -6.805  0.00  0.00    -0.013 C 
ATOM      5  C   UNL     1      10.415  -1.238  -6.930  0.00  0.00    +0.030 C 
ATOM      6  C   UNL     1      10.581  -2.091  -8.189  0.00  0.00    +0.114 C 
ATOM      7  C   UNL     1       9.677  -3.322  -8.094  0.00  0.00    +0.030 C 
ATOM      8  C   UNL     1       8.219  -2.875  -7.969  0.00  0.00    -0.013 C 
BRANCH   6   9
ATOM      9  O   UNL     1      11.943  -2.508  -8.305  0.00  0.00    -0.392 OA
ATOM     10  H   UNL     1      12.122  -3.054  -9.083  0.00  0.00    +0.210 HD
ENDBRANCH   6   9
ENDBRANCH   1   3
BRANCH   1  11
ATOM     11  C   UNL     1       5.777  -2.772  -6.603  0.00  0.00    -0.021 C 
BRANCH  11  14
ATOM     12  C   UNL     1       2.469  -1.656  -5.445  0.00  0.00    +0.108 A 
ATOM     13  N   UNL     1       3.734  -2.049  -5.472  0.00  0.00    -0.246 NA
ATOM     14  C   UNL     1       4.337  -2.328  -6.604  0.00  0.00    +0.033 A 
ATOM     15  C   UNL     1       3.659  -2.216  -7.778  0.00  0.00    +0.068 A 
ATOM     16  S   UNL     1       2.059  -1.681  -7.185  0.00  0.00    -0.075 S 
BRANCH  12  20
ATOM     17  C   UNL     1       0.035  -0.631  -2.117  0.00  0.00    -0.048 A 
ATOM     18  C   UNL     1      -0.490  -0.581  -3.396  0.00  0.00    +0.004 A 
ATOM     19  C   UNL     1       0.295  -0.912  -4.481  0.00  0.00    +0.011 A 
ATOM     20  C   UNL     1       1.622  -1.299  -4.286  0.00  0.00    +0.007 A 
ATOM     21  C   UNL     1       2.145  -1.348  -2.994  0.00  0.00    +0.011 A 
ATOM     22  C   UNL     1       1.351  -1.009  -1.918  0.00  0.00    +0.004 A 
BRANCH  17  24
ATOM     23  C   UNL     1      -0.707   1.233  -0.659  0.00  0.00    +0.009 C 
ATOM     24  C   UNL     1      -0.828  -0.267  -0.937  0.00  0.00    +0.032 C 
ENDBRANCH  17  24
ENDBRANCH  12  20
ENDBRANCH  11  14
ENDBRANCH   1  11
BRANCH   1  25
ATOM     25  C   UNL     1       6.471  -0.862  -5.330  0.00  0.00    -0.042 C 
BRANCH  25  26
ATOM     26  C   UNL     1       6.905  -1.730  -4.177  0.00  0.00    -0.060 A 
ATOM     27  C   UNL     1       6.010  -2.614  -3.603  0.00  0.00    +0.002 A 
ATOM     28  C   UNL     1       6.406  -3.412  -2.546  0.00  0.00    +0.004 A 
ATOM     29  C   UNL     1       7.697  -3.329  -2.060  0.00  0.00    +0.045 A 
ATOM     30  C   UNL     1       8.596  -2.443  -2.635  0.00  0.00    +0.117 A 
ATOM     31  C   UNL     1       8.199  -1.647  -3.700  0.00  0.00    +0.047 A 
BRANCH  30  32
ATOM     32  O   UNL     1       9.866  -2.358  -2.159  0.00  0.00    -0.507 OA
ATOM     33  H   UNL     1      10.488  -2.961  -2.590  0.00  0.00    +0.292 HD
ENDBRANCH  30  32
ENDBRANCH  25  26
ENDBRANCH   1  25
TORSDOF 9
