REMARK  Name = ZINC64230989
REMARK  9 active torsions:
REMARK  status: ('A' for Active; 'I' for Inactive)
REMARK    1  A    between atoms: C_1  and  C_2
REMARK    2  A    between atoms: C_2  and  C_4
REMARK    3  A    between atoms: C_2  and  O_13
REMARK    4  A    between atoms: N_6  and  C_7
REMARK    5  A    between atoms: O_13  and  C_14
REMARK    6  A    between atoms: C_14  and  C_16
REMARK    7  A    between atoms: C_19  and  N_22
REMARK    8  A    between atoms: N_22  and  S_23
REMARK    9  A    between atoms: S_23  and  C_26
REMARK                            x       y       z     vdW  Elec       q    Type
REMARK                         _______ _______ _______ _____ _____    ______ ____
ROOT
ATOM      1  C   UNL     1      -3.282  -1.278  -1.319  0.00  0.00    +0.059 A 
ATOM      2  C   UNL     1      -3.954  -1.584  -0.131  0.00  0.00    +0.017 A 
ATOM      3  C   UNL     1      -5.248  -2.035  -0.173  0.00  0.00    +0.025 A 
ATOM      4  C   UNL     1      -5.893  -2.191  -1.397  0.00  0.00    +0.048 A 
ATOM      5  C   UNL     1      -5.227  -1.888  -2.582  0.00  0.00    +0.025 A 
ATOM      6  C   UNL     1      -3.935  -1.430  -2.546  0.00  0.00    +0.017 A 
ENDROOT
BRANCH   1   7
ATOM      7  C   UNL     1      -1.892  -0.792  -1.277  0.00  0.00    +0.340 C 
ATOM      8  O   UNL     1      -1.311  -0.523  -2.309  0.00  0.00    -0.245 OA
BRANCH   7   9
ATOM      9  O   UNL     1      -1.264  -0.647  -0.093  0.00  0.00    -0.449 OA
BRANCH   9  11
ATOM     10  C   UNL     1       0.086   1.357  -0.053  0.00  0.00    +0.062 C 
ATOM     11  C   UNL     1       0.083  -0.171  -0.127  0.00  0.00    +0.259 C 
BRANCH  11  12
ATOM     12  C   UNL     1       0.844  -0.732   1.046  0.00  0.00    +0.254 C 
ATOM     13  O   UNL     1       0.266  -1.393   1.884  0.00  0.00    -0.272 OA
ATOM     14  N   UNL     1       2.166  -0.500   1.166  0.00  0.00    -0.309 N 
ATOM     15  H   UNL     1       2.628   0.028   0.496  0.00  0.00    +0.149 HD
BRANCH  14  16
ATOM     16  C   UNL     1       2.906  -1.046   2.306  0.00  0.00    +0.073 C 
ATOM     17  C   UNL     1       2.780  -0.094   3.498  0.00  0.00    +0.022 C 
ATOM     18  C   UNL     1       3.553  -0.664   4.689  0.00  0.00    +0.002 C 
ATOM     19  C   UNL     1       5.028  -0.819   4.314  0.00  0.00    +0.000 C 
ATOM     20  C   UNL     1       5.153  -1.771   3.122  0.00  0.00    +0.002 C 
ATOM     21  C   UNL     1       4.381  -1.201   1.931  0.00  0.00    +0.022 C 
ENDBRANCH  14  16
ENDBRANCH  11  12
ENDBRANCH   9  11
ENDBRANCH   7   9
ENDBRANCH   1   7
BRANCH   4  22
ATOM     22  N   UNL     1      -7.205  -2.650  -1.437  0.00  0.00    -0.216 N 
ATOM     23  H   UNL     1      -7.466  -3.417  -0.904  0.00  0.00    +0.174 HD
BRANCH  22  24
ATOM     24  S   UNL     1      -8.320  -1.887  -2.393  0.00  0.00    +0.072 S 
ATOM     25  O   UNL     1      -7.756  -1.813  -3.695  0.00  0.00    -0.150 OA
ATOM     26  O   UNL     1      -9.570  -2.513  -2.138  0.00  0.00    -0.150 OA
BRANCH  24  27
ATOM     27  C   UNL     1      -8.460  -0.230  -1.810  0.00  0.00    +0.110 A 
ATOM     28  C   UNL     1      -9.358   0.055  -0.698  0.00  0.00    +0.031 A 
ATOM     29  C   UNL     1      -9.512   1.303  -0.203  0.00  0.00    +0.027 A 
ATOM     30  C   UNL     1      -8.760   2.409  -0.791  0.00  0.00    +0.056 A 
ATOM     31  N   UNL     1      -8.677   3.695  -0.560  0.00  0.00    -0.268 N 
ATOM     32  C   UNL     1      -7.785   4.240  -1.454  0.00  0.00    +0.308 C 
ATOM     33  O   UNL     1      -7.480   5.413  -1.508  0.00  0.00    -0.252 OA
ATOM     34  N   UNL     1      -7.290   3.256  -2.276  0.00  0.00    -0.267 N 
ATOM     35  C   UNL     1      -7.837   2.117  -1.934  0.00  0.00    +0.058 A 
ATOM     36  C   UNL     1      -7.727   0.737  -2.404  0.00  0.00    +0.054 A 
ATOM     37  H   UNL     1      -6.645   3.384  -2.990  0.00  0.00    +0.156 HD
ATOM     38  H   UNL     1      -9.162   4.181   0.125  0.00  0.00    +0.156 HD
ENDBRANCH  24  27
ENDBRANCH  22  24
ENDBRANCH   4  22
TORSDOF 8
