REMARK  Name = ZINC62396428
REMARK  5 active torsions:
REMARK  status: ('A' for Active; 'I' for Inactive)
REMARK    1  A    between atoms: C_1  and  C_2
REMARK    2  A    between atoms: C_7  and  C_8
REMARK    3  A    between atoms: C_11  and  C_22
REMARK    4  A    between atoms: C_12  and  C_16
REMARK    5  A    between atoms: C_22  and  O_23
REMARK                            x       y       z     vdW  Elec       q    Type
REMARK                         _______ _______ _______ _____ _____    ______ ____
ROOT
ATOM      1  C   UNL     1      -0.034   0.034   2.483  0.00  0.00    +0.132 A 
ATOM      2  N   UNL     1      -0.087   1.321   2.707  0.00  0.00    -0.157 NA
ATOM      3  N   UNL     1      -0.038   1.831   4.000  0.00  0.00    -0.207 N 
ATOM      4  C   UNL     1      -0.065   3.066   4.631  0.00  0.00    +0.097 A 
ATOM      5  C   UNL     1       0.025   2.847   5.967  0.00  0.00    +0.097 A 
ATOM      6  N   UNL     1       0.106   1.516   6.167  0.00  0.00    -0.220 NA
ATOM      7  C   UNL     1       0.069   0.914   5.014  0.00  0.00    +0.197 A 
ATOM      8  S   UNL     1       0.089  -0.631   4.136  0.00  0.00    -0.028 S 
ENDROOT
BRANCH   1  15
ATOM      9  C   UNL     1      -0.242   1.528   0.014  0.00  0.00    +0.044 C 
ATOM     10  C   UNL     1      -0.173   0.023  -0.005  0.00  0.00    -0.041 A 
ATOM     11  C   UNL     1      -0.203  -0.656  -1.206  0.00  0.00    +0.004 A 
ATOM     12  C   UNL     1      -0.140  -2.037  -1.226  0.00  0.00    +0.000 A 
ATOM     13  C   UNL     1      -0.045  -2.748  -0.042  0.00  0.00    +0.001 A 
ATOM     14  C   UNL     1      -0.014  -2.081   1.165  0.00  0.00    +0.011 A 
ATOM     15  C   UNL     1      -0.073  -0.688   1.191  0.00  0.00    +0.012 A 
ENDBRANCH   1  15
BRANCH   5  16
ATOM     16  C   UNL     1       0.033   3.889   7.022  0.00  0.00    +0.002 A 
ATOM     17  C   UNL     1      -0.840   4.972   6.942  0.00  0.00    +0.010 A 
ATOM     18  C   UNL     1      -0.828   5.939   7.927  0.00  0.00    +0.001 A 
ATOM     19  C   UNL     1       0.049   5.835   8.992  0.00  0.00    +0.000 A 
ATOM     20  C   UNL     1       0.918   4.762   9.076  0.00  0.00    +0.001 A 
ATOM     21  C   UNL     1       0.910   3.786   8.100  0.00  0.00    +0.010 A 
ENDBRANCH   5  16
BRANCH   4  22
ATOM     22  C   UNL     1      -0.174   4.408   3.955  0.00  0.00    +0.213 C 
BRANCH  22  23
ATOM     23  O   UNL     1      -1.549   4.704   3.703  0.00  0.00    -0.389 OA
ATOM     24  H   UNL     1      -1.695   5.556   3.268  0.00  0.00    +0.210 HD
ENDBRANCH  22  23
ENDBRANCH   4  22
TORSDOF 4
