REMARK  Name = ZINC24271648
REMARK  9 active torsions:
REMARK  status: ('A' for Active; 'I' for Inactive)
REMARK    1  A    between atoms: C_1  and  C_2
REMARK    2  A    between atoms: C_2  and  C_4
REMARK    3  A    between atoms: C_2  and  S_18
REMARK    4  A    between atoms: C_4  and  C_6
REMARK    5  A    between atoms: C_6  and  C_16
REMARK    6  A    between atoms: S_18  and  C_19
REMARK    7  A    between atoms: N_23  and  C_24
REMARK    8  A    between atoms: C_27  and  O_30
REMARK    9  A    between atoms: O_30  and  C_31
REMARK                            x       y       z     vdW  Elec       q    Type
REMARK                         _______ _______ _______ _____ _____    ______ ____
ROOT
ATOM      1  C   UNL     1       1.417   2.032  -0.001  0.00  0.00    +0.028 C 
ATOM      2  C   UNL     1      -0.018   1.503   0.010  0.00  0.00    +0.123 C 
ENDROOT
BRANCH   2   3
ATOM      3  C   UNL     1       0.002  -0.004   0.002  0.00  0.00    +0.189 C 
ATOM      4  O   UNL     1      -0.071  -0.619   1.048  0.00  0.00    -0.290 OA
BRANCH   3   5
ATOM      5  C   UNL     1       0.106  -0.699  -1.215  0.00  0.00    +0.131 C 
ATOM      6  C   UNL     1       0.125  -2.105  -1.223  0.00  0.00    +0.114 C 
ATOM      7  N   UNL     1       0.056  -2.898  -0.123  0.00  0.00    -0.300 N 
ATOM      8  C   UNL     1       0.101  -4.224  -0.538  0.00  0.00    +0.054 A 
ATOM      9  C   UNL     1       0.065  -5.433   0.144  0.00  0.00    +0.025 A 
ATOM     10  C   UNL     1       0.135  -6.620  -0.557  0.00  0.00    +0.002 A 
ATOM     11  C   UNL     1       0.242  -6.611  -1.938  0.00  0.00    +0.002 A 
ATOM     12  C   UNL     1       0.280  -5.415  -2.625  0.00  0.00    +0.025 A 
ATOM     13  C   UNL     1       0.209  -4.215  -1.931  0.00  0.00    +0.054 A 
ATOM     14  N   UNL     1       0.222  -2.884  -2.331  0.00  0.00    -0.300 N 
ATOM     15  H   UNL     1      -0.021  -2.447   0.877  0.00  0.00    +0.153 HD
ATOM     16  H   UNL     1       0.293  -2.419  -3.325  0.00  0.00    +0.153 HD
BRANCH   5  17
ATOM     17  C   UNL     1       0.193   0.025  -2.447  0.00  0.00    +0.106 C 
ATOM     18  N   UNL     1       0.261   0.600  -3.425  0.00  0.00    -0.191 NA
ENDBRANCH   5  17
ENDBRANCH   3   5
ENDBRANCH   2   3
BRANCH   2  19
ATOM     19  S   UNL     1      -0.866   2.087   1.500  0.00  0.00    -0.073 S 
BRANCH  19  20
ATOM     20  C   UNL     1      -0.879   3.820   1.184  0.00  0.00    +0.215 A 
ATOM     21  N   UNL     1      -0.379   4.427   0.130  0.00  0.00    -0.101 NA
ATOM     22  N   UNL     1      -0.560   5.696   0.213  0.00  0.00    -0.022 NA
ATOM     23  N   UNL     1      -1.170   5.992   1.309  0.00  0.00    -0.038 NA
ATOM     24  N   UNL     1      -1.403   4.781   1.986  0.00  0.00    -0.187 N 
BRANCH  24  25
ATOM     25  C   UNL     1      -2.039   4.606   3.224  0.00  0.00    +0.070 A 
ATOM     26  C   UNL     1      -2.828   3.486   3.446  0.00  0.00    +0.031 A 
ATOM     27  C   UNL     1      -3.450   3.311   4.667  0.00  0.00    +0.048 A 
ATOM     28  C   UNL     1      -3.294   4.259   5.667  0.00  0.00    +0.130 A 
ATOM     29  C   UNL     1      -2.510   5.382   5.443  0.00  0.00    +0.048 A 
ATOM     30  C   UNL     1      -1.883   5.555   4.225  0.00  0.00    +0.031 A 
BRANCH  28  31
ATOM     31  O   UNL     1      -3.910   4.089   6.867  0.00  0.00    -0.406 OA
BRANCH  31  32
ATOM     32  C   UNL     1      -4.703   2.911   7.028  0.00  0.00    +0.575 C 
ATOM     33  F   UNL     1      -3.897   1.780   6.855  0.00  0.00    -0.133 F 
ATOM     34  F   UNL     1      -5.260   2.895   8.311  0.00  0.00    -0.133 F 
ATOM     35  F   UNL     1      -5.727   2.904   6.075  0.00  0.00    -0.133 F 
ENDBRANCH  31  32
ENDBRANCH  28  31
ENDBRANCH  24  25
ENDBRANCH  19  20
ENDBRANCH   2  19
TORSDOF 8
