REMARK  Name = ZINC58552552
REMARK  6 active torsions:
REMARK  status: ('A' for Active; 'I' for Inactive)
REMARK    1  A    between atoms: C_1  and  C_2
REMARK    2  A    between atoms: C_2  and  C_4
REMARK    3  A    between atoms: C_2  and  N_9
REMARK    4  A    between atoms: N_6  and  C_7
REMARK    5  A    between atoms: N_6  and  C_8
REMARK    6  A    between atoms: N_9  and  C_10
REMARK                            x       y       z     vdW  Elec       q    Type
REMARK                         _______ _______ _______ _____ _____    ______ ____
ROOT
ATOM      1  C   UNL     1      -2.077  -0.648  -1.189  0.00  0.00    +0.031 A 
ATOM      2  C   UNL     1      -1.471  -0.308  -2.391  0.00  0.00    +0.027 A 
ATOM      3  C   UNL     1      -2.166  -0.443  -3.579  0.00  0.00    +0.051 A 
ATOM      4  C   UNL     1      -3.467  -0.917  -3.572  0.00  0.00    +0.173 A 
ATOM      5  C   UNL     1      -4.077  -1.259  -2.368  0.00  0.00    +0.174 A 
ATOM      6  C   UNL     1      -3.379  -1.128  -1.179  0.00  0.00    +0.072 A 
ATOM      7  O   UNL     1      -5.345  -1.693  -2.629  0.00  0.00    -0.395 OA
ATOM      8  C   UNL     1      -5.645  -1.229  -3.958  0.00  0.00    +0.589 C 
ATOM      9  O   UNL     1      -4.354  -1.138  -4.588  0.00  0.00    -0.395 OA
ATOM     10  F   UNL     1      -6.260   0.027  -3.913  0.00  0.00    -0.125 F 
ATOM     11  F   UNL     1      -6.456  -2.151  -4.629  0.00  0.00    -0.125 F 
ENDROOT
BRANCH   1  12
ATOM     12  N   UNL     1      -1.372  -0.511   0.012  0.00  0.00    -0.333 N 
ATOM     13  H   UNL     1      -1.794  -0.752   0.852  0.00  0.00    +0.147 HD
BRANCH  12  15
ATOM     14  C   UNL     1      -0.019   1.526   0.010  0.00  0.00    +0.038 C 
ATOM     15  C   UNL     1       0.002  -0.004   0.002  0.00  0.00    +0.154 C 
BRANCH  15  16
ATOM     16  C   UNL     1       0.731  -0.503   1.223  0.00  0.00    +0.235 C 
ATOM     17  O   UNL     1       0.159  -1.213   2.023  0.00  0.00    -0.274 OA
ATOM     18  N   UNL     1       2.019  -0.161   1.426  0.00  0.00    -0.306 N 
ATOM     19  C   UNL     1       2.727  -0.647   2.613  0.00  0.00    +0.131 C 
ATOM     20  C   UNL     1       2.710   0.696   0.459  0.00  0.00    +0.131 C 
ENDBRANCH  15  16
ENDBRANCH  12  15
ENDBRANCH   1  12
TORSDOF 3
