REMARK  Name = ZINC64343474
REMARK  8 active torsions:
REMARK  status: ('A' for Active; 'I' for Inactive)
REMARK    1  A    between atoms: C_7  and  C_10
REMARK    2  A    between atoms: C_10  and  C_11
REMARK    3  A    between atoms: C_11  and  C_13
REMARK    4  A    between atoms: C_11  and  N_25
REMARK    5  A    between atoms: N_15  and  N_16
REMARK    6  A    between atoms: C_17  and  C_19
REMARK    7  A    between atoms: N_21  and  C_22
REMARK    8  A    between atoms: C_26  and  C_28
REMARK                            x       y       z     vdW  Elec       q    Type
REMARK                         _______ _______ _______ _____ _____    ______ ____
ROOT
ATOM      1  C   UNL     1       0.457  -3.653  -1.462  0.00  0.00    +0.165 C 
ENDROOT
BRANCH   1   2
ATOM      2  C   UNL     1      -0.385  -4.904  -1.452  0.00  0.00    +0.250 C 
ATOM      3  O   UNL     1      -1.574  -4.836  -1.679  0.00  0.00    -0.272 OA
ATOM      4  N   UNL     1       0.185  -6.097  -1.193  0.00  0.00    -0.232 N 
ATOM      5  H   UNL     1       1.136  -6.151  -1.011  0.00  0.00    +0.173 HD
BRANCH   4   6
ATOM      6  N   UNL     1      -0.597  -7.260  -1.184  0.00  0.00    -0.227 N 
ATOM      7  C   UNL     1      -0.028  -8.453  -0.924  0.00  0.00    +0.315 C 
ATOM      8  O   UNL     1       1.163  -8.521  -0.697  0.00  0.00    -0.264 OA
ATOM      9  H   UNL     1      -1.549  -7.205  -1.365  0.00  0.00    +0.173 HD
BRANCH   7  10
ATOM     10  C   UNL     1      -0.862  -9.693  -0.915  0.00  0.00    +0.301 C 
ATOM     11  O   UNL     1      -2.052  -9.625  -1.142  0.00  0.00    -0.265 OA
ATOM     12  N   UNL     1      -0.292 -10.887  -0.655  0.00  0.00    -0.305 N 
ATOM     13  H   UNL     1       0.659 -10.941  -0.474  0.00  0.00    +0.149 HD
BRANCH  12  14
ATOM     14  C   UNL     1      -1.110 -12.102  -0.646  0.00  0.00    +0.073 C 
ATOM     15  C   UNL     1      -0.876 -13.103   0.487  0.00  0.00    +0.024 C 
ATOM     16  C   UNL     1      -0.406 -13.430  -0.932  0.00  0.00    +0.024 C 
ENDBRANCH  12  14
ENDBRANCH   7  10
ENDBRANCH   4   6
ENDBRANCH   1   2
BRANCH   1  17
ATOM     17  N   UNL     1      -0.238  -2.603  -2.210  0.00  0.00    -0.300 N 
ATOM     18  C   UNL     1      -1.451  -2.176  -1.805  0.00  0.00    +0.246 C 
ATOM     19  O   UNL     1      -1.968  -2.663  -0.819  0.00  0.00    -0.270 OA
ATOM     20  H   UNL     1       0.175  -2.214  -2.997  0.00  0.00    +0.150 HD
BRANCH  18  21
ATOM     21  C   UNL     1      -2.151  -1.117  -2.560  0.00  0.00    +0.055 A 
ATOM     22  C   UNL     1      -1.563  -0.559  -3.697  0.00  0.00    +0.014 A 
ATOM     23  C   UNL     1      -2.222   0.429  -4.397  0.00  0.00    +0.001 A 
ATOM     24  C   UNL     1      -3.465   0.869  -3.975  0.00  0.00    +0.001 A 
ATOM     25  C   UNL     1      -4.055   0.323  -2.851  0.00  0.00    +0.021 A 
ATOM     26  C   UNL     1      -3.409  -0.672  -2.143  0.00  0.00    +0.053 A 
ATOM     27 CL   UNL     1      -4.153  -1.363  -0.735  0.00  0.00    -0.083 Cl
ENDBRANCH  18  21
ENDBRANCH   1  17
BRANCH   1  28
ATOM     28  C   UNL     1       0.691  -3.186  -0.024  0.00  0.00    +0.065 C 
BRANCH  28  35
ATOM     29  C   UNL     1      -0.016   1.348   0.009  0.00  0.00    +0.001 A 
ATOM     30  C   UNL     1       1.166   2.101   0.002  0.00  0.00    +0.002 A 
ATOM     31  C   UNL     1       2.391   1.535  -0.013  0.00  0.00    +0.026 A 
ATOM     32  C   UNL     1       2.529   0.120  -0.022  0.00  0.00    +0.043 A 
ATOM     33  N   UNL     1       3.587  -0.654  -0.037  0.00  0.00    -0.380 N 
ATOM     34  C   UNL     1       3.143  -2.053  -0.041  0.00  0.00    +0.144 C 
ATOM     35  C   UNL     1       1.631  -2.008  -0.025  0.00  0.00    -0.039 C 
ATOM     36  C   UNL     1       1.295  -0.698  -0.014  0.00  0.00    -0.001 A 
ATOM     37  C   UNL     1       0.002  -0.004   0.002  0.00  0.00    +0.010 A 
ATOM     38  H   UNL     1       4.509  -0.353  -0.045  0.00  0.00    +0.160 HD
ENDBRANCH  28  35
ENDBRANCH   1  28
TORSDOF 8
