REMARK  Name = ZINC09177059
REMARK  5 active torsions:
REMARK  status: ('A' for Active; 'I' for Inactive)
REMARK    1  A    between atoms: C_1  and  O_2
REMARK    2  A    between atoms: O_2  and  C_3
REMARK    3  A    between atoms: C_6  and  C_8
REMARK    4  A    between atoms: C_12  and  N_13
REMARK    5  A    between atoms: C_14  and  C_16
REMARK                            x       y       z     vdW  Elec       q    Type
REMARK                         _______ _______ _______ _____ _____    ______ ____
ROOT
ATOM      1  C   UNL     1       7.354  -3.035   3.937  0.00  0.00    +0.069 A 
ATOM      2  C   UNL     1       8.716  -2.883   4.432  0.00  0.00    -0.023 A 
ATOM      3  C   UNL     1       9.246  -1.652   4.270  0.00  0.00    -0.004 A 
ATOM      4  S   UNL     1       7.979  -0.712   3.462  0.00  0.00    -0.077 S 
ATOM      5  C   UNL     1       6.756  -1.933   3.345  0.00  0.00    +0.085 A 
ATOM      6  C   UNL     1      10.601  -1.177   4.692  0.00  0.00    +0.043 C 
ATOM      7  C   UNL     1      11.661  -2.184   4.224  0.00  0.00    +0.005 C 
ATOM      8  C   UNL     1      11.848  -3.230   5.319  0.00  0.00    +0.001 C 
ATOM      9  C   UNL     1      10.527  -3.471   6.046  0.00  0.00    +0.005 C 
ATOM     10  C   UNL     1       9.483  -4.027   5.084  0.00  0.00    +0.037 C 
ENDROOT
BRANCH   1  14
ATOM     11  C   UNL     1       5.242  -5.738   5.261  0.00  0.00    +0.407 C 
ATOM     12  O   UNL     1       5.324  -6.565   4.375  0.00  0.00    -0.226 OA
ATOM     13  N   UNL     1       5.896  -4.565   5.151  0.00  0.00    -0.217 N 
ATOM     14  C   UNL     1       6.642  -4.310   4.057  0.00  0.00    +0.255 C 
ATOM     15  O   UNL     1       6.725  -5.139   3.170  0.00  0.00    -0.270 OA
ATOM     16  H   UNL     1       5.831  -3.904   5.858  0.00  0.00    +0.161 HD
BRANCH  11  18
ATOM     17  C   UNL     1       3.819  -7.276   6.404  0.00  0.00    +0.282 C 
ATOM     18  O   UNL     1       4.496  -5.992   6.353  0.00  0.00    -0.453 OA
ENDBRANCH  11  18
ENDBRANCH   1  14
BRANCH   5  19
ATOM     19  N   UNL     1       5.488  -1.831   2.798  0.00  0.00    -0.275 N 
ATOM     20  C   UNL     1       5.075  -0.663   2.266  0.00  0.00    +0.249 C 
ATOM     21  O   UNL     1       5.816   0.301   2.267  0.00  0.00    -0.270 OA
ATOM     22  H   UNL     1       4.897  -2.600   2.797  0.00  0.00    +0.156 HD
BRANCH  20  23
ATOM     23  C   UNL     1       3.724  -0.555   1.684  0.00  0.00    +0.041 A 
ATOM     24  C   UNL     1       2.871  -1.661   1.682  0.00  0.00    +0.017 A 
ATOM     25  C   UNL     1       1.609  -1.558   1.138  0.00  0.00    +0.050 A 
ATOM     26  C   UNL     1       1.181  -0.357   0.590  0.00  0.00    +0.166 A 
ATOM     27  C   UNL     1       2.028   0.752   0.588  0.00  0.00    +0.167 A 
ATOM     28  C   UNL     1       3.294   0.655   1.132  0.00  0.00    +0.062 A 
ATOM     29  O   UNL     1       1.376   1.797  -0.001  0.00  0.00    -0.453 OA
ATOM     30  C   UNL     1      -0.017   1.435   0.010  0.00  0.00    +0.466 C 
ATOM     31  O   UNL     1       0.002  -0.004   0.002  0.00  0.00    -0.453 OA
ENDBRANCH  20  23
ENDBRANCH   5  19
TORSDOF 4
