REMARK  Name = ZINC26944936
REMARK  9 active torsions:
REMARK  status: ('A' for Active; 'I' for Inactive)
REMARK    1  A    between atoms: C_1  and  C_2
REMARK    2  A    between atoms: C_5  and  C_9
REMARK    3  A    between atoms: C_6  and  O_8
REMARK    4  A    between atoms: N_14  and  S_17
REMARK    5  A    between atoms: S_17  and  C_20
REMARK    6  A    between atoms: C_21  and  C_29
REMARK    7  A    between atoms: C_22  and  C_28
REMARK    8  A    between atoms: C_24  and  C_27
REMARK    9  A    between atoms: C_25  and  C_26
REMARK                            x       y       z     vdW  Elec       q    Type
REMARK                         _______ _______ _______ _____ _____    ______ ____
ROOT
ATOM      1  C   UNL     1      -0.320  -0.307  -3.288  0.00  0.00    +0.250 C 
ATOM      2  O   UNL     1      -0.285  -1.496  -3.039  0.00  0.00    -0.270 OA
ATOM      3  N   UNL     1       0.186   0.581  -2.410  0.00  0.00    -0.295 N 
ATOM      4  C   UNL     1       0.711   0.133  -1.112  0.00  0.00    +0.125 C 
ATOM      5  C   UNL     1      -0.007   0.903   0.003  0.00  0.00    +0.128 C 
ATOM      6  N   UNL     1       0.026   2.337  -0.321  0.00  0.00    -0.174 NA
ATOM      7  C   UNL     1      -0.499   2.785  -1.619  0.00  0.00    +0.128 C 
ATOM      8  C   UNL     1       0.222   2.014  -2.732  0.00  0.00    +0.125 C 
ENDROOT
BRANCH   1  13
ATOM      9  C   UNL     1      -2.638   1.534  -8.225  0.00  0.00    +0.044 C 
ATOM     10  C   UNL     1      -2.035   1.051  -6.931  0.00  0.00    -0.047 A 
ATOM     11  C   UNL     1      -0.735   1.403  -6.603  0.00  0.00    +0.004 A 
ATOM     12  C   UNL     1      -0.173   0.966  -5.424  0.00  0.00    +0.017 A 
ATOM     13  C   UNL     1      -0.916   0.165  -4.553  0.00  0.00    +0.078 A 
ATOM     14  C   UNL     1      -2.228  -0.194  -4.891  0.00  0.00    +0.129 A 
ATOM     15  C   UNL     1      -2.780   0.259  -6.080  0.00  0.00    +0.049 A 
BRANCH  14  16
ATOM     16  O   UNL     1      -2.957  -0.977  -4.056  0.00  0.00    -0.506 OA
ATOM     17  H   UNL     1      -3.986  -1.256  -4.324  0.00  0.00    +0.292 HD
ENDBRANCH  14  16
ENDBRANCH   1  13
BRANCH   6  18
ATOM     18  S   UNL     1       0.647   3.428   0.759  0.00  0.00    +0.061 S 
ATOM     19  O   UNL     1       1.540   2.706   1.597  0.00  0.00    -0.153 OA
ATOM     20  O   UNL     1       1.058   4.559   0.003  0.00  0.00    -0.153 OA
BRANCH  18  21
ATOM     21  C   UNL     1      -0.683   3.963   1.782  0.00  0.00    +0.112 A 
ATOM     22  C   UNL     1      -0.906   3.353   3.002  0.00  0.00    -0.021 A 
ATOM     23  C   UNL     1      -1.947   3.776   3.807  0.00  0.00    -0.045 A 
ATOM     24  C   UNL     1      -2.772   4.802   3.388  0.00  0.00    +0.007 A 
ATOM     25  C   UNL     1      -2.553   5.410   2.165  0.00  0.00    -0.045 A 
ATOM     26  C   UNL     1      -1.509   4.990   1.363  0.00  0.00    -0.021 A 
ATOM     27  C   UNL     1      -1.270   5.651   0.030  0.00  0.00    +0.046 C 
ATOM     28  C   UNL     1      -3.452   6.529   1.708  0.00  0.00    +0.044 C 
ATOM     29  C   UNL     1      -2.186   3.114   5.140  0.00  0.00    +0.044 C 
ATOM     30  C   UNL     1      -0.010   2.229   3.458  0.00  0.00    +0.046 C 
ENDBRANCH  18  21
ENDBRANCH   6  18
TORSDOF 4
