REMARK  Name = ZINC09934826
REMARK  5 active torsions:
REMARK  status: ('A' for Active; 'I' for Inactive)
REMARK    1  A    between atoms: C_1  and  N_36
REMARK    2  A    between atoms: C_7  and  N_11
REMARK    3  A    between atoms: C_8  and  C_9
REMARK    4  A    between atoms: C_12  and  C_13
REMARK    5  A    between atoms: C_17  and  N_19
REMARK                            x       y       z     vdW  Elec       q    Type
REMARK                         _______ _______ _______ _____ _____    ______ ____
ROOT
ATOM      1  C   UNL     1       1.965  11.923   0.255  0.00  0.00    -0.096 C 
ATOM      2  C   UNL     1       3.559  10.232  -0.428  0.00  0.00    -0.074 C 
ATOM      3  C   UNL     1       4.194   8.909   0.005  0.00  0.00    +0.019 C 
ATOM      4  C   UNL     1       3.105   7.837   0.014  0.00  0.00    -0.021 A 
ATOM      5  C   UNL     1       1.799   8.210   0.030  0.00  0.00    -0.020 A 
ATOM      6  S   UNL     1       0.899   6.684   0.021  0.00  0.00    -0.075 S 
ATOM      7  C   UNL     1       2.294   5.569   0.010  0.00  0.00    +0.119 A 
ATOM      8  C   UNL     1       3.374   6.460   0.004  0.00  0.00    +0.088 A 
ATOM      9  C   UNL     1       1.268   9.608   0.045  0.00  0.00    -0.036 C 
ATOM     10  N   UNL     1       2.382  10.513   0.419  0.00  0.00    +0.381 N 
ATOM     11  H   UNL     1       2.630  10.350   1.402  0.00  0.00    -0.082 HD
ENDROOT
BRANCH   8  12
ATOM     12  C   UNL     1       4.722   5.977  -0.010  0.00  0.00    +0.102 C 
ATOM     13  N   UNL     1       5.792   5.594  -0.021  0.00  0.00    -0.191 NA
ENDBRANCH   8  12
BRANCH   7  14
ATOM     14  N   UNL     1       2.304   4.218   0.003  0.00  0.00    -0.246 NA
ATOM     15  C   UNL     1       1.177   3.556   0.010  0.00  0.00    +0.123 C 
BRANCH  15  16
ATOM     16  C   UNL     1       1.188   2.088   0.002  0.00  0.00    +0.043 A 
ATOM     17  C   UNL     1      -0.017   1.374   0.010  0.00  0.00    +0.028 A 
ATOM     18  C   UNL     1       0.002  -0.004   0.002  0.00  0.00    +0.021 A 
ATOM     19  C   UNL     1       1.208  -0.687  -0.013  0.00  0.00    +0.052 A 
ATOM     20  C   UNL     1       2.404   0.004  -0.021  0.00  0.00    +0.174 A 
ATOM     21  C   UNL     1       2.406   1.390  -0.014  0.00  0.00    +0.218 A 
ATOM     22 BR   UNL     1      -1.625  -0.968   0.012  0.00  0.00    -0.050 Br
ATOM     23  O   UNL     1       3.581   2.070  -0.021  0.00  0.00    -0.285 OA
BRANCH  20  24
ATOM     24  N   UNL     1       3.686  -0.736  -0.038  0.00  0.00    +0.060 N 
ATOM     25  O   UNL     1       3.685  -1.954  -0.044  0.00  0.00    -0.126 OA
ATOM     26  O   UNL     1       4.741  -0.127  -0.045  0.00  0.00    -0.126 OA
ENDBRANCH  20  24
ENDBRANCH  15  16
ENDBRANCH   7  14
TORSDOF 4
