REMARK  Name = ZINC09077525
REMARK  9 active torsions:
REMARK  status: ('A' for Active; 'I' for Inactive)
REMARK    1  A    between atoms: C_1  and  O_2
REMARK    2  A    between atoms: O_2  and  C_3
REMARK    3  A    between atoms: C_3  and  C_5
REMARK    4  A    between atoms: C_5  and  N_6
REMARK    5  A    between atoms: C_10  and  S_30
REMARK    6  A    between atoms: N_15  and  C_16
REMARK    7  A    between atoms: C_16  and  C_18
REMARK    8  A    between atoms: C_22  and  N_27
REMARK    9  A    between atoms: S_30  and  N_33
REMARK                            x       y       z     vdW  Elec       q    Type
REMARK                         _______ _______ _______ _____ _____    ______ ____
ROOT
ATOM      1  N   UNL     1      -1.570   2.002   0.191  0.00  0.00    -0.310 N 
ATOM      2  C   UNL     1      -0.526   1.220   0.652  0.00  0.00    +0.058 A 
ATOM      3  C   UNL     1       0.762   1.643   1.023  0.00  0.00    +0.029 A 
ATOM      4  C   UNL     1       1.698   0.743   1.471  0.00  0.00    +0.030 A 
ATOM      5  C   UNL     1       1.406  -0.607   1.573  0.00  0.00    +0.106 A 
ATOM      6  C   UNL     1       0.146  -1.053   1.214  0.00  0.00    +0.045 A 
ATOM      7  C   UNL     1      -0.791  -0.153   0.766  0.00  0.00    +0.041 A 
ATOM      8  S   UNL     1      -2.476  -0.293   0.220  0.00  0.00    -0.052 S 
ATOM      9  C   UNL     1      -2.765   1.433  -0.132  0.00  0.00    +0.167 A 
ATOM     10  N   UNL     1      -3.868   2.015  -0.589  0.00  0.00    -0.152 NA
ENDROOT
BRANCH   5  11
ATOM     11  S   UNL     1       2.624  -1.742   2.151  0.00  0.00    +0.056 S 
ATOM     12  O   UNL     1       3.540  -0.991   2.935  0.00  0.00    -0.153 OA
ATOM     13  O   UNL     1       1.920  -2.864   2.667  0.00  0.00    -0.153 OA
BRANCH  11  14
ATOM     14  N   UNL     1       3.462  -2.277   0.827  0.00  0.00    -0.204 NA
ATOM     15  H   UNL     1       4.393  -2.536   0.914  0.00  0.00    +0.144 HD
ATOM     16  H   UNL     1       3.022  -2.332  -0.036  0.00  0.00    +0.144 HD
ENDBRANCH  11  14
ENDBRANCH   5  11
BRANCH  10  17
ATOM     17  C   UNL     1      -4.956   1.279  -0.847  0.00  0.00    +0.276 C 
ATOM     18  O   UNL     1      -4.935   0.074  -0.662  0.00  0.00    -0.267 OA
BRANCH  17  19
ATOM     19  C   UNL     1      -6.180   1.925  -1.353  0.00  0.00    +0.077 A 
ATOM     20  C   UNL     1      -7.370   1.353  -1.670  0.00  0.00    +0.029 A 
ATOM     21  C   UNL     1      -8.429   2.150  -2.143  0.00  0.00    -0.008 A 
ATOM     22  C   UNL     1      -9.734   1.742  -2.522  0.00  0.00    +0.041 A 
ATOM     23  C   UNL     1     -10.645   2.648  -2.962  0.00  0.00    +0.127 A 
ATOM     24  C   UNL     1     -10.339   4.000  -3.058  0.00  0.00    +0.034 A 
ATOM     25  C   UNL     1      -9.081   4.440  -2.700  0.00  0.00    +0.018 A 
ATOM     26  C   UNL     1      -8.146   3.532  -2.251  0.00  0.00    +0.020 A 
ATOM     27  S   UNL     1      -6.465   3.653  -1.695  0.00  0.00    -0.084 S 
BRANCH  23  28
ATOM     28  N   UNL     1     -11.996   2.184  -3.349  0.00  0.00    +0.056 N 
ATOM     29  O   UNL     1     -12.824   2.984  -3.745  0.00  0.00    -0.126 OA
ATOM     30  O   UNL     1     -12.280   1.002  -3.270  0.00  0.00    -0.126 OA
ENDBRANCH  23  28
ENDBRANCH  17  19
ENDBRANCH  10  17
BRANCH   1  31
ATOM     31  C   UNL     1      -1.386   3.448   0.040  0.00  0.00    +0.244 C 
BRANCH  31  32
ATOM     32  C   UNL     1      -2.043   3.907  -1.236  0.00  0.00    +0.327 C 
ATOM     33  O   UNL     1      -2.460   3.095  -2.027  0.00  0.00    -0.249 OA
BRANCH  32  35
ATOM     34  C   UNL     1      -2.809   5.589  -2.741  0.00  0.00    +0.280 C 
ATOM     35  O   UNL     1      -2.166   5.219  -1.493  0.00  0.00    -0.467 OA
ENDBRANCH  32  35
ENDBRANCH  31  32
ENDBRANCH   1  31
TORSDOF 8
