REMARK  Name = ZINC36545432
REMARK  11 active torsions:
REMARK  status: ('A' for Active; 'I' for Inactive)
REMARK    1  A    between atoms: C_1  and  C_2
REMARK    2  A    between atoms: C_2  and  C_3
REMARK    3  A    between atoms: C_2  and  C_4
REMARK    4  A    between atoms: C_2  and  N_5
REMARK    5  A    between atoms: C_6  and  C_8
REMARK    6  A    between atoms: C_8  and  C_10
REMARK    7  A    between atoms: C_8  and  N_15
REMARK    8  A    between atoms: N_15  and  C_16
REMARK    9  A    between atoms: C_23  and  C_25
REMARK   10  A    between atoms: C_29  and  O_32
REMARK   11  A    between atoms: C_30  and  O_31
REMARK                            x       y       z     vdW  Elec       q    Type
REMARK                         _______ _______ _______ _____ _____    ______ ____
ROOT
ATOM      1  N   UNL     1       3.986   0.019  -2.710  0.00  0.00    -0.247 N 
ATOM      2  C   UNL     1       4.295   0.851  -3.725  0.00  0.00    +0.256 C 
ATOM      3  O   UNL     1       3.510   1.012  -4.639  0.00  0.00    -0.269 OA
ENDROOT
BRANCH   1   4
ATOM      4  C   UNL     1       4.930  -0.248  -1.713  0.00  0.00    +0.056 A 
ATOM      5  C   UNL     1       4.938   0.500  -0.543  0.00  0.00    +0.025 A 
ATOM      6  C   UNL     1       5.871   0.232   0.440  0.00  0.00    +0.002 A 
ATOM      7  C   UNL     1       6.798  -0.779   0.260  0.00  0.00    +0.002 A 
ATOM      8  C   UNL     1       6.793  -1.526  -0.903  0.00  0.00    +0.022 A 
ATOM      9  C   UNL     1       5.859  -1.268  -1.888  0.00  0.00    +0.062 A 
ATOM     10 CL   UNL     1       5.849  -2.210  -3.346  0.00  0.00    -0.082 Cl
ENDBRANCH   1   4
BRANCH   2  11
ATOM     11  C   UNL     1       5.586   1.564  -3.727  0.00  0.00    +0.082 A 
ATOM     12  C   UNL     1       5.974   2.317  -2.614  0.00  0.00    +0.017 A 
ATOM     13  C   UNL     1       7.181   2.982  -2.619  0.00  0.00    +0.005 A 
ATOM     14  C   UNL     1       8.014   2.911  -3.724  0.00  0.00    +0.049 A 
ATOM     15  C   UNL     1       7.644   2.170  -4.833  0.00  0.00    +0.159 A 
ATOM     16  C   UNL     1       6.431   1.487  -4.840  0.00  0.00    +0.171 A 
BRANCH  16  17
ATOM     17  O   UNL     1       6.066   0.755  -5.923  0.00  0.00    -0.503 OA
ATOM     18  H   UNL     1       5.567   1.254  -6.585  0.00  0.00    +0.292 HD
ENDBRANCH  16  17
BRANCH  15  19
ATOM     19  O   UNL     1       8.467   2.105  -5.913  0.00  0.00    -0.503 OA
ATOM     20  H   UNL     1       9.100   1.375  -5.883  0.00  0.00    +0.292 HD
ENDBRANCH  15  19
ENDBRANCH   2  11
BRANCH   1  21
ATOM     21  C   UNL     1       2.661  -0.603  -2.650  0.00  0.00    +0.233 C 
BRANCH  21  22
ATOM     22  C   UNL     1       2.814  -2.095  -2.499  0.00  0.00    +0.135 A 
ATOM     23  C   UNL     1       2.067  -3.029  -3.116  0.00  0.00    +0.047 A 
ATOM     24  C   UNL     1       2.550  -4.287  -2.688  0.00  0.00    +0.041 A 
ATOM     25  C   UNL     1       3.563  -4.047  -1.836  0.00  0.00    +0.195 A 
ATOM     26  O   UNL     1       3.722  -2.717  -1.730  0.00  0.00    -0.465 OA
ENDBRANCH  21  22
BRANCH  21  28
ATOM     27  N   UNL     1       0.616  -0.411  -1.273  0.00  0.00    -0.309 N 
ATOM     28  C   UNL     1       1.900  -0.054  -1.471  0.00  0.00    +0.242 C 
ATOM     29  O   UNL     1       2.443   0.710  -0.701  0.00  0.00    -0.273 OA
ATOM     30  H   UNL     1       0.181  -1.021  -1.889  0.00  0.00    +0.149 HD
BRANCH  27  32
ATOM     31  C   UNL     1      -0.175   1.650  -0.219  0.00  0.00    +0.031 C 
ATOM     32  C   UNL     1      -0.124   0.123  -0.127  0.00  0.00    +0.026 C 
ATOM     33  C   UNL     1       0.578  -0.286   1.170  0.00  0.00    +0.031 C 
ATOM     34  C   UNL     1      -1.548  -0.436  -0.134  0.00  0.00    +0.031 C 
ENDBRANCH  27  32
ENDBRANCH  21  28
ENDBRANCH   1  21
TORSDOF 8
