REMARK  Name = ZINC09300765
REMARK  10 active torsions:
REMARK  status: ('A' for Active; 'I' for Inactive)
REMARK    1  A    between atoms: C_1  and  C_2
REMARK    2  A    between atoms: C_2  and  O_3
REMARK    3  A    between atoms: O_3  and  C_4
REMARK    4  A    between atoms: C_4  and  C_6
REMARK    5  A    between atoms: C_7  and  C_32
REMARK    6  A    between atoms: C_10  and  C_31
REMARK    7  A    between atoms: C_11  and  S_12
REMARK    8  A    between atoms: S_12  and  N_15
REMARK    9  A    between atoms: C_19  and  C_22
REMARK   10  A    between atoms: N_24  and  C_25
REMARK                            x       y       z     vdW  Elec       q    Type
REMARK                         _______ _______ _______ _____ _____    ______ ____
ROOT
ATOM      1  S   UNL     1      -4.978   1.435  -0.927  0.00  0.00    +0.063 S 
ATOM      2  O   UNL     1      -5.781   2.606  -0.881  0.00  0.00    -0.153 OA
ATOM      3  O   UNL     1      -4.376   0.970  -2.128  0.00  0.00    -0.153 OA
ENDROOT
BRANCH   1   9
ATOM      4  C   UNL     1      -7.135   0.229   0.572  0.00  0.00    +0.106 A 
ATOM      5  C   UNL     1      -7.587  -1.058   0.770  0.00  0.00    +0.029 A 
ATOM      6  N   UNL     1      -6.793  -1.895   0.076  0.00  0.00    -0.360 N 
ATOM      7  H   UNL     1      -6.896  -2.859   0.045  0.00  0.00    +0.165 HD
ATOM      8  C   UNL     1      -5.827  -1.194  -0.585  0.00  0.00    +0.041 A 
ATOM      9  C   UNL     1      -5.975   0.116  -0.320  0.00  0.00    +0.140 A 
ATOM     10  C   UNL     1      -4.762  -1.792  -1.468  0.00  0.00    +0.065 C 
ATOM     11  C   UNL     1      -8.766  -1.460   1.619  0.00  0.00    +0.064 C 
BRANCH   4  12
ATOM     12  C   UNL     1      -7.700   1.463   1.138  0.00  0.00    +0.343 C 
ATOM     13  O   UNL     1      -8.566   2.067   0.536  0.00  0.00    -0.245 OA
BRANCH  12  14
ATOM     14  O   UNL     1      -7.257   1.925   2.325  0.00  0.00    -0.461 OA
BRANCH  14  16
ATOM     15  C   UNL     1      -7.234   3.513   4.170  0.00  0.00    +0.048 C 
ATOM     16  C   UNL     1      -7.859   3.148   2.823  0.00  0.00    +0.229 C 
ENDBRANCH  14  16
ENDBRANCH  12  14
ENDBRANCH   4  12
ENDBRANCH   1   9
BRANCH   1  17
ATOM     17  N   UNL     1      -3.749   1.662   0.160  0.00  0.00    -0.176 NA
ATOM     18  C   UNL     1      -3.907   2.594   1.285  0.00  0.00    +0.109 C 
ATOM     19  C   UNL     1      -2.740   3.586   1.270  0.00  0.00    +0.018 C 
ATOM     20  C   UNL     1      -1.419   2.813   1.276  0.00  0.00    +0.015 C 
ATOM     21  C   UNL     1      -1.330   1.944   0.019  0.00  0.00    +0.091 C 
ATOM     22  C   UNL     1      -2.481   0.934   0.019  0.00  0.00    +0.122 C 
BRANCH  21  23
ATOM     23  C   UNL     1      -0.014   1.209   0.009  0.00  0.00    +0.218 C 
ATOM     24  O   UNL     1       0.002  -0.004   0.002  0.00  0.00    -0.275 OA
ATOM     25  N   UNL     1       1.143   1.898   0.001  0.00  0.00    -0.312 N 
ATOM     26  H   UNL     1       1.130   2.868   0.007  0.00  0.00    +0.149 HD
BRANCH  25  27
ATOM     27  C   UNL     1       2.422   1.183  -0.015  0.00  0.00    +0.073 C 
ATOM     28  C   UNL     1       2.819   0.817   1.417  0.00  0.00    +0.022 C 
ATOM     29  C   UNL     1       4.155   0.070   1.400  0.00  0.00    +0.002 C 
ATOM     30  C   UNL     1       5.232   0.965   0.785  0.00  0.00    +0.000 C 
ATOM     31  C   UNL     1       4.835   1.332  -0.647  0.00  0.00    +0.002 C 
ATOM     32  C   UNL     1       3.499   2.078  -0.630  0.00  0.00    +0.022 C 
ENDBRANCH  25  27
ENDBRANCH  21  23
ENDBRANCH   1  17
TORSDOF 7
