REMARK  Name = ZINC39710628
REMARK  14 active torsions:
REMARK  status: ('A' for Active; 'I' for Inactive)
REMARK    1  A    between atoms: C_1  and  C_2
REMARK    2  A    between atoms: C_7  and  C_14
REMARK    3  A    between atoms: C_14  and  C_16
REMARK    4  A    between atoms: C_14  and  N_25
REMARK    5  A    between atoms: N_20  and  C_21
REMARK    6  A    between atoms: C_21  and  C_22
REMARK    7  A    between atoms: C_22  and  O_23
REMARK    8  A    between atoms: O_23  and  C_24
REMARK    9  A    between atoms: N_25  and  C_26
REMARK   10  A    between atoms: N_25  and  C_35
REMARK   11  A    between atoms: C_26  and  C_27
REMARK   12  A    between atoms: C_30  and  O_33
REMARK   13  A    between atoms: O_33  and  C_34
REMARK   14  A    between atoms: C_35  and  C_36
REMARK                            x       y       z     vdW  Elec       q    Type
REMARK                         _______ _______ _______ _____ _____    ______ ____
ROOT
ATOM      1  C   UNL     1       2.125  -5.599   2.114  0.00  0.00    +0.019 C 
ENDROOT
BRANCH   1   8
ATOM      2  C   UNL     1       0.422   0.543   6.061  0.00  0.00    +0.044 C 
ATOM      3  C   UNL     1       0.402  -0.694   5.200  0.00  0.00    -0.049 A 
ATOM      4  C   UNL     1      -0.372  -0.689   4.040  0.00  0.00    +0.004 A 
ATOM      5  C   UNL     1      -0.431  -1.773   3.224  0.00  0.00    +0.010 A 
ATOM      6  C   UNL     1       0.339  -2.966   3.580  0.00  0.00    -0.007 A 
ATOM      7  C   UNL     1       0.311  -4.077   2.791  0.00  0.00    -0.006 C 
ATOM      8  C   UNL     1       1.140  -5.266   3.236  0.00  0.00    +0.092 C 
ATOM      9  C   UNL     1       1.929  -5.123   4.518  0.00  0.00    +0.223 C 
ATOM     10  O   UNL     1       2.611  -6.046   4.921  0.00  0.00    -0.275 OA
ATOM     11  N   UNL     1       1.875  -3.990   5.198  0.00  0.00    -0.285 N 
ATOM     12  C   UNL     1       1.148  -2.942   4.811  0.00  0.00    +0.041 A 
ATOM     13  C   UNL     1       1.143  -1.766   5.583  0.00  0.00    +0.027 A 
ATOM     14  H   UNL     1       2.389  -3.919   6.018  0.00  0.00    +0.155 HD
ENDBRANCH   1   8
BRANCH   1  15
ATOM     15  C   UNL     1       3.073  -4.443   1.919  0.00  0.00    +0.139 A 
ATOM     16  N   UNL     1       4.053  -4.093   2.716  0.00  0.00    -0.115 NA
ATOM     17  N   UNL     1       4.630  -3.059   2.206  0.00  0.00    -0.023 NA
ATOM     18  N   UNL     1       4.043  -2.742   1.105  0.00  0.00    -0.044 NA
ATOM     19  N   UNL     1       3.081  -3.575   0.891  0.00  0.00    -0.229 N 
BRANCH  19  20
ATOM     20  C   UNL     1       2.167  -3.573  -0.254  0.00  0.00    +0.175 C 
BRANCH  20  21
ATOM     21  C   UNL     1       1.036  -2.574  -0.003  0.00  0.00    +0.183 C 
BRANCH  21  22
ATOM     22  O   UNL     1       0.096  -2.639  -1.076  0.00  0.00    -0.381 OA
ATOM     23  C   UNL     1      -1.007  -1.741  -0.939  0.00  0.00    +0.194 C 
ENDBRANCH  21  22
ENDBRANCH  20  21
ENDBRANCH  19  20
ENDBRANCH   1  15
BRANCH   1  24
ATOM     24  N   UNL     1       2.887  -6.802   2.471  0.00  0.00    +0.392 N 
ATOM     25  H   UNL     1       3.492  -6.598   3.253  0.00  0.00    -0.080 HD
BRANCH  24  26
ATOM     26  C   UNL     1       1.958  -7.879   2.840  0.00  0.00    -0.042 C 
BRANCH  26  27
ATOM     27  C   UNL     1       2.739  -9.073   3.324  0.00  0.00    -0.064 A 
ATOM     28  C   UNL     1       3.148 -10.041   2.426  0.00  0.00    +0.005 A 
ATOM     29  C   UNL     1       3.864 -11.137   2.867  0.00  0.00    +0.046 A 
ATOM     30  C   UNL     1       4.173 -11.265   4.213  0.00  0.00    +0.120 A 
ATOM     31  C   UNL     1       3.762 -10.293   5.113  0.00  0.00    +0.046 A 
ATOM     32  C   UNL     1       3.051  -9.196   4.666  0.00  0.00    +0.005 A 
BRANCH  30  33
ATOM     33  O   UNL     1       4.877 -12.343   4.650  0.00  0.00    -0.495 OA
ATOM     34  C   UNL     1       5.159 -12.410   6.049  0.00  0.00    +0.277 C 
ENDBRANCH  30  33
ENDBRANCH  26  27
ENDBRANCH  24  26
BRANCH  24  35
ATOM     35  C   UNL     1       3.698  -7.228   1.323  0.00  0.00    -0.040 C 
BRANCH  35  36
ATOM     36  C   UNL     1       4.795  -6.223   1.082  0.00  0.00    -0.046 A 
ATOM     37  C   UNL     1       4.761  -5.402  -0.035  0.00  0.00    +0.005 A 
ATOM     38  C   UNL     1       5.792  -4.492  -0.216  0.00  0.00    +0.020 A 
ATOM     39  C   UNL     1       6.811  -4.434   0.717  0.00  0.00    +0.111 A 
ATOM     40  N   UNL     1       6.810  -5.231   1.767  0.00  0.00    -0.263 NA
ATOM     41  C   UNL     1       5.843  -6.104   1.974  0.00  0.00    +0.112 A 
ENDBRANCH  35  36
ENDBRANCH  24  35
ENDBRANCH   1  24
TORSDOF 11
