REMARK  Name = ZINC19839176
REMARK  6 active torsions:
REMARK  status: ('A' for Active; 'I' for Inactive)
REMARK    1  A    between atoms: C_3  and  C_26
REMARK    2  A    between atoms: C_8  and  C_9
REMARK    3  A    between atoms: C_9  and  N_10
REMARK    4  A    between atoms: N_13  and  C_16
REMARK    5  A    between atoms: N_28  and  C_29
REMARK    6  A    between atoms: C_29  and  C_30
REMARK                            x       y       z     vdW  Elec       q    Type
REMARK                         _______ _______ _______ _____ _____    ______ ____
ROOT
ATOM      1  C   UNL     1      -0.548   2.205  -4.559  0.00  0.00    +0.023 A 
ATOM      2  C   UNL     1      -1.357   2.503  -5.656  0.00  0.00    +0.020 A 
ATOM      3  C   UNL     1      -2.626   1.933  -5.732  0.00  0.00    +0.101 A 
ATOM      4  C   UNL     1      -3.050   1.064  -4.693  0.00  0.00    +0.261 A 
ATOM      5  O   UNL     1      -4.155   0.553  -4.737  0.00  0.00    -0.267 OA
ATOM      6  N   UNL     1      -2.227   0.807  -3.659  0.00  0.00    -0.324 N 
ATOM      7  H   UNL     1      -2.552   0.134  -2.852  0.00  0.00    +0.169 HD
ATOM      8  C   UNL     1      -0.995   1.365  -3.591  0.00  0.00    +0.033 A 
ENDROOT
BRANCH   3   9
ATOM      9  C   UNL     1      -3.511   2.226  -6.870  0.00  0.00    +0.249 C 
ATOM     10  O   UNL     1      -3.181   3.052  -7.700  0.00  0.00    -0.270 OA
ATOM     11  N   UNL     1      -4.686   1.579  -6.994  0.00  0.00    -0.309 N 
ATOM     12  H   UNL     1      -5.023   0.894  -6.202  0.00  0.00    +0.149 HD
BRANCH  11  13
ATOM     13  C   UNL     1      -5.516   1.787  -8.184  0.00  0.00    +0.136 C 
BRANCH  13  14
ATOM     14  C   UNL     1      -6.786   0.941  -8.074  0.00  0.00    +0.135 C 
ATOM     15  C   UNL     1      -7.617   1.048  -9.373  0.00  0.00    +0.035 C 
ATOM     16  C   UNL     1      -9.082   1.051  -8.882  0.00  0.00    +0.031 C 
ATOM     17  C   UNL     1      -8.963   0.946  -7.345  0.00  0.00    +0.160 C 
ATOM     18  O   UNL     1      -7.649   1.462  -7.040  0.00  0.00    -0.375 OA
ENDBRANCH  13  14
ENDBRANCH  11  13
ENDBRANCH   3   9
BRANCH   8  19
ATOM     19  C   UNL     1      -0.105   1.051  -2.416  0.00  0.00    +0.137 C 
BRANCH  19  20
ATOM     20  N   UNL     1      -0.710   1.583  -1.188  0.00  0.00    -0.300 NA
ATOM     21  C   UNL     1       0.001   1.097   0.003  0.00  0.00    +0.066 C 
ATOM     22  C   UNL     1      -0.706   1.608   1.260  0.00  0.00    -0.062 C 
ATOM     23  N   UNL     1      -0.743   3.077   1.236  0.00  0.00    +0.385 N 
ATOM     24  C   UNL     1      -1.454   3.563   0.045  0.00  0.00    -0.062 C 
ATOM     25  C   UNL     1      -0.746   3.052  -1.212  0.00  0.00    +0.066 C 
ATOM     26  H   UNL     1       0.294   3.441   1.185  0.00  0.00    -0.081 HD
BRANCH  23  27
ATOM     27  C   UNL     1      -1.348   3.609   2.464  0.00  0.00    -0.065 C 
ATOM     28  C   UNL     1      -1.282   5.137   2.444  0.00  0.00    -0.009 C 
ATOM     29  C   UNL     1      -1.912   5.692   3.723  0.00  0.00    -0.012 C 
ATOM     30  C   UNL     1      -1.147   5.164   4.939  0.00  0.00    +0.007 C 
ATOM     31  C   UNL     1      -1.213   3.636   4.959  0.00  0.00    -0.012 C 
ATOM     32  C   UNL     1      -0.583   3.081   3.679  0.00  0.00    -0.009 C 
ATOM     33  C   UNL     1      -2.674   3.189   5.043  0.00  0.00    +0.007 C 
ATOM     34  C   UNL     1      -3.439   3.716   3.827  0.00  0.00    -0.012 C 
ATOM     35  C   UNL     1      -3.373   5.245   3.807  0.00  0.00    +0.007 C 
ATOM     36  C   UNL     1      -2.809   3.162   2.548  0.00  0.00    -0.009 C 
ENDBRANCH  23  27
ENDBRANCH  19  20
ENDBRANCH   8  19
TORSDOF 6
