REMARK  Name = ZINC14241214
REMARK  9 active torsions:
REMARK  status: ('A' for Active; 'I' for Inactive)
REMARK    1  A    between atoms: C_1  and  O_2
REMARK    2  A    between atoms: O_2  and  C_3
REMARK    3  A    between atoms: C_6  and  S_9
REMARK    4  A    between atoms: S_9  and  N_12
REMARK    5  A    between atoms: C_15  and  C_18
REMARK    6  A    between atoms: N_20  and  C_21
REMARK    7  A    between atoms: C_21  and  C_22
REMARK    8  A    between atoms: C_25  and  S_27
REMARK    9  A    between atoms: S_27  and  N_30
REMARK                            x       y       z     vdW  Elec       q    Type
REMARK                         _______ _______ _______ _____ _____    ______ ____
ROOT
ATOM      1  N   UNL     1       6.971   4.102   5.194  0.00  0.00    -0.177 NA
ATOM      2  C   UNL     1       7.910   3.260   4.440  0.00  0.00    +0.110 C 
ATOM      3  C   UNL     1       7.408   3.129   2.999  0.00  0.00    +0.030 C 
ATOM      4  C   UNL     1       5.968   2.611   3.009  0.00  0.00    +0.077 C 
ATOM      5  C   UNL     1       5.071   3.610   3.745  0.00  0.00    +0.030 C 
ATOM      6  C   UNL     1       5.546   3.746   5.195  0.00  0.00    +0.110 C 
ENDROOT
BRANCH   4   7
ATOM      7  C   UNL     1       5.482   2.450   1.592  0.00  0.00    +0.216 C 
ATOM      8  O   UNL     1       6.215   2.721   0.665  0.00  0.00    -0.276 OA
ATOM      9  N   UNL     1       4.233   2.003   1.355  0.00  0.00    -0.310 N 
ATOM     10  H   UNL     1       3.647   1.786   2.096  0.00  0.00    +0.149 HD
BRANCH   9  11
ATOM     11  C   UNL     1       3.761   1.845  -0.023  0.00  0.00    +0.146 C 
BRANCH  11  12
ATOM     12  C   UNL     1       2.343   1.336  -0.013  0.00  0.00    +0.009 A 
ATOM     13  C   UNL     1       1.183   2.038   0.002  0.00  0.00    +0.015 A 
ATOM     14  C   UNL     1      -0.016   1.351   0.009  0.00  0.00    +0.036 A 
ATOM     15  C   UNL     1       0.002  -0.004   0.002  0.00  0.00    +0.142 A 
ATOM     16  S   UNL     1       1.754  -0.349  -0.017  0.00  0.00    -0.072 S 
BRANCH  15  17
ATOM     17  S   UNL     1      -1.351  -1.132   0.008  0.00  0.00    +0.062 S 
ATOM     18  O   UNL     1      -0.861  -2.352   0.548  0.00  0.00    -0.153 OA
ATOM     19  O   UNL     1      -2.456  -0.439   0.573  0.00  0.00    -0.153 OA
BRANCH  17  20
ATOM     20  N   UNL     1      -1.742  -1.437  -1.572  0.00  0.00    -0.203 NA
ATOM     21  H   UNL     1      -2.119  -2.295  -1.821  0.00  0.00    +0.144 HD
ATOM     22  H   UNL     1      -1.593  -0.758  -2.248  0.00  0.00    +0.144 HD
ENDBRANCH  17  20
ENDBRANCH  15  17
ENDBRANCH  11  12
ENDBRANCH   9  11
ENDBRANCH   4   7
BRANCH   1  23
ATOM     23  S   UNL     1       7.510   5.429   6.026  0.00  0.00    +0.061 S 
ATOM     24  O   UNL     1       6.556   5.682   7.048  0.00  0.00    -0.153 OA
ATOM     25  O   UNL     1       8.884   5.203   6.305  0.00  0.00    -0.153 OA
BRANCH  23  29
ATOM     26  C   UNL     1       7.330   8.954   3.188  0.00  0.00    +0.120 A 
ATOM     27  C   UNL     1       6.235   8.644   3.981  0.00  0.00    +0.047 A 
ATOM     28  C   UNL     1       6.292   7.568   4.846  0.00  0.00    +0.032 A 
ATOM     29  C   UNL     1       7.440   6.800   4.921  0.00  0.00    +0.106 A 
ATOM     30  C   UNL     1       8.534   7.111   4.136  0.00  0.00    +0.032 A 
ATOM     31  C   UNL     1       8.480   8.182   3.265  0.00  0.00    +0.047 A 
BRANCH  26  33
ATOM     32  C   UNL     1       8.440  10.271   1.550  0.00  0.00    +0.277 C 
ATOM     33  O   UNL     1       7.275  10.011   2.336  0.00  0.00    -0.495 OA
ENDBRANCH  26  33
ENDBRANCH  23  29
ENDBRANCH   1  23
TORSDOF 8
