REMARK  Name = ZINC52095107
REMARK  5 active torsions:
REMARK  status: ('A' for Active; 'I' for Inactive)
REMARK    1  A    between atoms: C_1  and  C_2
REMARK    2  A    between atoms: C_2  and  C_3
REMARK    3  A    between atoms: C_2  and  C_4
REMARK    4  A    between atoms: C_2  and  C_5
REMARK    5  A    between atoms: C_5  and  C_7
REMARK                            x       y       z     vdW  Elec       q    Type
REMARK                         _______ _______ _______ _____ _____    ______ ____
ROOT
ATOM      1  C   UNL     1       2.132   0.024  -1.268  0.00  0.00    -0.013 A 
ATOM      2  C   UNL     1       3.159  -0.761  -0.780  0.00  0.00    +0.034 A 
ATOM      3  C   UNL     1       4.459  -0.281  -0.790  0.00  0.00    +0.067 A 
ATOM      4  C   UNL     1       4.726   0.994  -1.292  0.00  0.00    +0.068 A 
ATOM      5  C   UNL     1       3.690   1.776  -1.779  0.00  0.00    +0.043 A 
ATOM      6  C   UNL     1       2.397   1.287  -1.771  0.00  0.00    +0.025 A 
ATOM      7 BR   UNL     1       0.984   2.349  -2.442  0.00  0.00    -0.050 Br
ATOM      8  N   UNL     1       6.100   1.194  -1.173  0.00  0.00    -0.306 N 
ATOM      9  H   UNL     1       6.582   1.992  -1.439  0.00  0.00    +0.170 HD
ATOM     10  C   UNL     1       6.643   0.092  -0.623  0.00  0.00    +0.325 A 
ATOM     11  O   UNL     1       7.826  -0.061  -0.381  0.00  0.00    -0.247 OA
ATOM     12  N   UNL     1       5.679  -0.817  -0.381  0.00  0.00    -0.306 N 
ATOM     13  H   UNL     1       5.811  -1.694   0.012  0.00  0.00    +0.170 HD
ENDROOT
BRANCH   1  14
ATOM     14  C   UNL     1       0.718  -0.497  -1.257  0.00  0.00    +0.117 C 
ATOM     15 CL   UNL     1       0.743  -2.300  -1.267  0.00  0.00    -0.116 Cl
BRANCH  14  17
ATOM     16  C   UNL     1      -0.019   1.526   0.010  0.00  0.00    +0.012 C 
ATOM     17  C   UNL     1       0.002  -0.004   0.002  0.00  0.00    -0.017 C 
ATOM     18  C   UNL     1       0.742  -0.511   1.242  0.00  0.00    +0.012 C 
ATOM     19  C   UNL     1      -1.433  -0.534   0.013  0.00  0.00    +0.012 C 
ENDBRANCH  14  17
ENDBRANCH   1  14
TORSDOF 2
