REMARK  Name = ZINC40755680
REMARK  4 active torsions:
REMARK  status: ('A' for Active; 'I' for Inactive)
REMARK    1  A    between atoms: C_4  and  N_7
REMARK    2  A    between atoms: C_9  and  N_25
REMARK    3  A    between atoms: C_10  and  N_14
REMARK    4  A    between atoms: N_14  and  C_15
REMARK                            x       y       z     vdW  Elec       q    Type
REMARK                         _______ _______ _______ _____ _____    ______ ____
ROOT
ATOM      1  N   UNL     1       3.620  -0.649  -0.037  0.00  0.00    -0.298 N 
ATOM      2  C   UNL     1       3.644  -2.036   0.060  0.00  0.00    +0.149 A 
ATOM      3  C   UNL     1       4.858  -2.719   0.155  0.00  0.00    +0.105 A 
ATOM      4  C   UNL     1       4.825  -4.112   0.252  0.00  0.00    +0.145 A 
ATOM      5  N   UNL     1       3.647  -4.730   0.248  0.00  0.00    -0.219 NA
ATOM      6  C   UNL     1       2.524  -4.048   0.157  0.00  0.00    +0.225 A 
ATOM      7  N   UNL     1       2.510  -2.733   0.069  0.00  0.00    -0.219 NA
ATOM      8  H   UNL     1       4.450  -0.155  -0.121  0.00  0.00    +0.154 HD
ENDROOT
BRANCH   1  12
ATOM      9  C   UNL     1      -0.015   1.381   0.031  0.00  0.00    +0.000 A 
ATOM     10  C   UNL     1       0.137   0.213   0.757  0.00  0.00    +0.002 A 
ATOM     11  C   UNL     1       1.341  -0.462   0.737  0.00  0.00    +0.023 A 
ATOM     12  C   UNL     1       2.400   0.032  -0.015  0.00  0.00    +0.032 A 
ATOM     13  C   UNL     1       2.244   1.204  -0.743  0.00  0.00    +0.023 A 
ATOM     14  C   UNL     1       1.037   1.875  -0.718  0.00  0.00    +0.002 A 
ENDBRANCH   1  12
BRANCH   3  15
ATOM     15  N   UNL     1       6.079  -2.025   0.155  0.00  0.00    -0.353 N 
ATOM     16  H   UNL     1       6.086  -1.057   0.087  0.00  0.00    +0.143 HD
ATOM     17  H   UNL     1       6.914  -2.513   0.222  0.00  0.00    +0.143 HD
ENDBRANCH   3  15
BRANCH   4  18
ATOM     18  N   UNL     1       6.005  -4.840   0.348  0.00  0.00    -0.322 N 
ATOM     19  H   UNL     1       6.859  -4.382   0.349  0.00  0.00    +0.148 HD
BRANCH  18  20
ATOM     20  C   UNL     1       5.957  -6.301   0.448  0.00  0.00    +0.034 C 
ATOM     21  C   UNL     1       5.269  -6.875  -0.791  0.00  0.00    +0.029 C 
ATOM     22  C   UNL     1       5.219  -8.401  -0.687  0.00  0.00    -0.008 C 
ATOM     23  C   UNL     1       6.643  -8.952  -0.593  0.00  0.00    +0.007 C 
ATOM     24  C   UNL     1       7.331  -8.378   0.647  0.00  0.00    -0.008 C 
ATOM     25  C   UNL     1       7.381  -6.853   0.542  0.00  0.00    +0.029 C 
ATOM     26  C   UNL     1       6.546  -8.778   1.898  0.00  0.00    +0.007 C 
ATOM     27  C   UNL     1       5.122  -8.227   1.804  0.00  0.00    -0.008 C 
ATOM     28  C   UNL     1       4.433  -8.801   0.564  0.00  0.00    +0.007 C 
ATOM     29  C   UNL     1       5.171  -6.701   1.699  0.00  0.00    +0.029 C 
ENDBRANCH  18  20
ENDBRANCH   4  18
TORSDOF 4
