REMARK  Name = ZINC31056976
REMARK  10 active torsions:
REMARK  status: ('A' for Active; 'I' for Inactive)
REMARK    1  A    between atoms: C_1  and  C_2
REMARK    2  A    between atoms: C_2  and  C_3
REMARK    3  A    between atoms: C_2  and  C_4
REMARK    4  A    between atoms: C_2  and  N_5
REMARK    5  A    between atoms: C_6  and  C_8
REMARK    6  A    between atoms: C_13  and  N_14
REMARK    7  A    between atoms: C_15  and  C_17
REMARK    8  A    between atoms: N_22  and  C_24
REMARK    9  A    between atoms: C_24  and  C_25
REMARK   10  A    between atoms: C_27  and  C_30
REMARK                            x       y       z     vdW  Elec       q    Type
REMARK                         _______ _______ _______ _____ _____    ______ ____
ROOT
ATOM      1  N   UNL     1      -2.436   3.843   0.047  0.00  0.00    -0.285 N 
ATOM      2  C   UNL     1      -2.438   5.187   0.152  0.00  0.00    +0.219 C 
ATOM      3  O   UNL     1      -1.391   5.798   0.142  0.00  0.00    -0.275 OA
ATOM      4  H   UNL     1      -3.388   3.295  -0.018  0.00  0.00    +0.155 HD
ENDROOT
BRANCH   2   5
ATOM      5  C   UNL     1      -3.743   5.931   0.283  0.00  0.00    +0.059 C 
ATOM      6  C   UNL     1      -4.612   5.659  -0.948  0.00  0.00    +0.009 C 
ATOM      7  C   UNL     1      -5.909   6.465  -0.835  0.00  0.00    -0.018 C 
ATOM      8  C   UNL     1      -5.569   7.952  -0.700  0.00  0.00    -0.078 C 
ATOM      9  N   UNL     1      -4.738   8.159   0.492  0.00  0.00    +0.386 N 
ATOM     10  C   UNL     1      -3.466   7.432   0.386  0.00  0.00    -0.065 C 
ATOM     11  H   UNL     1      -5.284   7.753   1.357  0.00  0.00    -0.081 HD
BRANCH   9  12
ATOM     12  C   UNL     1      -4.508   9.590   0.732  0.00  0.00    +0.022 C 
BRANCH  12  13
ATOM     13  C   UNL     1      -5.814  10.258   1.078  0.00  0.00    +0.211 A 
ATOM     14  N   UNL     1      -6.320  10.399   2.277  0.00  0.00    -0.192 NA
ATOM     15  C   UNL     1      -7.492  11.055   2.103  0.00  0.00    +0.209 A 
ATOM     16  N   UNL     1      -7.629  11.262   0.816  0.00  0.00    -0.056 NA
ATOM     17  O   UNL     1      -6.675  10.811   0.218  0.00  0.00    -0.340 OA
BRANCH  15  18
ATOM     18  C   UNL     1      -8.439  11.456   3.162  0.00  0.00    +0.060 A 
ATOM     19  C   UNL     1      -9.633  12.118   3.047  0.00  0.00    +0.019 A 
ATOM     20  C   UNL     1     -10.356  12.383   4.188  0.00  0.00    +0.008 A 
ATOM     21  C   UNL     1      -9.860  11.992   5.391  0.00  0.00    +0.046 A 
ATOM     22  S   UNL     1      -8.323  11.212   4.927  0.00  0.00    -0.093 S 
ENDBRANCH  15  18
ENDBRANCH  12  13
ENDBRANCH   9  12
ENDBRANCH   2   5
BRANCH   1  28
ATOM     23  C   UNL     1      -1.129   1.886   0.622  0.00  0.00    +0.058 A 
ATOM     24  C   UNL     1       0.088   1.202   0.593  0.00  0.00    +0.015 A 
ATOM     25  C   UNL     1       1.178   1.765  -0.036  0.00  0.00    +0.001 A 
ATOM     26  C   UNL     1       1.074   3.010  -0.635  0.00  0.00    +0.002 A 
ATOM     27  C   UNL     1      -0.121   3.700  -0.609  0.00  0.00    +0.024 A 
ATOM     28  C   UNL     1      -1.230   3.149   0.019  0.00  0.00    +0.046 A 
BRANCH  23  30
ATOM     29  N   UNL     1      -2.175   0.122   1.955  0.00  0.00    -0.307 N 
ATOM     30  C   UNL     1      -2.301   1.286   1.287  0.00  0.00    +0.246 C 
ATOM     31  O   UNL     1      -3.381   1.842   1.233  0.00  0.00    -0.270 OA
ATOM     32  H   UNL     1      -1.197  -0.380   2.004  0.00  0.00    +0.150 HD
BRANCH  29  34
ATOM     33  C   UNL     1      -4.424  -0.760   1.577  0.00  0.00    +0.031 C 
ATOM     34  C   UNL     1      -3.338  -0.473   2.616  0.00  0.00    +0.026 C 
ATOM     35  C   UNL     1      -2.926  -1.780   3.296  0.00  0.00    +0.031 C 
ATOM     36  C   UNL     1      -3.882   0.498   3.666  0.00  0.00    +0.031 C 
ENDBRANCH  29  34
ENDBRANCH  23  30
ENDBRANCH   1  28
TORSDOF 7
