REMARK  Name = ZINC00715177
REMARK  10 active torsions:
REMARK  status: ('A' for Active; 'I' for Inactive)
REMARK    1  A    between atoms: C_1  and  C_2
REMARK    2  A    between atoms: C_3  and  C_20
REMARK    3  A    between atoms: C_4  and  C_10
REMARK    4  A    between atoms: C_14  and  O_18
REMARK    5  A    between atoms: C_15  and  O_16
REMARK    6  A    between atoms: O_16  and  C_17
REMARK    7  A    between atoms: O_18  and  C_19
REMARK    8  A    between atoms: C_20  and  O_22
REMARK    9  A    between atoms: O_22  and  C_23
REMARK   10  A    between atoms: C_23  and  C_24
REMARK                            x       y       z     vdW  Elec       q    Type
REMARK                         _______ _______ _______ _____ _____    ______ ____
ROOT
ATOM      1  C   UNL     1       5.572  -1.112   3.321  0.00  0.00    +0.061 C 
ATOM      2  C   UNL     1       5.207  -0.696   1.919  0.00  0.00    +0.021 C 
ATOM      3  C   UNL     1       4.042  -1.117   1.383  0.00  0.00    +0.078 C 
ATOM      4  C   UNL     1       3.713  -0.676  -0.029  0.00  0.00    +0.147 C 
ATOM      5  N   UNL     1       4.700   0.183  -0.705  0.00  0.00    -0.288 N 
ATOM      6  C   UNL     1       5.821   0.520  -0.038  0.00  0.00    +0.304 C 
ATOM      7  O   UNL     1       6.642   1.229  -0.588  0.00  0.00    -0.252 OA
ATOM      8  N   UNL     1       6.060   0.101   1.211  0.00  0.00    -0.273 N 
ATOM      9  H   UNL     1       4.546   0.498  -1.609  0.00  0.00    +0.151 HD
ATOM     10  H   UNL     1       6.886   0.379   1.637  0.00  0.00    +0.156 HD
ENDROOT
BRANCH   4  11
ATOM     11  C   UNL     1       2.401   0.065   0.009  0.00  0.00    +0.023 A 
ATOM     12  C   UNL     1       2.364   1.385   0.420  0.00  0.00    +0.009 A 
ATOM     13  C   UNL     1       1.163   2.067   0.456  0.00  0.00    +0.004 A 
ATOM     14  C   UNL     1      -0.008   1.433   0.082  0.00  0.00    +0.049 A 
ATOM     15  C   UNL     1       0.022   0.111  -0.330  0.00  0.00    +0.162 A 
ATOM     16  C   UNL     1       1.232  -0.576  -0.367  0.00  0.00    +0.167 A 
BRANCH  16  17
ATOM     17  O   UNL     1       1.267  -1.874  -0.770  0.00  0.00    -0.491 OA
ATOM     18  C   UNL     1       1.462  -2.115  -2.165  0.00  0.00    +0.277 C 
ENDBRANCH  16  17
BRANCH  15  19
ATOM     19  O   UNL     1      -1.128  -0.514  -0.699  0.00  0.00    -0.491 OA
ATOM     20  C   UNL     1      -2.332   0.253  -0.636  0.00  0.00    +0.277 C 
ENDBRANCH  15  19
ENDBRANCH   4  11
BRANCH   3  21
ATOM     21  C   UNL     1       3.156  -1.941   2.117  0.00  0.00    +0.339 C 
ATOM     22  O   UNL     1       3.386  -2.193   3.284  0.00  0.00    -0.245 OA
BRANCH  21  23
ATOM     23  O   UNL     1       2.057  -2.448   1.521  0.00  0.00    -0.457 OA
BRANCH  23  24
ATOM     24  C   UNL     1       1.207  -3.273   2.321  0.00  0.00    +0.268 C 
BRANCH  24  25
ATOM     25  C   UNL     1       0.040  -3.744   1.493  0.00  0.00    -0.007 A 
ATOM     26  C   UNL     1       0.131  -4.926   0.782  0.00  0.00    +0.011 A 
ATOM     27  C   UNL     1      -0.938  -5.363   0.021  0.00  0.00    +0.050 A 
ATOM     28  C   UNL     1      -2.103  -4.615  -0.031  0.00  0.00    +0.166 A 
ATOM     29  C   UNL     1      -2.195  -3.424   0.685  0.00  0.00    +0.167 A 
ATOM     30  C   UNL     1      -1.122  -2.996   1.450  0.00  0.00    +0.056 A 
ATOM     31  O   UNL     1      -3.429  -2.881   0.472  0.00  0.00    -0.453 OA
ATOM     32  C   UNL     1      -3.942  -3.539  -0.702  0.00  0.00    +0.466 C 
ATOM     33  O   UNL     1      -3.280  -4.818  -0.693  0.00  0.00    -0.453 OA
ENDBRANCH  24  25
ENDBRANCH  23  24
ENDBRANCH  21  23
ENDBRANCH   3  21
TORSDOF 7
