REMARK  Name = ZINC66883478
REMARK  5 active torsions:
REMARK  status: ('A' for Active; 'I' for Inactive)
REMARK    1  A    between atoms: C_1  and  C_2
REMARK    2  A    between atoms: C_2  and  C_4
REMARK    3  A    between atoms: C_2  and  O_14
REMARK    4  A    between atoms: O_14  and  C_15
REMARK    5  A    between atoms: C_15  and  C_17
REMARK                            x       y       z     vdW  Elec       q    Type
REMARK                         _______ _______ _______ _____ _____    ______ ____
ROOT
ATOM      1  C   UNL     1      -1.901  -0.717   1.217  0.00  0.00    +0.340 C 
ATOM      2  O   UNL     1      -1.270  -0.493   2.231  0.00  0.00    -0.245 OA
ENDROOT
BRANCH   1   3
ATOM      3  C   UNL     1      -3.282  -1.227   1.305  0.00  0.00    +0.061 A 
ATOM      4  C   UNL     1      -4.006  -1.490   0.139  0.00  0.00    +0.018 A 
ATOM      5  C   UNL     1      -5.297  -1.968   0.219  0.00  0.00    +0.048 A 
ATOM      6  C   UNL     1      -5.881  -2.187   1.458  0.00  0.00    +0.142 A 
ATOM      7  C   UNL     1      -5.162  -1.926   2.628  0.00  0.00    +0.076 A 
ATOM      8  C   UNL     1      -3.867  -1.454   2.554  0.00  0.00    +0.042 A 
ATOM      9  N   UNL     1      -5.771  -2.153   3.871  0.00  0.00    -0.280 N 
ATOM     10  C   UNL     1      -6.893  -2.903   3.923  0.00  0.00    +0.255 C 
ATOM     11  O   UNL     1      -7.454  -3.088   4.982  0.00  0.00    -0.272 OA
ATOM     12  C   UNL     1      -7.445  -3.510   2.658  0.00  0.00    +0.325 C 
ATOM     13  O   UNL     1      -7.152  -2.658   1.548  0.00  0.00    -0.481 OA
ATOM     14  H   UNL     1      -5.392  -1.777   4.681  0.00  0.00    +0.155 HD
ENDBRANCH   1   3
BRANCH   1  15
ATOM     15  O   UNL     1      -1.339  -0.499   0.012  0.00  0.00    -0.453 OA
BRANCH  15  17
ATOM     16  C   UNL     1      -0.019   1.526   0.010  0.00  0.00    +0.057 C 
ATOM     17  C   UNL     1       0.002  -0.004   0.002  0.00  0.00    +0.204 C 
BRANCH  17  18
ATOM     18  C   UNL     1       0.707  -0.490  -1.238  0.00  0.00    -0.004 A 
ATOM     19  C   UNL     1       0.036  -0.521  -2.446  0.00  0.00    +0.011 A 
ATOM     20  C   UNL     1       0.679  -0.967  -3.585  0.00  0.00    +0.050 A 
ATOM     21  C   UNL     1       2.000  -1.385  -3.519  0.00  0.00    +0.162 A 
ATOM     22  C   UNL     1       2.676  -1.352  -2.305  0.00  0.00    +0.162 A 
ATOM     23  C   UNL     1       2.026  -0.899  -1.166  0.00  0.00    +0.056 A 
ATOM     24  O   UNL     1       3.974  -1.750  -2.219  0.00  0.00    -0.485 OA
ATOM     25  C   UNL     1       4.478  -2.540  -3.301  0.00  0.00    +0.270 C 
ATOM     26  C   UNL     1       4.050  -1.880  -4.619  0.00  0.00    +0.270 C 
ATOM     27  O   UNL     1       2.619  -1.826  -4.648  0.00  0.00    -0.485 OA
ENDBRANCH  17  18
ENDBRANCH  15  17
ENDBRANCH   1  15
TORSDOF 4
