REMARK  Name = ZINC13592136
REMARK  9 active torsions:
REMARK  status: ('A' for Active; 'I' for Inactive)
REMARK    1  A    between atoms: C_1  and  C_2
REMARK    2  A    between atoms: C_13  and  C_23
REMARK    3  A    between atoms: C_16  and  C_19
REMARK    4  A    between atoms: C_19  and  C_20
REMARK    5  A    between atoms: C_20  and  S_21
REMARK    6  A    between atoms: S_21  and  C_22
REMARK    7  A    between atoms: N_25  and  C_26
REMARK    8  A    between atoms: C_29  and  O_32
REMARK    9  A    between atoms: O_32  and  C_33
REMARK                            x       y       z     vdW  Elec       q    Type
REMARK                         _______ _______ _______ _____ _____    ______ ____
ROOT
ATOM      1  C   UNL     1      -0.253   1.139   0.495  0.00  0.00    +0.044 C 
ATOM      2  C   UNL     1      -0.296  -0.361   0.354  0.00  0.00    -0.049 A 
ATOM      3  C   UNL     1      -0.174  -0.944  -0.895  0.00  0.00    +0.011 A 
ATOM      4  C   UNL     1      -0.214  -2.315  -1.022  0.00  0.00    +0.005 A 
ATOM      5  C   UNL     1      -0.378  -3.127   0.095  0.00  0.00    +0.057 A 
ATOM      6  C   UNL     1      -0.500  -2.532   1.349  0.00  0.00    +0.063 A 
ATOM      7  C   UNL     1      -0.454  -1.158   1.473  0.00  0.00    +0.025 A 
ATOM      8 CL   UNL     1      -0.706  -3.522   2.761  0.00  0.00    -0.082 Cl
ATOM      9  N   UNL     1      -0.390  -4.472  -0.283  0.00  0.00    -0.282 N 
ATOM     10  C   UNL     1      -0.241  -4.627  -1.612  0.00  0.00    +0.243 C 
ATOM     11  O   UNL     1      -0.214  -5.676  -2.219  0.00  0.00    -0.273 OA
ATOM     12  C   UNL     1      -0.113  -3.245  -2.201  0.00  0.00    +0.135 C 
ATOM     13  C   UNL     1      -1.232  -2.976  -3.213  0.00  0.00    +0.110 C 
ATOM     14  C   UNL     1      -0.499  -2.625  -4.531  0.00  0.00    +0.034 C 
ATOM     15  C   UNL     1       0.899  -2.172  -4.039  0.00  0.00    +0.056 C 
ATOM     16  N   UNL     1       1.173  -3.084  -2.897  0.00  0.00    -0.296 NA
ATOM     17  H   UNL     1      -0.494  -5.208   0.339  0.00  0.00    +0.155 HD
ATOM     18  H   UNL     1       1.871  -2.692  -2.281  0.00  0.00    +0.123 HD
ENDROOT
BRANCH  13  19
ATOM     19  C   UNL     1      -2.083  -1.817  -2.759  0.00  0.00    +0.223 C 
ATOM     20  O   UNL     1      -1.859  -0.701  -3.177  0.00  0.00    -0.275 OA
ATOM     21  N   UNL     1      -3.091  -2.022  -1.889  0.00  0.00    -0.285 N 
ATOM     22  H   UNL     1      -3.226  -2.900  -1.500  0.00  0.00    +0.155 HD
BRANCH  21  23
ATOM     23  C   UNL     1      -3.946  -0.966  -1.547  0.00  0.00    +0.034 A 
ATOM     24  C   UNL     1      -4.260   0.007  -2.487  0.00  0.00    +0.027 A 
ATOM     25  C   UNL     1      -5.103   1.047  -2.149  0.00  0.00    +0.047 A 
ATOM     26  C   UNL     1      -5.636   1.121  -0.870  0.00  0.00    +0.120 A 
ATOM     27  C   UNL     1      -5.322   0.150   0.070  0.00  0.00    +0.047 A 
ATOM     28  C   UNL     1      -4.484  -0.894  -0.269  0.00  0.00    +0.027 A 
BRANCH  26  29
ATOM     29  O   UNL     1      -6.465   2.146  -0.538  0.00  0.00    -0.495 OA
ATOM     30  C   UNL     1      -6.977   2.159   0.796  0.00  0.00    +0.277 C 
ENDBRANCH  26  29
ENDBRANCH  21  23
ENDBRANCH  13  19
BRANCH  15  31
ATOM     31  C   UNL     1       1.944  -2.356  -5.142  0.00  0.00    +0.029 C 
BRANCH  31  32
ATOM     32  C   UNL     1       3.285  -1.787  -4.674  0.00  0.00    +0.070 C 
BRANCH  32  33
ATOM     33  S   UNL     1       4.523  -2.004  -5.982  0.00  0.00    -0.164 S 
ATOM     34  C   UNL     1       6.034  -1.288  -5.279  0.00  0.00    +0.084 C 
ENDBRANCH  32  33
ENDBRANCH  31  32
ENDBRANCH  15  31
TORSDOF 6
