REMARK  Name = ZINC04804154
REMARK  6 active torsions:
REMARK  status: ('A' for Active; 'I' for Inactive)
REMARK    1  A    between atoms: C_1  and  C_2
REMARK    2  A    between atoms: C_5  and  N_9
REMARK    3  A    between atoms: C_6  and  C_8
REMARK    4  A    between atoms: N_10  and  C_11
REMARK    5  A    between atoms: C_15  and  S_22
REMARK    6  A    between atoms: C_20  and  O_21
REMARK                            x       y       z     vdW  Elec       q    Type
REMARK                         _______ _______ _______ _____ _____    ______ ____
ROOT
ATOM      1  C   UNL     1       0.007   3.893   0.022  0.00  0.00    +0.135 A 
ATOM      2  C   UNL     1      -1.264   3.169   0.031  0.00  0.00    +0.013 A 
ATOM      3  C   UNL     1      -2.489   3.845   0.046  0.00  0.00    +0.013 A 
ATOM      4  C   UNL     1      -3.652   3.133   0.053  0.00  0.00    +0.030 A 
ATOM      5  C   UNL     1      -3.637   1.741   0.045  0.00  0.00    +0.120 A 
ATOM      6  C   UNL     1      -2.462   1.052   0.031  0.00  0.00    +0.038 A 
ATOM      7  C   UNL     1      -1.245   1.754   0.018  0.00  0.00    -0.014 A 
ATOM      8  C   UNL     1      -0.013   1.076   0.008  0.00  0.00    +0.012 A 
ATOM      9  C   UNL     1       1.160   1.763   0.001  0.00  0.00    +0.048 A 
ATOM     10  C   UNL     1       1.195   3.157   0.007  0.00  0.00    +0.144 A 
ENDROOT
BRANCH   5  11
ATOM     11  S   UNL     1      -5.162   0.857   0.055  0.00  0.00    +0.140 S 
ATOM     12  O   UNL     1      -4.883  -0.427   0.596  0.00  0.00    -0.140 OA
ATOM     13  O   UNL     1      -6.132   1.728   0.620  0.00  0.00    -0.140 OA
ATOM     14  O   UNL     1      -5.565   0.639  -1.397  0.00  0.00    -0.043 OA
ENDBRANCH   5  11
BRANCH   1  16
ATOM     15  N   UNL     1       1.162   5.876   0.022  0.00  0.00    -0.149 NA
ATOM     16  N   UNL     1       0.033   5.252   0.029  0.00  0.00    -0.145 NA
BRANCH  15  21
ATOM     17  C   UNL     1       1.268  11.518   0.050  0.00  0.00    +0.044 C 
ATOM     18  C   UNL     1       1.240  10.011   0.043  0.00  0.00    -0.050 A 
ATOM     19  C   UNL     1       0.026   9.345   0.050  0.00  0.00    +0.005 A 
ATOM     20  C   UNL     1      -0.008   7.967   0.038  0.00  0.00    +0.030 A 
ATOM     21  C   UNL     1       1.188   7.242   0.029  0.00  0.00    +0.089 A 
ATOM     22  C   UNL     1       2.409   7.922   0.021  0.00  0.00    -0.023 A 
ATOM     23  C   UNL     1       2.427   9.301   0.028  0.00  0.00    +0.008 A 
ATOM     24  C   UNL     1       3.703   7.149   0.005  0.00  0.00    +0.046 C 
ENDBRANCH  15  21
ENDBRANCH   1  16
BRANCH  10  25
ATOM     25  O   UNL     1       2.388   3.802  -0.002  0.00  0.00    -0.505 OA
ATOM     26  H   UNL     1       2.726   3.993  -0.887  0.00  0.00    +0.292 HD
ENDBRANCH  10  25
TORSDOF 4
