REMARK  Name = ZINC05608774
REMARK  6 active torsions:
REMARK  status: ('A' for Active; 'I' for Inactive)
REMARK    1  A    between atoms: C_1  and  C_2
REMARK    2  A    between atoms: C_2  and  N_3
REMARK    3  A    between atoms: N_3  and  C_4
REMARK    4  A    between atoms: C_4  and  C_5
REMARK    5  A    between atoms: C_6  and  C_8
REMARK    6  A    between atoms: C_9  and  N_23
REMARK                            x       y       z     vdW  Elec       q    Type
REMARK                         _______ _______ _______ _____ _____    ______ ____
ROOT
ATOM      1  C   UNL     1      -1.260   3.028   0.164  0.00  0.00    +0.097 A 
ATOM      2  C   UNL     1      -1.227   1.652   0.156  0.00  0.00    +0.053 A 
ATOM      3  C   UNL     1      -2.486   0.930   0.262  0.00  0.00    +0.029 A 
ATOM      4  C   UNL     1      -2.702  -0.471   0.282  0.00  0.00    +0.017 A 
ATOM      5  C   UNL     1      -3.986  -0.941   0.388  0.00  0.00    -0.025 A 
ATOM      6  C   UNL     1      -5.054  -0.052   0.472  0.00  0.00    +0.046 A 
ATOM      7  N   UNL     1      -4.853   1.246   0.457  0.00  0.00    -0.244 NA
ATOM      8  C   UNL     1      -3.638   1.744   0.356  0.00  0.00    +0.111 A 
ATOM      9  S   UNL     1      -2.997   3.400   0.303  0.00  0.00    -0.062 S 
ATOM     10  C   UNL     1      -6.435  -0.644   0.575  0.00  0.00    +0.056 C 
ATOM     11  C   UNL     1      -6.785  -1.030   1.976  0.00  0.00    +0.006 C 
ATOM     12  C   UNL     1      -6.235  -2.332   2.522  0.00  0.00    +0.000 C 
ATOM     13  C   UNL     1      -4.743  -2.181   2.874  0.00  0.00    +0.000 C 
ATOM     14  C   UNL     1      -3.926  -2.959   1.807  0.00  0.00    +0.005 C 
ATOM     15  C   UNL     1      -4.279  -2.418   0.424  0.00  0.00    +0.037 C 
ENDROOT
BRANCH   1  17
ATOM     16  N   UNL     1      -0.403   5.255  -0.052  0.00  0.00    -0.298 N 
ATOM     17  C   UNL     1      -0.172   3.933   0.080  0.00  0.00    +0.255 C 
ATOM     18  O   UNL     1       0.972   3.517   0.127  0.00  0.00    -0.269 OA
BRANCH  16  20
ATOM     19  C   UNL     1       0.965   6.447  -1.691  0.00  0.00    +0.024 C 
ATOM     20  C   UNL     1       0.720   6.183  -0.204  0.00  0.00    +0.105 C 
ENDBRANCH  16  20
BRANCH  16  21
ATOM     21  C   UNL     1      -1.777   5.762  -0.043  0.00  0.00    +0.105 C 
ATOM     22  C   UNL     1      -2.252   5.924   1.403  0.00  0.00    +0.024 C 
ENDBRANCH  16  21
ENDBRANCH   1  17
BRANCH   2  23
ATOM     23  N   UNL     1      -0.023   0.969   0.056  0.00  0.00    -0.356 N 
ATOM     24  H   UNL     1      -0.014  -0.001   0.056  0.00  0.00    +0.142 HD
ATOM     25  H   UNL     1       0.809   1.462  -0.017  0.00  0.00    +0.142 HD
ENDBRANCH   2  23
TORSDOF 4
