REMARK  Name = ZINC36545270
REMARK  9 active torsions:
REMARK  status: ('A' for Active; 'I' for Inactive)
REMARK    1  A    between atoms: C_1  and  C_2
REMARK    2  A    between atoms: C_3  and  C_4
REMARK    3  A    between atoms: C_4  and  C_6
REMARK    4  A    between atoms: C_4  and  N_15
REMARK    5  A    between atoms: N_8  and  C_9
REMARK    6  A    between atoms: N_15  and  C_16
REMARK    7  A    between atoms: C_23  and  C_25
REMARK    8  A    between atoms: C_26  and  O_32
REMARK    9  A    between atoms: C_30  and  O_31
REMARK                            x       y       z     vdW  Elec       q    Type
REMARK                         _______ _______ _______ _____ _____    ______ ____
ROOT
ATOM      1  N   UNL     1       1.639   1.324  -1.928  0.00  0.00    -0.250 N 
ATOM      2  C   UNL     1       1.003   2.410  -2.409  0.00  0.00    +0.259 C 
ATOM      3  O   UNL     1       0.190   2.291  -3.306  0.00  0.00    -0.269 OA
ENDROOT
BRANCH   1   4
ATOM      4  C   UNL     1       2.497   1.444  -0.829  0.00  0.00    +0.056 A 
ATOM      5  C   UNL     1       3.825   1.801  -1.019  0.00  0.00    +0.025 A 
ATOM      6  C   UNL     1       4.669   1.920   0.068  0.00  0.00    +0.002 A 
ATOM      7  C   UNL     1       4.193   1.684   1.345  0.00  0.00    +0.002 A 
ATOM      8  C   UNL     1       2.871   1.329   1.538  0.00  0.00    +0.022 A 
ATOM      9  C   UNL     1       2.019   1.213   0.455  0.00  0.00    +0.062 A 
ATOM     10 CL   UNL     1       0.358   0.774   0.699  0.00  0.00    -0.082 Cl
ENDBRANCH   1   4
BRANCH   2  11
ATOM     11  C   UNL     1       1.293   3.740  -1.849  0.00  0.00    +0.120 A 
ATOM     12  C   UNL     1       2.396   4.475  -2.309  0.00  0.00    +0.133 A 
ATOM     13  C   UNL     1       2.659   5.726  -1.775  0.00  0.00    +0.046 A 
ATOM     14  C   UNL     1       1.839   6.251  -0.793  0.00  0.00    +0.007 A 
ATOM     15  C   UNL     1       0.749   5.535  -0.333  0.00  0.00    +0.046 A 
ATOM     16  C   UNL     1       0.464   4.285  -0.857  0.00  0.00    +0.133 A 
BRANCH  16  17
ATOM     17  O   UNL     1      -0.609   3.587  -0.408  0.00  0.00    -0.506 OA
ATOM     18  H   UNL     1      -0.442   3.087   0.403  0.00  0.00    +0.292 HD
ENDBRANCH  16  17
BRANCH  12  19
ATOM     19  O   UNL     1       3.202   3.962  -3.272  0.00  0.00    -0.506 OA
ATOM     20  H   UNL     1       2.930   4.185  -4.172  0.00  0.00    +0.292 HD
ENDBRANCH  12  19
ENDBRANCH   2  11
BRANCH   1  21
ATOM     21  C   UNL     1       1.433   0.016  -2.556  0.00  0.00    +0.190 C 
BRANCH  21  22
ATOM     22  C   UNL     1       2.716  -0.439  -3.202  0.00  0.00    +0.238 C 
ATOM     23  O   UNL     1       3.706   0.260  -3.144  0.00  0.00    -0.273 OA
ATOM     24  N   UNL     1       2.764  -1.623  -3.844  0.00  0.00    -0.311 N 
ATOM     25  H   UNL     1       1.973  -2.182  -3.891  0.00  0.00    +0.149 HD
BRANCH  24  26
ATOM     26  C   UNL     1       4.011  -2.066  -4.472  0.00  0.00    +0.073 C 
ATOM     27  C   UNL     1       4.117  -1.466  -5.876  0.00  0.00    +0.022 C 
ATOM     28  C   UNL     1       5.420  -1.928  -6.532  0.00  0.00    +0.002 C 
ATOM     29  C   UNL     1       5.428  -3.455  -6.628  0.00  0.00    +0.000 C 
ATOM     30  C   UNL     1       5.323  -4.055  -5.224  0.00  0.00    +0.002 C 
ATOM     31  C   UNL     1       4.021  -3.592  -4.568  0.00  0.00    +0.022 C 
ENDBRANCH  24  26
ENDBRANCH  21  22
BRANCH  21  34
ATOM     32  C   UNL     1      -1.003  -1.379  -2.825  0.00  0.00    +0.035 C 
ATOM     33  C   UNL     1      -0.143  -1.588  -1.605  0.00  0.00    -0.032 C 
ATOM     34  C   UNL     1       1.015  -0.984  -1.509  0.00  0.00    +0.000 C 
ENDBRANCH  21  34
ENDBRANCH   1  21
TORSDOF 8
