REMARK  Name = ZINC32907243
REMARK  5 active torsions:
REMARK  status: ('A' for Active; 'I' for Inactive)
REMARK    1  A    between atoms: C_10  and  C_17
REMARK    2  A    between atoms: N_12  and  C_13
REMARK    3  A    between atoms: C_13  and  C_14
REMARK    4  A    between atoms: C_20  and  O_23
REMARK    5  A    between atoms: O_23  and  C_24
REMARK                            x       y       z     vdW  Elec       q    Type
REMARK                         _______ _______ _______ _____ _____    ______ ____
ROOT
ATOM      1  C   UNL     1       7.025   0.036  -1.980  0.00  0.00    +0.001 A 
ATOM      2  C   UNL     1       6.975   1.402  -1.750  0.00  0.00    +0.002 A 
ATOM      3  C   UNL     1       5.800   2.006  -1.347  0.00  0.00    +0.024 A 
ATOM      4  C   UNL     1       4.655   1.241  -1.170  0.00  0.00    +0.044 A 
ATOM      5  C   UNL     1       4.708  -0.144  -1.401  0.00  0.00    +0.058 A 
ATOM      6  C   UNL     1       5.898  -0.741  -1.808  0.00  0.00    +0.015 A 
ATOM      7  C   UNL     1       3.477  -0.936  -1.200  0.00  0.00    +0.247 C 
ATOM      8  O   UNL     1       3.361  -2.053  -1.665  0.00  0.00    -0.270 OA
ATOM      9  N   UNL     1       2.484  -0.366  -0.477  0.00  0.00    -0.289 N 
ATOM     10  C   UNL     1       2.685   0.957   0.114  0.00  0.00    +0.193 C 
ATOM     11  N   UNL     1       3.461   1.822  -0.776  0.00  0.00    -0.298 N 
ATOM     12  H   UNL     1       1.530  -0.893  -0.332  0.00  0.00    +0.151 HD
ENDROOT
BRANCH  10  13
ATOM     13  C   UNL     1       1.343   1.591   0.373  0.00  0.00    -0.009 A 
ATOM     14  C   UNL     1       0.511   1.904  -0.687  0.00  0.00    +0.010 A 
ATOM     15  C   UNL     1      -0.717   2.490  -0.452  0.00  0.00    +0.046 A 
ATOM     16  C   UNL     1      -1.121   2.756   0.848  0.00  0.00    +0.130 A 
ATOM     17  C   UNL     1      -0.285   2.441   1.909  0.00  0.00    +0.046 A 
ATOM     18  C   UNL     1       0.945   1.860   1.669  0.00  0.00    +0.010 A 
BRANCH  16  19
ATOM     19  O   UNL     1      -2.331   3.329   1.081  0.00  0.00    -0.406 OA
BRANCH  19  20
ATOM     20  C   UNL     1      -3.139   3.625  -0.059  0.00  0.00    +0.575 C 
ATOM     21  F   UNL     1      -3.411   2.444  -0.758  0.00  0.00    -0.133 F 
ATOM     22  F   UNL     1      -4.341   4.206   0.359  0.00  0.00    -0.133 F 
ATOM     23  F   UNL     1      -2.457   4.516  -0.895  0.00  0.00    -0.133 F 
ENDBRANCH  19  20
ENDBRANCH  16  19
ENDBRANCH  10  13
BRANCH  11  24
ATOM     24  C   UNL     1       3.693   3.136  -0.162  0.00  0.00    +0.202 C 
BRANCH  24  25
ATOM     25  C   UNL     1       4.544   2.972   1.071  0.00  0.00    +0.228 C 
ATOM     26  O   UNL     1       4.999   1.883   1.353  0.00  0.00    -0.274 OA
ATOM     27  N   UNL     1       4.798   4.034   1.861  0.00  0.00    -0.328 N 
ATOM     28  H   UNL     1       5.419   3.913   2.761  0.00  0.00    +0.145 HD
ATOM     29  H   UNL     1       4.385   5.021   1.606  0.00  0.00    +0.145 HD
ENDBRANCH  24  25
ENDBRANCH  11  24
TORSDOF 5
