REMARK  Name = ZINC13898983
REMARK  9 active torsions:
REMARK  status: ('A' for Active; 'I' for Inactive)
REMARK    1  A    between atoms: C_1  and  C_2
REMARK    2  A    between atoms: C_5  and  O_9
REMARK    3  A    between atoms: C_6  and  C_8
REMARK    4  A    between atoms: O_9  and  C_10
REMARK    5  A    between atoms: C_10  and  C_11
REMARK    6  A    between atoms: C_11  and  O_12
REMARK    7  A    between atoms: O_12  and  C_13
REMARK    8  A    between atoms: C_16  and  C_19
REMARK    9  A    between atoms: C_29  and  C_31
REMARK                            x       y       z     vdW  Elec       q    Type
REMARK                         _______ _______ _______ _____ _____    ______ ____
ROOT
ATOM      1  C   UNL     1      -2.002  -8.130  -0.694  0.00  0.00    +0.121 A 
ATOM      2  C   UNL     1      -0.803  -8.819  -0.848  0.00  0.00    +0.046 A 
ATOM      3  C   UNL     1      -0.707 -10.124  -0.455  0.00  0.00    +0.011 A 
ATOM      4  C   UNL     1      -1.819 -10.768   0.106  0.00  0.00    -0.024 A 
ATOM      5  C   UNL     1      -3.024 -10.068   0.259  0.00  0.00    +0.011 A 
ATOM      6  C   UNL     1      -3.107  -8.763  -0.133  0.00  0.00    +0.046 A 
ENDROOT
BRANCH   4   7
ATOM      7  C   UNL     1      -1.722 -12.167   0.530  0.00  0.00    +0.024 C 
ATOM      8  C   UNL     1      -2.385 -12.592   1.658  0.00  0.00    +0.081 C 
ATOM      9  C   UNL     1      -2.466 -14.034   2.026  0.00  0.00    +0.152 C 
ATOM     10  N   UNL     1      -1.514 -14.893   1.773  0.00  0.00    -0.283 NA
ATOM     11  N   UNL     1      -3.671 -14.381   2.673  0.00  0.00    -0.152 N 
ATOM     12  C   UNL     1      -4.361 -13.375   3.315  0.00  0.00    +0.181 C 
ATOM     13  N   UNL     1      -4.083 -12.095   3.322  0.00  0.00    -0.152 NA
ATOM     14  C   UNL     1      -3.054 -11.639   2.578  0.00  0.00    +0.273 C 
ATOM     15  O   UNL     1      -2.686 -10.477   2.655  0.00  0.00    -0.268 OA
ATOM     16  S   UNL     1      -5.691 -14.265   4.078  0.00  0.00    -0.038 S 
ATOM     17  C   UNL     1      -5.303 -15.880   3.416  0.00  0.00    +0.097 C 
ATOM     18  N   UNL     1      -4.220 -15.644   2.732  0.00  0.00    -0.170 NA
ATOM     19  C   UNL     1      -6.040 -17.181   3.602  0.00  0.00    +0.075 C 
ATOM     20  H   UNL     1      -1.618 -15.822   2.034  0.00  0.00    +0.188 HD
ENDBRANCH   4   7
BRANCH   1  21
ATOM     21  O   UNL     1      -2.092  -6.835  -1.087  0.00  0.00    -0.489 OA
BRANCH  21  22
ATOM     22  C   UNL     1      -0.921  -6.246  -1.655  0.00  0.00    +0.270 C 
BRANCH  22  23
ATOM     23  C   UNL     1      -1.213  -4.793  -2.035  0.00  0.00    +0.270 C 
BRANCH  23  24
ATOM     24  O   UNL     1      -1.481  -4.037  -0.853  0.00  0.00    -0.488 OA
BRANCH  24  29
ATOM     25  C   UNL     1      -2.646   1.433  -1.526  0.00  0.00    +0.044 C 
ATOM     26  C   UNL     1      -2.334  -0.030  -1.346  0.00  0.00    -0.050 A 
ATOM     27  C   UNL     1      -2.064  -0.820  -2.449  0.00  0.00    +0.007 A 
ATOM     28  C   UNL     1      -1.778  -2.161  -2.286  0.00  0.00    +0.046 A 
ATOM     29  C   UNL     1      -1.761  -2.717  -1.015  0.00  0.00    +0.124 A 
ATOM     30  C   UNL     1      -2.032  -1.923   0.090  0.00  0.00    -0.009 A 
ATOM     31  C   UNL     1      -2.312  -0.580  -0.077  0.00  0.00    +0.010 A 
ATOM     32  C   UNL     1      -2.014  -2.523   1.472  0.00  0.00    +0.047 C 
ENDBRANCH  24  29
ENDBRANCH  23  24
ENDBRANCH  22  23
ENDBRANCH  21  22
ENDBRANCH   1  21
TORSDOF 6
