REMARK  Name = ZINC14478051
REMARK  4 active torsions:
REMARK  status: ('A' for Active; 'I' for Inactive)
REMARK    1  A    between atoms: C_4  and  N_32
REMARK    2  A    between atoms: C_5  and  C_7
REMARK    3  A    between atoms: C_18  and  S_23
REMARK    4  A    between atoms: S_23  and  N_26
REMARK                            x       y       z     vdW  Elec       q    Type
REMARK                         _______ _______ _______ _____ _____    ______ ____
ROOT
ATOM      1  C   UNL     1      -2.539   3.888   0.118  0.00  0.00    +0.107 C 
ATOM      2  C   UNL     1      -2.752   4.450   1.526  0.00  0.00    +0.029 C 
ATOM      3  C   UNL     1      -1.417   5.120   1.965  0.00  0.00    +0.033 C 
ATOM      4  C   UNL     1      -0.586   3.953   2.461  0.00  0.00    -0.030 C 
ATOM      5  C   UNL     1      -1.357   2.945   2.787  0.00  0.00    -0.023 C 
ATOM      6  C   UNL     1      -2.806   3.298   2.549  0.00  0.00    +0.049 C 
ATOM      7  C   UNL     1      -3.583   2.118   2.057  0.00  0.00    -0.018 A 
ATOM      8  C   UNL     1      -3.925   1.121   2.962  0.00  0.00    +0.034 A 
ATOM      9  C   UNL     1      -4.645   0.018   2.551  0.00  0.00    +0.106 A 
ATOM     10  C   UNL     1      -5.034  -0.108   1.230  0.00  0.00    +0.030 A 
ATOM     11  C   UNL     1      -4.699   0.875   0.321  0.00  0.00    +0.025 A 
ATOM     12  C   UNL     1      -3.974   1.986   0.734  0.00  0.00    +0.031 A 
ATOM     13  N   UNL     1      -3.640   2.973  -0.200  0.00  0.00    -0.336 N 
ATOM     14  H   UNL     1      -4.125   3.050  -1.037  0.00  0.00    +0.147 HD
ENDROOT
BRANCH   1  19
ATOM     15  C   UNL     1       0.014   1.118   0.351  0.00  0.00    +0.000 A 
ATOM     16  C   UNL     1       1.169   1.774  -0.034  0.00  0.00    +0.002 A 
ATOM     17  C   UNL     1       1.123   3.114  -0.369  0.00  0.00    +0.033 A 
ATOM     18  C   UNL     1      -0.077   3.798  -0.320  0.00  0.00    +0.131 A 
ATOM     19  C   UNL     1      -1.231   3.142   0.064  0.00  0.00    +0.003 A 
ATOM     20  C   UNL     1      -1.187   1.801   0.394  0.00  0.00    +0.008 A 
BRANCH  18  21
ATOM     21  N   UNL     1      -0.126   5.233  -0.680  0.00  0.00    +0.057 N 
ATOM     22  O   UNL     1       0.906   5.842  -0.898  0.00  0.00    -0.126 OA
ATOM     23  O   UNL     1      -1.198   5.805  -0.757  0.00  0.00    -0.126 OA
ENDBRANCH  18  21
ENDBRANCH   1  19
BRANCH   9  24
ATOM     24  S   UNL     1      -5.069  -1.235   3.714  0.00  0.00    +0.061 S 
ATOM     25  O   UNL     1      -5.060  -0.620   4.995  0.00  0.00    -0.153 OA
ATOM     26  O   UNL     1      -6.213  -1.900   3.196  0.00  0.00    -0.153 OA
BRANCH  24  27
ATOM     27  N   UNL     1      -3.837  -2.342   3.713  0.00  0.00    -0.172 NA
ATOM     28  C   UNL     1      -3.861  -3.500   2.805  0.00  0.00    +0.137 C 
ATOM     29  C   UNL     1      -2.514  -3.559   2.067  0.00  0.00    +0.177 C 
ATOM     30  O   UNL     1      -1.453  -3.525   3.025  0.00  0.00    -0.377 OA
ATOM     31  C   UNL     1      -1.402  -2.325   3.801  0.00  0.00    +0.177 C 
ATOM     32  C   UNL     1      -2.690  -2.201   4.623  0.00  0.00    +0.137 C 
ENDBRANCH  24  27
ENDBRANCH   9  24
TORSDOF 4
