REMARK  Name = ZINC21659166
REMARK  7 active torsions:
REMARK  status: ('A' for Active; 'I' for Inactive)
REMARK    1  A    between atoms: C_1  and  N_2
REMARK    2  A    between atoms: C_8  and  C_17
REMARK    3  A    between atoms: C_21  and  O_25
REMARK    4  A    between atoms: C_22  and  O_23
REMARK    5  A    between atoms: O_23  and  C_24
REMARK    6  A    between atoms: O_25  and  C_26
REMARK    7  A    between atoms: N_29  and  C_32
REMARK                            x       y       z     vdW  Elec       q    Type
REMARK                         _______ _______ _______ _____ _____    ______ ____
ROOT
ATOM      1  C   UNL     1       0.614  -0.001   1.678  0.00  0.00    +0.154 C 
ATOM      2  N   UNL     1       0.542  -0.161   3.132  0.00  0.00    -0.294 N 
ATOM      3  C   UNL     1       0.909   0.879   3.999  0.00  0.00    +0.081 A 
ATOM      4  C   UNL     1       0.817   0.655   5.467  0.00  0.00    +0.081 A 
ATOM      5  C   UNL     1       1.232   1.803   6.062  0.00  0.00    +0.107 A 
ATOM      6  N   UNL     1       1.570   2.674   5.093  0.00  0.00    -0.314 N 
ATOM      7  C   UNL     1       1.355   2.114   3.841  0.00  0.00    +0.073 A 
ATOM      8  C   UNL     1       1.621   2.888   2.568  0.00  0.00    +0.154 C 
ATOM      9  N   UNL     1       2.633   3.913   2.865  0.00  0.00    -0.330 N 
ATOM     10  C   UNL     1       2.610   4.594   4.088  0.00  0.00    +0.052 A 
ATOM     11  C   UNL     1       2.093   3.970   5.227  0.00  0.00    +0.067 A 
ATOM     12  C   UNL     1       2.100   4.623   6.444  0.00  0.00    +0.028 A 
ATOM     13  C   UNL     1       2.609   5.908   6.531  0.00  0.00    +0.002 A 
ATOM     14  C   UNL     1       3.107   6.534   5.404  0.00  0.00    +0.002 A 
ATOM     15  C   UNL     1       3.109   5.883   4.184  0.00  0.00    +0.025 A 
ATOM     16  C   UNL     1       0.341  -0.644   5.963  0.00  0.00    +0.266 A 
ATOM     17  O   UNL     1       0.241  -0.889   7.150  0.00  0.00    -0.267 OA
ATOM     18  N   UNL     1       0.021  -1.552   5.005  0.00  0.00    -0.263 N 
ATOM     19  C   UNL     1       0.120  -1.315   3.694  0.00  0.00    +0.332 A 
ATOM     20  O   UNL     1      -0.198  -2.216   2.941  0.00  0.00    -0.246 OA
ATOM     21  C   UNL     1      -0.461  -2.867   5.434  0.00  0.00    +0.157 C 
ATOM     22  H   UNL     1       3.413   4.147   2.125  0.00  0.00    +0.147 HD
ENDROOT
BRANCH   8  23
ATOM     23  C   UNL     1       0.350   3.548   2.098  0.00  0.00    +0.024 A 
ATOM     24  C   UNL     1      -0.715   3.696   2.968  0.00  0.00    +0.010 A 
ATOM     25  C   UNL     1      -1.884   4.295   2.537  0.00  0.00    +0.004 A 
ATOM     26  C   UNL     1      -1.991   4.754   1.237  0.00  0.00    +0.049 A 
ATOM     27  C   UNL     1      -0.926   4.613   0.363  0.00  0.00    +0.162 A 
ATOM     28  C   UNL     1       0.251   4.010   0.796  0.00  0.00    +0.167 A 
BRANCH  28  29
ATOM     29  O   UNL     1       1.300   3.870  -0.059  0.00  0.00    -0.491 OA
ATOM     30  C   UNL     1       2.169   4.994  -0.208  0.00  0.00    +0.277 C 
ENDBRANCH  28  29
BRANCH  27  31
ATOM     31  O   UNL     1      -1.030   5.064  -0.916  0.00  0.00    -0.491 OA
ATOM     32  C   UNL     1      -2.268   5.673  -1.290  0.00  0.00    +0.277 C 
ENDBRANCH  27  31
ENDBRANCH   8  23
TORSDOF 3
