REMARK  Name = ZINC63637730
REMARK  6 active torsions:
REMARK  status: ('A' for Active; 'I' for Inactive)
REMARK    1  A    between atoms: C_1  and  O_2
REMARK    2  A    between atoms: O_2  and  C_3
REMARK    3  A    between atoms: C_7  and  C_11
REMARK    4  A    between atoms: C_8  and  O_9
REMARK    5  A    between atoms: O_9  and  C_10
REMARK    6  A    between atoms: C_28  and  C_31
REMARK                            x       y       z     vdW  Elec       q    Type
REMARK                         _______ _______ _______ _____ _____    ______ ____
ROOT
ATOM      1  C   UNL     1       1.795  -3.983  -2.151  0.00  0.00    +0.076 C 
ATOM      2  C   UNL     1       3.312  -4.178  -2.124  0.00  0.00    +0.148 C 
ATOM      3  C   UNL     1       3.839  -3.835  -3.497  0.00  0.00    +0.106 C 
ATOM      4  N   UNL     1       4.745  -2.927  -3.686  0.00  0.00    -0.151 NA
ATOM      5  C   UNL     1       5.265  -2.206  -2.683  0.00  0.00    +0.331 C 
ATOM      6  O   UNL     1       6.130  -1.386  -2.927  0.00  0.00    -0.250 OA
ATOM      7  N   UNL     1       4.854  -2.367  -1.415  0.00  0.00    -0.238 N 
ATOM      8  C   UNL     1       3.927  -3.287  -1.084  0.00  0.00    +0.231 C 
ATOM      9  O   UNL     1       3.578  -3.397   0.072  0.00  0.00    -0.275 OA
ATOM     10  N   UNL     1       3.297  -4.528  -4.545  0.00  0.00    -0.307 N 
ATOM     11  C   UNL     1       1.952  -4.822  -4.505  0.00  0.00    +0.017 C 
ATOM     12  C   UNL     1       1.213  -4.589  -3.407  0.00  0.00    +0.021 C 
ATOM     13  C   UNL     1      -0.161  -4.905  -3.388  0.00  0.00    +0.162 C 
ATOM     14  O   UNL     1      -0.802  -4.709  -2.375  0.00  0.00    -0.292 OA
ATOM     15  C   UNL     1      -0.850  -5.478  -4.595  0.00  0.00    +0.088 C 
ATOM     16  C   UNL     1      -0.119  -5.003  -5.856  0.00  0.00    +0.039 C 
ATOM     17  C   UNL     1       1.337  -5.425  -5.746  0.00  0.00    +0.060 C 
ATOM     18  H   UNL     1       5.236  -1.810  -0.719  0.00  0.00    +0.159 HD
ATOM     19  H   UNL     1       3.845  -4.804  -5.296  0.00  0.00    +0.153 HD
ENDROOT
BRANCH   1  24
ATOM     20  C   UNL     1       0.639  -0.583  -0.953  0.00  0.00    +0.162 A 
ATOM     21  C   UNL     1       0.907   0.201  -2.063  0.00  0.00    +0.049 A 
ATOM     22  C   UNL     1       1.460  -0.368  -3.195  0.00  0.00    +0.004 A 
ATOM     23  C   UNL     1       1.747  -1.720  -3.222  0.00  0.00    +0.008 A 
ATOM     24  C   UNL     1       1.482  -2.509  -2.118  0.00  0.00    +0.007 A 
ATOM     25  C   UNL     1       0.933  -1.943  -0.978  0.00  0.00    +0.165 A 
BRANCH  20  27
ATOM     26  C   UNL     1      -0.180   1.377   0.116  0.00  0.00    +0.277 C 
ATOM     27  O   UNL     1       0.095  -0.024   0.161  0.00  0.00    -0.491 OA
ENDBRANCH  20  27
BRANCH  25  28
ATOM     28  O   UNL     1       0.677  -2.716   0.111  0.00  0.00    -0.491 OA
ATOM     29  C   UNL     1      -0.661  -3.192   0.268  0.00  0.00    +0.277 C 
ENDBRANCH  25  28
ENDBRANCH   1  24
BRANCH  16  30
ATOM     30  C   UNL     1      -0.742  -5.637  -7.073  0.00  0.00    -0.006 A 
ATOM     31  C   UNL     1      -1.323  -5.041  -8.143  0.00  0.00    +0.011 A 
ATOM     32  C   UNL     1      -1.832  -5.832  -9.156  0.00  0.00    +0.008 A 
ATOM     33  C   UNL     1      -1.735  -7.180  -9.049  0.00  0.00    +0.045 A 
ATOM     34  S   UNL     1      -0.898  -7.367  -7.484  0.00  0.00    -0.101 S 
ENDBRANCH  16  30
TORSDOF 4
