REMARK  Name = ZINC13816175
REMARK  6 active torsions:
REMARK  status: ('A' for Active; 'I' for Inactive)
REMARK    1  A    between atoms: C_1  and  C_2
REMARK    2  A    between atoms: C_2  and  N_3
REMARK    3  A    between atoms: C_25  and  N_31
REMARK    4  A    between atoms: C_26  and  C_27
REMARK    5  A    between atoms: C_27  and  O_29
REMARK    6  A    between atoms: O_29  and  C_30
REMARK                            x       y       z     vdW  Elec       q    Type
REMARK                         _______ _______ _______ _____ _____    ______ ____
ROOT
ATOM      1  N   UNL     1       2.054   3.936   0.088  0.00  0.00    -0.270 N 
ATOM      2  C   UNL     1       0.983   3.061   0.050  0.00  0.00    +0.041 A 
ATOM      3  C   UNL     1       0.979   1.665   0.031  0.00  0.00    +0.024 A 
ATOM      4  C   UNL     1      -0.255   1.035  -0.008  0.00  0.00    +0.002 A 
ATOM      5  C   UNL     1      -1.438   1.746  -0.033  0.00  0.00    +0.000 A 
ATOM      6  C   UNL     1      -1.448   3.136  -0.009  0.00  0.00    +0.007 A 
ATOM      7  C   UNL     1      -0.224   3.769   0.031  0.00  0.00    -0.002 A 
ATOM      8  C   UNL     1       0.140   5.221   0.061  0.00  0.00    +0.145 C 
ATOM      9  C   UNL     1       1.654   5.225   0.096  0.00  0.00    +0.240 C 
ATOM     10  O   UNL     1       2.372   6.202   0.127  0.00  0.00    -0.274 OA
ATOM     11  C   UNL     1      -0.347   5.921  -1.176  0.00  0.00    +0.104 A 
ATOM     12  C   UNL     1      -1.413   6.770  -1.115  0.00  0.00    +0.152 A 
ATOM     13  C   UNL     1      -1.849   7.429  -2.355  0.00  0.00    +0.060 A 
ATOM     14  C   UNL     1      -2.936   8.307  -2.361  0.00  0.00    +0.015 A 
ATOM     15  C   UNL     1      -3.317   8.908  -3.540  0.00  0.00    +0.001 A 
ATOM     16  C   UNL     1      -2.629   8.646  -4.715  0.00  0.00    +0.004 A 
ATOM     17  C   UNL     1      -1.555   7.781  -4.723  0.00  0.00    +0.047 A 
ATOM     18  C   UNL     1      -1.154   7.163  -3.545  0.00  0.00    +0.143 A 
ATOM     19  O   UNL     1      -0.105   6.313  -3.534  0.00  0.00    -0.422 OA
ATOM     20  C   UNL     1       0.299   5.706  -2.406  0.00  0.00    +0.346 A 
ATOM     21  O   UNL     1       1.250   4.946  -2.451  0.00  0.00    -0.245 OA
ATOM     22  O   UNL     1      -2.058   7.007   0.043  0.00  0.00    -0.440 OA
ATOM     23  C   UNL     1      -1.463   6.732   1.217  0.00  0.00    +0.196 C 
ATOM     24  C   UNL     1      -0.404   5.884   1.294  0.00  0.00    +0.117 C 
ENDROOT
BRANCH  23  25
ATOM     25  N   UNL     1      -1.934   7.321   2.360  0.00  0.00    -0.329 N 
ATOM     26  H   UNL     1      -1.314   7.614   3.045  0.00  0.00    +0.145 HD
ATOM     27  H   UNL     1      -2.888   7.444   2.484  0.00  0.00    +0.145 HD
ENDBRANCH  23  25
BRANCH   1  29
ATOM     28  C   UNL     1       3.979   3.387  -1.316  0.00  0.00    +0.025 C 
ATOM     29  C   UNL     1       3.456   3.514   0.116  0.00  0.00    +0.110 C 
ENDBRANCH   1  29
BRANCH  24  30
ATOM     30  C   UNL     1       0.187   5.624   2.540  0.00  0.00    +0.341 C 
ATOM     31  O   UNL     1      -0.192   6.223   3.531  0.00  0.00    -0.245 OA
BRANCH  30  32
ATOM     32  O   UNL     1       1.177   4.711   2.640  0.00  0.00    -0.465 OA
ATOM     33  C   UNL     1       1.734   4.497   3.939  0.00  0.00    +0.280 C 
ENDBRANCH  30  32
ENDBRANCH  24  30
TORSDOF 4
