REMARK  Name = ZINC35646334
REMARK  11 active torsions:
REMARK  status: ('A' for Active; 'I' for Inactive)
REMARK    1  A    between atoms: C_1  and  C_2
REMARK    2  A    between atoms: C_2  and  O_3
REMARK    3  A    between atoms: O_3  and  C_4
REMARK    4  A    between atoms: C_4  and  C_6
REMARK    5  A    between atoms: C_7  and  C_23
REMARK    6  A    between atoms: N_8  and  C_22
REMARK    7  A    between atoms: C_12  and  C_14
REMARK    8  A    between atoms: C_16  and  C_21
REMARK    9  A    between atoms: C_19  and  C_20
REMARK   10  A    between atoms: C_23  and  N_24
REMARK   11  A    between atoms: C_31  and  C_33
REMARK                            x       y       z     vdW  Elec       q    Type
REMARK                         _______ _______ _______ _____ _____    ______ ____
ROOT
ATOM      1  C   UNL     1       2.841  -1.604   2.134  0.00  0.00    +0.076 C 
ATOM      2  C   UNL     1       2.457  -2.898   2.071  0.00  0.00    +0.010 C 
ATOM      3  N   UNL     1       2.252  -3.629   3.206  0.00  0.00    -0.264 N 
ATOM      4  C   UNL     1       2.408  -3.139   4.442  0.00  0.00    +0.307 C 
ATOM      5  O   UNL     1       2.202  -3.868   5.393  0.00  0.00    -0.252 OA
ATOM      6  N   UNL     1       2.787  -1.866   4.667  0.00  0.00    -0.288 N 
ATOM      7  C   UNL     1       3.040  -0.995   3.507  0.00  0.00    +0.144 C 
ATOM      8  C   UNL     1       1.837  -5.026   3.063  0.00  0.00    +0.139 C 
ATOM      9  H   UNL     1       2.894  -1.532   5.571  0.00  0.00    +0.151 HD
ENDROOT
BRANCH   7  10
ATOM     10  C   UNL     1       2.129   0.200   3.621  0.00  0.00    -0.019 A 
ATOM     11  C   UNL     1       1.035   0.318   2.784  0.00  0.00    +0.009 A 
ATOM     12  C   UNL     1       0.200   1.414   2.889  0.00  0.00    -0.050 A 
ATOM     13  C   UNL     1       0.457   2.392   3.832  0.00  0.00    +0.003 A 
ATOM     14  C   UNL     1       1.550   2.273   4.670  0.00  0.00    +0.004 A 
ATOM     15  C   UNL     1       2.383   1.175   4.567  0.00  0.00    -0.045 A 
ATOM     16  C   UNL     1       3.572   1.043   5.485  0.00  0.00    +0.044 C 
ATOM     17  C   UNL     1      -0.992   1.543   1.975  0.00  0.00    +0.044 C 
ENDBRANCH   7  10
BRANCH   1  18
ATOM     18  C   UNL     1       3.054  -0.846   0.959  0.00  0.00    +0.339 C 
ATOM     19  O   UNL     1       2.869  -1.351  -0.133  0.00  0.00    -0.245 OA
BRANCH  18  20
ATOM     20  O   UNL     1       3.462   0.437   1.049  0.00  0.00    -0.462 OA
BRANCH  20  22
ATOM     21  C   UNL     1       3.909   2.631   0.140  0.00  0.00    +0.048 C 
ATOM     22  C   UNL     1       3.549   1.177  -0.171  0.00  0.00    +0.229 C 
ENDBRANCH  20  22
ENDBRANCH  18  20
ENDBRANCH   1  18
BRANCH   2  23
ATOM     23  C   UNL     1       2.252  -3.545   0.725  0.00  0.00    -0.026 C 
BRANCH  23  24
ATOM     24  N   UNL     1       3.550  -3.971   0.184  0.00  0.00    +0.384 N 
ATOM     25  C   UNL     1       3.355  -4.399  -1.200  0.00  0.00    -0.077 C 
ATOM     26  C   UNL     1       4.625  -4.152  -1.983  0.00  0.00    +0.000 C 
ATOM     27  C   UNL     1       5.487  -5.428  -1.976  0.00  0.00    +0.106 C 
ATOM     28  N   UNL     1       5.452  -6.086  -0.654  0.00  0.00    -0.299 N 
ATOM     29  C   UNL     1       5.516  -5.339   0.585  0.00  0.00    +0.089 C 
ATOM     30  C   UNL     1       4.089  -4.956   1.041  0.00  0.00    -0.059 C 
ATOM     31  C   UNL     1       5.356  -7.429  -0.600  0.00  0.00    +0.249 C 
ATOM     32  O   UNL     1       5.229  -7.986   0.473  0.00  0.00    -0.270 OA
ATOM     33  H   UNL     1       4.170  -3.175   0.184  0.00  0.00    -0.081 HD
BRANCH  31  34
ATOM     34  C   UNL     1       5.405  -8.224  -1.843  0.00  0.00    +0.072 A 
ATOM     35  C   UNL     1       6.363  -7.941  -2.820  0.00  0.00    +0.016 A 
ATOM     36  C   UNL     1       6.404  -8.688  -3.978  0.00  0.00    +0.001 A 
ATOM     37  C   UNL     1       5.498  -9.716  -4.177  0.00  0.00    +0.003 A 
ATOM     38  C   UNL     1       4.546 -10.003  -3.217  0.00  0.00    +0.039 A 
ATOM     39  C   UNL     1       4.496  -9.267  -2.047  0.00  0.00    +0.135 A 
ATOM     40  F   UNL     1       3.569  -9.551  -1.106  0.00  0.00    -0.205 F 
ENDBRANCH  31  34
ENDBRANCH  23  24
ENDBRANCH   2  23
TORSDOF 7
