REMARK  Name = ZINC23055625
REMARK  10 active torsions:
REMARK  status: ('A' for Active; 'I' for Inactive)
REMARK    1  A    between atoms: C_1  and  C_2
REMARK    2  A    between atoms: C_2  and  N_3
REMARK    3  A    between atoms: N_3  and  C_4
REMARK    4  A    between atoms: C_5  and  N_20
REMARK    5  A    between atoms: N_6  and  C_13
REMARK    6  A    between atoms: C_13  and  C_14
REMARK    7  A    between atoms: C_21  and  C_23
REMARK    8  A    between atoms: C_23  and  S_24
REMARK    9  A    between atoms: S_24  and  C_25
REMARK   10  A    between atoms: C_26  and  C_35
REMARK                            x       y       z     vdW  Elec       q    Type
REMARK                         _______ _______ _______ _____ _____    ______ ____
ROOT
ATOM      1  C   UNL     1       1.160   2.937   0.046  0.00  0.00    +0.140 A 
ATOM      2  C   UNL     1       0.749   2.269   1.181  0.00  0.00    +0.128 A 
ATOM      3  N   UNL     1      -0.425   1.551   1.149  0.00  0.00    -0.276 N 
ATOM      4  C   UNL     1      -1.165   1.506   0.027  0.00  0.00    +0.331 A 
ATOM      5  O   UNL     1      -2.201   0.870   0.021  0.00  0.00    -0.246 OA
ATOM      6  N   UNL     1      -0.777   2.146  -1.090  0.00  0.00    -0.273 N 
ATOM      7  H   UNL     1      -1.393   2.088  -2.000  0.00  0.00    +0.173 HD
ATOM      8  C   UNL     1       0.364   2.863  -1.113  0.00  0.00    +0.277 A 
ATOM      9  O   UNL     1       0.704   3.443  -2.130  0.00  0.00    -0.266 OA
ENDROOT
BRANCH   1  10
ATOM     10  N   UNL     1       2.359   3.681   0.046  0.00  0.00    -0.264 N 
ATOM     11  C   UNL     1       2.319   5.023  -0.093  0.00  0.00    +0.230 C 
ATOM     12  O   UNL     1       1.252   5.598  -0.129  0.00  0.00    -0.274 OA
BRANCH  10  14
ATOM     13  C   UNL     1       4.247   2.731  -1.183  0.00  0.00    +0.025 C 
ATOM     14  C   UNL     1       3.646   2.998   0.198  0.00  0.00    +0.110 C 
ENDBRANCH  10  14
BRANCH  11  15
ATOM     15  C   UNL     1       3.602   5.807  -0.205  0.00  0.00    +0.172 C 
BRANCH  15  16
ATOM     16  S   UNL     1       3.219   7.567  -0.380  0.00  0.00    -0.095 S 
BRANCH  16  17
ATOM     17  C   UNL     1       4.850   8.225  -0.486  0.00  0.00    +0.119 A 
ATOM     18  C   UNL     1       5.035   9.612  -0.636  0.00  0.00    +0.071 A 
ATOM     19  N   UNL     1       6.241  10.119  -0.716  0.00  0.00    -0.248 NA
ATOM     20  C   UNL     1       7.309   9.313  -0.656  0.00  0.00    +0.090 A 
ATOM     21  C   UNL     1       8.612   9.833  -0.739  0.00  0.00    +0.030 A 
ATOM     22  C   UNL     1       9.680   8.991  -0.675  0.00  0.00    +0.002 A 
ATOM     23  C   UNL     1       9.502   7.617  -0.528  0.00  0.00    +0.002 A 
ATOM     24  C   UNL     1       8.255   7.079  -0.445  0.00  0.00    +0.030 A 
ATOM     25  C   UNL     1       7.128   7.916  -0.506  0.00  0.00    +0.090 A 
ATOM     26  N   UNL     1       5.890   7.414  -0.420  0.00  0.00    -0.237 NA
ATOM     27  C   UNL     1       3.836  10.522  -0.703  0.00  0.00    +0.068 C 
ENDBRANCH  16  17
ENDBRANCH  15  16
ENDBRANCH  11  15
ENDBRANCH   1  10
BRANCH   2  28
ATOM     28  N   UNL     1       1.502   2.319   2.329  0.00  0.00    -0.343 N 
ATOM     29  H   UNL     1       1.168   1.784   3.230  0.00  0.00    +0.144 HD
ATOM     30  H   UNL     1       2.440   2.894   2.347  0.00  0.00    +0.144 HD
ENDBRANCH   2  28
BRANCH   3  31
ATOM     31  C   UNL     1      -0.874   0.837   2.347  0.00  0.00    +0.163 C 
BRANCH  31  32
ATOM     32  C   UNL     1      -1.744   1.746   3.177  0.00  0.00    -0.028 A 
ATOM     33  C   UNL     1      -1.177   2.544   4.153  0.00  0.00    +0.005 A 
ATOM     34  C   UNL     1      -1.975   3.381   4.911  0.00  0.00    +0.000 A 
ATOM     35  C   UNL     1      -3.341   3.412   4.699  0.00  0.00    +0.000 A 
ATOM     36  C   UNL     1      -3.908   2.610   3.727  0.00  0.00    +0.000 A 
ATOM     37  C   UNL     1      -3.110   1.777   2.966  0.00  0.00    +0.005 A 
ENDBRANCH  31  32
ENDBRANCH   3  31
TORSDOF 8
