REMARK  Name = ZINC24689254
REMARK  6 active torsions:
REMARK  status: ('A' for Active; 'I' for Inactive)
REMARK    1  A    between atoms: C_1  and  C_2
REMARK    2  A    between atoms: C_5  and  S_9
REMARK    3  A    between atoms: S_9  and  N_12
REMARK    4  A    between atoms: N_12  and  C_13
REMARK    5  A    between atoms: C_13  and  C_20
REMARK    6  A    between atoms: C_22  and  C_25
REMARK                            x       y       z     vdW  Elec       q    Type
REMARK                         _______ _______ _______ _____ _____    ______ ____
ROOT
ATOM      1  N   UNL     1      -2.725   1.515   1.021  0.00  0.00    -0.176 NA
ATOM      2  H   UNL     1      -3.705   1.880   1.363  0.00  0.00    +0.149 HD
ENDROOT
BRANCH   1   3
ATOM      3  C   UNL     1      -1.500   2.199   1.443  0.00  0.00    +0.102 C 
ATOM      4  C   UNL     1      -0.572   2.395   0.227  0.00  0.00    +0.032 C 
ATOM      5  C   UNL     1      -1.305   2.759  -0.976  0.00  0.00    +0.002 C 
ATOM      6  C   UNL     1      -2.051   4.101  -0.827  0.00  0.00    +0.000 C 
ATOM      7  C   UNL     1      -3.326   3.856  -0.066  0.00  0.00    +0.000 C 
ATOM      8  C   UNL     1      -3.168   4.104   1.446  0.00  0.00    +0.002 C 
ATOM      9  C   UNL     1      -1.842   3.553   2.006  0.00  0.00    +0.032 C 
BRANCH   3  10
ATOM     10  C   UNL     1      -0.794   1.379   2.492  0.00  0.00    +0.193 A 
ATOM     11  N   UNL     1      -1.303   0.992   3.675  0.00  0.00    -0.194 NA
ATOM     12  C   UNL     1      -0.353   0.303   4.260  0.00  0.00    +0.224 A 
ATOM     13  O   UNL     1       0.693   0.301   3.428  0.00  0.00    -0.338 OA
ATOM     14  N   UNL     1       0.420   0.921   2.422  0.00  0.00    -0.059 NA
ATOM     15  C   UNL     1      -0.424  -0.354   5.614  0.00  0.00    +0.112 C 
ENDBRANCH   3  10
ENDBRANCH   1   3
BRANCH   1  16
ATOM     16  S   UNL     1      -2.633   0.058   0.239  0.00  0.00    +0.061 S 
ATOM     17  O   UNL     1      -3.843  -0.087  -0.492  0.00  0.00    -0.153 OA
ATOM     18  O   UNL     1      -1.357   0.011  -0.383  0.00  0.00    -0.153 OA
BRANCH  16  23
ATOM     19  C   UNL     1      -2.651  -4.244   4.470  0.00  0.00    +0.044 C 
ATOM     20  C   UNL     1      -2.646  -3.169   3.414  0.00  0.00    -0.049 A 
ATOM     21  C   UNL     1      -3.841  -2.655   2.945  0.00  0.00    +0.005 A 
ATOM     22  C   UNL     1      -3.837  -1.670   1.976  0.00  0.00    +0.030 A 
ATOM     23  C   UNL     1      -2.638  -1.198   1.475  0.00  0.00    +0.124 A 
ATOM     24  C   UNL     1      -1.442  -1.715   1.940  0.00  0.00    +0.068 A 
ATOM     25  C   UNL     1      -1.447  -2.698   2.914  0.00  0.00    +0.025 A 
ATOM     26 CL   UNL     1       0.063  -1.128   1.305  0.00  0.00    -0.082 Cl
ENDBRANCH  16  23
ENDBRANCH   1  16
TORSDOF 4
