REMARK  Name = ZINC63294240
REMARK  4 active torsions:
REMARK  status: ('A' for Active; 'I' for Inactive)
REMARK    1  A    between atoms: C_1  and  C_2
REMARK    2  A    between atoms: C_2  and  N_9
REMARK    3  A    between atoms: C_10  and  C_12
REMARK    4  A    between atoms: C_12  and  N_13
REMARK                            x       y       z     vdW  Elec       q    Type
REMARK                         _______ _______ _______ _____ _____    ______ ____
ROOT
ATOM      1  N   UNL     1      -4.421  -0.137  -2.000  0.00  0.00    -0.291 N 
ATOM      2  C   UNL     1      -5.719  -0.462  -2.161  0.00  0.00    +0.303 C 
ATOM      3  O   UNL     1      -6.247  -1.249  -1.400  0.00  0.00    -0.253 OA
ATOM      4  N   UNL     1      -6.431   0.086  -3.166  0.00  0.00    -0.283 N 
ATOM      5  C   UNL     1      -5.758   0.939  -4.151  0.00  0.00    +0.114 C 
ATOM      6  C   UNL     1      -5.971   0.359  -5.561  0.00  0.00    +0.052 C 
ATOM      7  C   UNL     1      -7.432  -0.001  -5.665  0.00  0.00    -0.036 C 
ATOM      8  C   UNL     1      -8.351   0.311  -6.570  0.00  0.00    -0.001 A 
ATOM      9  C   UNL     1      -8.259   1.025  -7.854  0.00  0.00    +0.010 A 
ATOM     10  C   UNL     1      -9.425   1.189  -8.534  0.00  0.00    +0.001 A 
ATOM     11  C   UNL     1     -10.658   0.721  -8.070  0.00  0.00    +0.002 A 
ATOM     12  C   UNL     1     -10.834   0.048  -6.905  0.00  0.00    +0.026 A 
ATOM     13  C   UNL     1      -9.679  -0.194  -6.106  0.00  0.00    +0.043 A 
ATOM     14  N   UNL     1      -9.556  -0.824  -4.975  0.00  0.00    -0.376 N 
ATOM     15  C   UNL     1      -8.138  -0.850  -4.614  0.00  0.00    +0.124 C 
ATOM     16  C   UNL     1      -7.874  -0.183  -3.266  0.00  0.00    +0.138 C 
ATOM     17  H   UNL     1      -3.979   0.434  -2.648  0.00  0.00    +0.151 HD
ATOM     18  H   UNL     1     -10.280  -1.209  -4.458  0.00  0.00    +0.160 HD
ENDROOT
BRANCH   1  19
ATOM     19  C   UNL     1      -3.676  -0.646  -0.845  0.00  0.00    +0.201 C 
BRANCH  19  21
ATOM     20  N   UNL     1      -1.382  -0.482   0.067  0.00  0.00    -0.307 N 
ATOM     21  C   UNL     1      -2.257  -0.140  -0.900  0.00  0.00    +0.231 C 
ATOM     22  O   UNL     1      -1.903   0.576  -1.813  0.00  0.00    -0.274 OA
ATOM     23  H   UNL     1      -1.666  -1.054   0.797  0.00  0.00    +0.149 HD
BRANCH  20  25
ATOM     24  C   UNL     1      -0.029   1.540   0.026  0.00  0.00    +0.033 C 
ATOM     25  C   UNL     1      -0.004   0.010   0.014  0.00  0.00    +0.053 C 
ATOM     26  C   UNL     1       0.630  -0.459  -1.296  0.00  0.00    +0.049 C 
ATOM     27  C   UNL     1       2.167  -0.612  -1.125  0.00  0.00    +0.168 C 
ATOM     28  S   UNL     1       2.218  -1.338   0.572  0.00  0.00    -0.029 S 
ATOM     29  O   UNL     1       3.385  -0.880   1.242  0.00  0.00    -0.174 OA
ATOM     30  O   UNL     1       1.955  -2.732   0.493  0.00  0.00    -0.174 OA
ATOM     31  C   UNL     1       0.745  -0.481   1.268  0.00  0.00    +0.191 C 
ENDBRANCH  20  25
ENDBRANCH  19  21
ENDBRANCH   1  19
TORSDOF 3
