REMARK  Name = ZINC40839582
REMARK  4 active torsions:
REMARK  status: ('A' for Active; 'I' for Inactive)
REMARK    1  A    between atoms: C_10  and  C_13
REMARK    2  A    between atoms: C_13  and  C_14
REMARK    3  A    between atoms: C_19  and  C_22
REMARK    4  A    between atoms: C_25  and  N_28
REMARK                            x       y       z     vdW  Elec       q    Type
REMARK                         _______ _______ _______ _____ _____    ______ ____
ROOT
ATOM      1  C   UNL     1       4.815  -1.711   2.839  0.00  0.00    +0.220 C 
ATOM      2  O   UNL     1       5.762  -1.647   2.085  0.00  0.00    -0.275 OA
ATOM      3  N   UNL     1       4.975  -1.431   4.148  0.00  0.00    -0.265 N 
ATOM      4  C   UNL     1       6.226  -1.069   4.633  0.00  0.00    +0.165 A 
ATOM      5  N   UNL     1       6.588  -0.765   5.865  0.00  0.00    -0.225 NA
ATOM      6  C   UNL     1       7.840  -0.440   6.153  0.00  0.00    +0.080 A 
ATOM      7  C   UNL     1       8.774  -0.417   5.156  0.00  0.00    +0.076 A 
ATOM      8  S   UNL     1       7.773  -0.899   3.754  0.00  0.00    -0.060 S 
ATOM      9  H   UNL     1       4.218  -1.483   4.751  0.00  0.00    +0.157 HD
ENDROOT
BRANCH   6  10
ATOM     10  C   UNL     1       8.223  -0.101   7.546  0.00  0.00    +0.001 A 
ATOM     11  C   UNL     1       9.539   0.247   7.844  0.00  0.00    +0.012 A 
ATOM     12  C   UNL     1       9.890   0.560   9.141  0.00  0.00    +0.033 A 
ATOM     13  C   UNL     1       8.938   0.529  10.145  0.00  0.00    +0.126 A 
ATOM     14  C   UNL     1       7.631   0.184   9.855  0.00  0.00    +0.033 A 
ATOM     15  C   UNL     1       7.267  -0.125   8.560  0.00  0.00    +0.012 A 
BRANCH  13  16
ATOM     16  N   UNL     1       9.321   0.866  11.535  0.00  0.00    +0.056 N 
ATOM     17  O   UNL     1      10.464   1.167  11.791  0.00  0.00    -0.126 OA
ATOM     18  O   UNL     1       8.492   0.839  12.414  0.00  0.00    -0.126 OA
ENDBRANCH  13  16
ENDBRANCH   6  10
BRANCH   1  19
ATOM     19  C   UNL     1       3.458  -2.104   2.314  0.00  0.00    +0.120 C 
BRANCH  19  29
ATOM     20  C   UNL     1      -0.017   1.377   0.010  0.00  0.00    +0.002 A 
ATOM     21  C   UNL     1       1.166   2.094   0.002  0.00  0.00    +0.001 A 
ATOM     22  C   UNL     1       2.377   1.426  -0.018  0.00  0.00    +0.016 A 
ATOM     23  C   UNL     1       2.401   0.041  -0.027  0.00  0.00    +0.030 A 
ATOM     24  C   UNL     1       1.213  -0.690  -0.012  0.00  0.00    +0.047 A 
ATOM     25  C   UNL     1       0.002  -0.004   0.002  0.00  0.00    +0.024 A 
ATOM     26  N   UNL     1       1.206  -2.081   0.003  0.00  0.00    -0.284 N 
ATOM     27  C   UNL     1       2.227  -2.877   0.302  0.00  0.00    +0.231 C 
ATOM     28  O   UNL     1       2.087  -4.073   0.160  0.00  0.00    -0.274 OA
ATOM     29  C   UNL     1       3.550  -2.366   0.809  0.00  0.00    +0.146 C 
ATOM     30  S   UNL     1       3.943  -0.818  -0.063  0.00  0.00    -0.110 S 
ATOM     31  H   UNL     1       0.369  -2.514  -0.229  0.00  0.00    +0.155 HD
ENDBRANCH  19  29
ENDBRANCH   1  19
TORSDOF 4
