REMARK  Name = ZINC08371397
REMARK  3 active torsions:
REMARK  status: ('A' for Active; 'I' for Inactive)
REMARK    1  A    between atoms: C_1  and  C_2
REMARK    2  A    between atoms: C_9  and  C_18
REMARK    3  A    between atoms: C_23  and  N_24
REMARK                            x       y       z     vdW  Elec       q    Type
REMARK                         _______ _______ _______ _____ _____    ______ ____
ROOT
ATOM      1  C   UNL     1       5.310   3.371   2.313  0.00  0.00    +0.045 C 
ATOM      2  C   UNL     1       4.483   2.256   1.726  0.00  0.00    -0.029 A 
ATOM      3  C   UNL     1       4.938   0.958   1.804  0.00  0.00    +0.006 A 
ATOM      4  C   UNL     1       4.191  -0.075   1.271  0.00  0.00    +0.020 A 
ATOM      5  C   UNL     1       2.985   0.202   0.652  0.00  0.00    +0.046 A 
ATOM      6  C   UNL     1       2.525   1.499   0.565  0.00  0.00    -0.001 A 
ATOM      7  C   UNL     1       3.265   2.551   1.111  0.00  0.00    +0.036 A 
ATOM      8  N   UNL     1       2.863   3.885   1.086  0.00  0.00    -0.336 N 
ATOM      9  C   UNL     1       1.617   4.188   0.364  0.00  0.00    +0.107 C 
ATOM     10  C   UNL     1       0.651   3.057   0.651  0.00  0.00    +0.029 C 
ATOM     11  C   UNL     1       1.247   1.829  -0.104  0.00  0.00    +0.050 C 
ATOM     12  C   UNL     1       0.106   0.883  -0.160  0.00  0.00    -0.023 C 
ATOM     13  C   UNL     1      -1.023   1.582  -0.158  0.00  0.00    -0.030 C 
ATOM     14  C   UNL     1      -0.710   3.077  -0.053  0.00  0.00    +0.033 C 
ATOM     15 CL   UNL     1       2.044  -1.093  -0.020  0.00  0.00    -0.083 Cl
ATOM     16  H   UNL     1       3.615   4.483   0.776  0.00  0.00    +0.147 HD
ENDROOT
BRANCH   9  17
ATOM     17  C   UNL     1       1.887   4.269  -1.116  0.00  0.00    +0.003 A 
ATOM     18  C   UNL     1       2.998   3.643  -1.651  0.00  0.00    +0.008 A 
ATOM     19  C   UNL     1       3.246   3.718  -3.009  0.00  0.00    +0.000 A 
ATOM     20  C   UNL     1       2.382   4.416  -3.832  0.00  0.00    +0.002 A 
ATOM     21  C   UNL     1       1.271   5.040  -3.298  0.00  0.00    +0.033 A 
ATOM     22  C   UNL     1       1.021   4.963  -1.940  0.00  0.00    +0.131 A 
BRANCH  22  23
ATOM     23  N   UNL     1      -0.172   5.627  -1.368  0.00  0.00    +0.057 N 
ATOM     24  O   UNL     1      -1.223   5.624  -1.982  0.00  0.00    -0.126 OA
ATOM     25  O   UNL     1      -0.102   6.176  -0.283  0.00  0.00    -0.126 OA
ENDBRANCH  22  23
ENDBRANCH   9  17
TORSDOF 2
