REMARK  Name = ZINC39785757
REMARK  9 active torsions:
REMARK  status: ('A' for Active; 'I' for Inactive)
REMARK    1  A    between atoms: C_1  and  C_2
REMARK    2  A    between atoms: C_4  and  C_17
REMARK    3  A    between atoms: C_5  and  C_16
REMARK    4  A    between atoms: N_7  and  C_8
REMARK    5  A    between atoms: C_17  and  N_18
REMARK    6  A    between atoms: N_18  and  C_19
REMARK    7  A    between atoms: C_19  and  C_20
REMARK    8  A    between atoms: C_20  and  C_22
REMARK    9  A    between atoms: C_20  and  C_27
REMARK                            x       y       z     vdW  Elec       q    Type
REMARK                         _______ _______ _______ _____ _____    ______ ____
ROOT
ATOM      1  N   UNL     1      -0.755  -1.868  -2.722  0.00  0.00    +0.382 N 
ATOM      2  H   UNL     1      -0.120  -2.643  -2.603  0.00  0.00    -0.085 HD
ATOM      3  H   UNL     1      -1.469  -1.905  -2.009  0.00  0.00    -0.085 HD
ENDROOT
BRANCH   1   4
ATOM      4  C   UNL     1      -0.014  -0.605  -2.607  0.00  0.00    -0.048 C 
BRANCH   4   7
ATOM      5  C   UNL     1      -0.087   1.507   0.033  0.00  0.00    +0.030 C 
ATOM      6  C   UNL     1      -0.032  -0.022   0.021  0.00  0.00    +0.097 C 
ATOM      7  C   UNL     1       0.630  -0.523  -1.247  0.00  0.00    -0.052 C 
ATOM      8  C   UNL     1       1.858  -0.872  -0.957  0.00  0.00    -0.004 C 
ATOM      9  N   UNL     1       2.145  -0.664   0.395  0.00  0.00    -0.354 NA
ATOM     10  N   UNL     1       0.861  -0.522   1.097  0.00  0.00    -0.235 NA
ATOM     11  C   UNL     1       2.840  -1.429  -1.956  0.00  0.00    +0.060 C 
ATOM     12  H   UNL     1       2.652  -1.455   0.764  0.00  0.00    +0.141 HD
ATOM     13  H   UNL     1       2.691   0.178   0.505  0.00  0.00    +0.141 HD
BRANCH  10  14
ATOM     14  C   UNL     1       0.961   0.450   2.193  0.00  0.00    +0.097 C 
ATOM     15  C   UNL     1       2.021  -0.015   3.205  0.00  0.00    +0.045 C 
ATOM     16  C   UNL     1       1.911   0.817   4.505  0.00  0.00    +0.167 C 
ATOM     17  S   UNL     1       0.133   1.290   4.532  0.00  0.00    -0.029 S 
ATOM     18  O   UNL     1       0.030   2.704   4.446  0.00  0.00    -0.174 OA
ATOM     19  O   UNL     1      -0.511   0.606   5.598  0.00  0.00    -0.174 OA
ATOM     20  C   UNL     1      -0.403   0.550   2.933  0.00  0.00    +0.186 C 
ENDBRANCH  10  14
ENDBRANCH   4   7
ENDBRANCH   1   4
BRANCH   1  21
ATOM     21  C   UNL     1      -1.383  -1.948  -4.048  0.00  0.00    -0.069 C 
BRANCH  21  22
ATOM     22  C   UNL     1      -2.156  -3.263  -4.167  0.00  0.00    +0.041 C 
BRANCH  22  23
ATOM     23  C   UNL     1      -2.697  -3.402  -5.567  0.00  0.00    -0.016 A 
ATOM     24  C   UNL     1      -2.395  -4.477  -6.515  0.00  0.00    +0.003 A 
ATOM     25  C   UNL     1      -1.594  -5.619  -6.464  0.00  0.00    +0.010 A 
ATOM     26  C   UNL     1      -1.523  -6.447  -7.549  0.00  0.00    +0.001 A 
ATOM     27  C   UNL     1      -2.241  -6.161  -8.702  0.00  0.00    +0.002 A 
ATOM     28  C   UNL     1      -3.038  -5.040  -8.774  0.00  0.00    +0.026 A 
ATOM     29  C   UNL     1      -3.126  -4.183  -7.681  0.00  0.00    +0.047 A 
ATOM     30  N   UNL     1      -3.815  -3.015  -7.445  0.00  0.00    -0.360 N 
ATOM     31  C   UNL     1      -3.552  -2.568  -6.179  0.00  0.00    +0.087 A 
ATOM     32  H   UNL     1      -4.403  -2.577  -8.080  0.00  0.00    +0.165 HD
ENDBRANCH  22  23
BRANCH  22  33
ATOM     33  C   UNL     1      -3.298  -3.266  -3.184  0.00  0.00    -0.005 A 
ATOM     34  C   UNL     1      -3.541  -4.120  -2.160  0.00  0.00    +0.012 A 
ATOM     35  C   UNL     1      -4.664  -3.927  -1.378  0.00  0.00    +0.008 A 
ATOM     36  C   UNL     1      -5.491  -2.890  -1.659  0.00  0.00    +0.045 A 
ATOM     37  S   UNL     1      -4.679  -2.141  -3.062  0.00  0.00    -0.101 S 
ENDBRANCH  22  33
ENDBRANCH  21  22
ENDBRANCH   1  21
TORSDOF 7
