REMARK  Name = ZINC55301553
REMARK  5 active torsions:
REMARK  status: ('A' for Active; 'I' for Inactive)
REMARK    1  A    between atoms: C_1  and  C_2
REMARK    2  A    between atoms: C_2  and  N_3
REMARK    3  A    between atoms: N_3  and  C_4
REMARK    4  A    between atoms: C_4  and  C_6
REMARK    5  A    between atoms: C_4  and  C_19
REMARK                            x       y       z     vdW  Elec       q    Type
REMARK                         _______ _______ _______ _____ _____    ______ ____
ROOT
ATOM      1  C   UNL     1       1.666  -2.540  -2.350  0.00  0.00    -0.043 A 
ATOM      2  C   UNL     1       2.044  -1.804  -3.455  0.00  0.00    +0.031 A 
ATOM      3  C   UNL     1       2.907  -2.355  -4.390  0.00  0.00    +0.067 A 
ATOM      4  C   UNL     1       3.391  -3.652  -4.210  0.00  0.00    +0.068 A 
ATOM      5  C   UNL     1       3.006  -4.384  -3.097  0.00  0.00    +0.043 A 
ATOM      6  C   UNL     1       2.150  -3.825  -2.168  0.00  0.00    +0.022 A 
ATOM      7 BR   UNL     1       1.631  -4.819  -0.645  0.00  0.00    -0.050 Br
ATOM      8  N   UNL     1       4.223  -3.926  -5.293  0.00  0.00    -0.306 N 
ATOM      9  H   UNL     1       4.704  -4.754  -5.444  0.00  0.00    +0.170 HD
ATOM     10  C   UNL     1       4.244  -2.845  -6.095  0.00  0.00    +0.325 A 
ATOM     11  O   UNL     1       4.875  -2.754  -7.132  0.00  0.00    -0.247 OA
ATOM     12  N   UNL     1       3.460  -1.881  -5.577  0.00  0.00    -0.306 N 
ATOM     13  H   UNL     1       3.306  -1.005  -5.965  0.00  0.00    +0.170 HD
ENDROOT
BRANCH   1  14
ATOM     14  C   UNL     1       0.728  -1.941  -1.334  0.00  0.00    -0.008 C 
BRANCH  14  15
ATOM     15  C   UNL     1      -0.688  -2.469  -1.574  0.00  0.00    +0.134 C 
ATOM     16  C   UNL     1      -1.640  -1.872  -0.533  0.00  0.00    +0.190 C 
ATOM     17  O   UNL     1      -2.978  -2.282  -0.831  0.00  0.00    -0.375 OA
ATOM     18  C   UNL     1      -3.415  -1.901  -2.139  0.00  0.00    +0.188 C 
ATOM     19  C   UNL     1      -2.463  -2.498  -3.180  0.00  0.00    +0.188 C 
ATOM     20  O   UNL     1      -1.125  -2.090  -2.882  0.00  0.00    -0.373 OA
ENDBRANCH  14  15
BRANCH  14  21
ATOM     21  N   UNL     1       0.733  -0.478  -1.465  0.00  0.00    +0.385 N 
ATOM     22  H   UNL     1       0.033  -0.083  -0.856  0.00  0.00    -0.085 HD
ATOM     23  H   UNL     1       0.529  -0.225  -2.421  0.00  0.00    -0.085 HD
BRANCH  21  25
ATOM     24  C   UNL     1       2.101   1.550  -1.347  0.00  0.00    -0.017 C 
ATOM     25  C   UNL     1       2.056   0.042  -1.093  0.00  0.00    -0.085 C 
ENDBRANCH  21  25
ENDBRANCH  14  21
ENDBRANCH   1  14
TORSDOF 4
