REMARK  Name = ZINC03084877
REMARK  2 active torsions:
REMARK  status: ('A' for Active; 'I' for Inactive)
REMARK    1  A    between atoms: C_3  and  O_25
REMARK    2  A    between atoms: C_4  and  N_8
REMARK                            x       y       z     vdW  Elec       q    Type
REMARK                         _______ _______ _______ _____ _____    ______ ____
ROOT
ATOM      1  N   UNL     1      -3.592   3.574   0.054  0.00  0.00    -0.199 N 
ATOM      2  C   UNL     1      -3.666   2.227   0.049  0.00  0.00    +0.258 C 
ATOM      3  O   UNL     1      -4.752   1.678   0.057  0.00  0.00    -0.269 OA
ATOM      4  C   UNL     1      -2.438   1.423   0.033  0.00  0.00    +0.046 A 
ATOM      5  C   UNL     1      -2.406   0.037   0.026  0.00  0.00    +0.014 A 
ATOM      6  C   UNL     1      -1.196  -0.661   0.011  0.00  0.00    +0.005 A 
ATOM      7  C   UNL     1       0.002  -0.004   0.002  0.00  0.00    -0.039 A 
ATOM      8  C   UNL     1      -0.017   1.388   0.010  0.00  0.00    -0.010 A 
ATOM      9  C   UNL     1      -1.205   2.115   0.030  0.00  0.00    +0.007 A 
ATOM     10  C   UNL     1      -1.151   3.527   0.031  0.00  0.00    +0.046 A 
ATOM     11  C   UNL     1       0.097   4.130   0.023  0.00  0.00    +0.014 A 
ATOM     12  C   UNL     1       1.269   3.371   0.007  0.00  0.00    +0.005 A 
ATOM     13  C   UNL     1       1.231   2.006   0.001  0.00  0.00    -0.039 A 
ATOM     14  C   UNL     1       2.260   0.902  -0.015  0.00  0.00    +0.040 C 
ATOM     15  C   UNL     1       1.454  -0.417  -0.015  0.00  0.00    +0.040 C 
ATOM     16  C   UNL     1      -2.427   4.254   0.047  0.00  0.00    +0.258 C 
ATOM     17  O   UNL     1      -2.433   5.470   0.053  0.00  0.00    -0.269 OA
ENDROOT
BRANCH   1  21
ATOM     18  C   UNL     1      -7.153   5.749   0.095  0.00  0.00    +0.023 A 
ATOM     19  C   UNL     1      -6.577   5.397  -1.111  0.00  0.00    +0.049 A 
ATOM     20  C   UNL     1      -5.395   4.675  -1.131  0.00  0.00    +0.139 A 
ATOM     21  C   UNL     1      -4.788   4.305   0.068  0.00  0.00    +0.087 A 
ATOM     22  C   UNL     1      -5.373   4.658   1.275  0.00  0.00    +0.047 A 
ATOM     23  C   UNL     1      -6.551   5.383   1.286  0.00  0.00    +0.043 A 
ATOM     24 CL   UNL     1      -7.279   5.829   2.798  0.00  0.00    -0.083 Cl
BRANCH  20  25
ATOM     25  O   UNL     1      -4.828   4.328  -2.317  0.00  0.00    -0.505 OA
ATOM     26  H   UNL     1      -5.124   3.474  -2.659  0.00  0.00    +0.292 HD
ENDBRANCH  20  25
ENDBRANCH   1  21
TORSDOF 2
