REMARK  Name = ZINC36608532
REMARK  12 active torsions:
REMARK  status: ('A' for Active; 'I' for Inactive)
REMARK    1  A    between atoms: C_1  and  C_2
REMARK    2  A    between atoms: C_2  and  C_3
REMARK    3  A    between atoms: C_2  and  C_4
REMARK    4  A    between atoms: C_2  and  N_5
REMARK    5  A    between atoms: C_6  and  C_8
REMARK    6  A    between atoms: C_8  and  C_10
REMARK    7  A    between atoms: C_8  and  N_19
REMARK    8  A    between atoms: C_11  and  O_18
REMARK    9  A    between atoms: C_13  and  O_17
REMARK   10  A    between atoms: C_15  and  O_16
REMARK   11  A    between atoms: N_19  and  C_20
REMARK   12  A    between atoms: C_26  and  C_28
REMARK                            x       y       z     vdW  Elec       q    Type
REMARK                         _______ _______ _______ _____ _____    ______ ____
ROOT
ATOM      1  C   UNL     1       2.616  -0.624  -2.412  0.00  0.00    +0.205 C 
ENDROOT
BRANCH   1   2
ATOM      2  C   UNL     1       1.688  -0.803  -3.585  0.00  0.00    +0.065 A 
ATOM      3  C   UNL     1       1.542   0.215  -4.516  0.00  0.00    +0.129 A 
ATOM      4  C   UNL     1       0.688   0.050  -5.595  0.00  0.00    +0.091 A 
ATOM      5  C   UNL     1      -0.021  -1.133  -5.745  0.00  0.00    +0.124 A 
ATOM      6  C   UNL     1       0.125  -2.151  -4.814  0.00  0.00    +0.091 A 
ATOM      7  C   UNL     1       0.983  -1.988  -3.737  0.00  0.00    +0.129 A 
BRANCH   7   8
ATOM      8  O   UNL     1       1.129  -2.987  -2.828  0.00  0.00    -0.506 OA
ATOM      9  H   UNL     1       0.507  -2.942  -2.089  0.00  0.00    +0.292 HD
ENDBRANCH   7   8
BRANCH   5  10
ATOM     10  O   UNL     1      -0.860  -1.294  -6.802  0.00  0.00    -0.507 OA
ATOM     11  H   UNL     1      -0.438  -1.678  -7.583  0.00  0.00    +0.292 HD
ENDBRANCH   5  10
BRANCH   3  12
ATOM     12  O   UNL     1       2.237   1.373  -4.370  0.00  0.00    -0.506 OA
ATOM     13  H   UNL     1       3.092   1.379  -4.821  0.00  0.00    +0.292 HD
ENDBRANCH   3  12
ENDBRANCH   1   2
BRANCH   1  15
ATOM     14  N   UNL     1       0.790  -0.593  -0.744  0.00  0.00    -0.309 N 
ATOM     15  C   UNL     1       1.868   0.019  -1.272  0.00  0.00    +0.239 C 
ATOM     16  O   UNL     1       2.237   1.087  -0.831  0.00  0.00    -0.273 OA
ATOM     17  H   UNL     1       0.495  -1.447  -1.097  0.00  0.00    +0.149 HD
BRANCH  14  19
ATOM     18  C   UNL     1      -0.467   1.397  -0.080  0.00  0.00    +0.031 C 
ATOM     19  C   UNL     1       0.063   0.033   0.364  0.00  0.00    +0.026 C 
ATOM     20  C   UNL     1       1.006   0.214   1.555  0.00  0.00    +0.031 C 
ATOM     21  C   UNL     1      -1.110  -0.861   0.773  0.00  0.00    +0.031 C 
ENDBRANCH  14  19
ENDBRANCH   1  15
BRANCH   1  22
ATOM     22  N   UNL     1       3.739   0.232  -2.804  0.00  0.00    -0.249 N 
ATOM     23  C   UNL     1       4.780  -0.291  -3.482  0.00  0.00    +0.287 C 
ATOM     24  O   UNL     1       5.714   0.419  -3.804  0.00  0.00    -0.266 OA
BRANCH  22  25
ATOM     25  C   UNL     1       3.731   1.590  -2.474  0.00  0.00    +0.038 A 
ATOM     26  C   UNL     1       2.539   2.304  -2.494  0.00  0.00    +0.023 A 
ATOM     27  C   UNL     1       2.534   3.646  -2.168  0.00  0.00    +0.002 A 
ATOM     28  C   UNL     1       3.714   4.279  -1.822  0.00  0.00    +0.000 A 
ATOM     29  C   UNL     1       4.902   3.572  -1.802  0.00  0.00    +0.002 A 
ATOM     30  C   UNL     1       4.913   2.228  -2.121  0.00  0.00    +0.023 A 
ENDBRANCH  22  25
BRANCH  23  31
ATOM     31  C   UNL     1       4.787  -1.715  -3.831  0.00  0.00    +0.190 A 
ATOM     32  C   UNL     1       5.745  -2.357  -4.562  0.00  0.00    +0.054 A 
ATOM     33  C   UNL     1       5.351  -3.701  -4.652  0.00  0.00    +0.042 A 
ATOM     34  C   UNL     1       4.183  -3.819  -3.981  0.00  0.00    +0.196 A 
ATOM     35  O   UNL     1       3.850  -2.621  -3.483  0.00  0.00    -0.458 OA
ENDBRANCH  23  31
ENDBRANCH   1  22
TORSDOF 9
