REMARK  Name = ZINC03386490
REMARK  7 active torsions:
REMARK  status: ('A' for Active; 'I' for Inactive)
REMARK    1  A    between atoms: C_1  and  C_2
REMARK    2  A    between atoms: C_8  and  C_16
REMARK    3  A    between atoms: C_12  and  C_13
REMARK    4  A    between atoms: C_13  and  C_15
REMARK    5  A    between atoms: C_16  and  S_17
REMARK    6  A    between atoms: S_17  and  C_18
REMARK    7  A    between atoms: N_23  and  C_24
REMARK                            x       y       z     vdW  Elec       q    Type
REMARK                         _______ _______ _______ _____ _____    ______ ____
ROOT
ATOM      1  C   UNL     1      -2.924   0.917   4.016  0.00  0.00    +0.046 C 
ATOM      2  C   UNL     1      -1.658   0.107   3.903  0.00  0.00    -0.018 A 
ATOM      3  C   UNL     1      -0.883  -0.147   5.034  0.00  0.00    +0.076 A 
ATOM      4  C   UNL     1      -1.110   0.277   6.436  0.00  0.00    +0.260 A 
ATOM      5  O   UNL     1      -2.087   0.938   6.738  0.00  0.00    -0.267 OA
ATOM      6  N   UNL     1      -0.208  -0.090   7.367  0.00  0.00    -0.310 N 
ATOM      7  H   UNL     1      -0.346   0.187   8.318  0.00  0.00    +0.170 HD
ATOM      8  C   UNL     1       0.882  -0.826   7.041  0.00  0.00    +0.121 A 
ATOM      9  N   UNL     1       1.113  -1.216   5.817  0.00  0.00    -0.226 NA
ATOM     10  C   UNL     1       0.289  -0.910   4.822  0.00  0.00    +0.116 A 
ATOM     11  S   UNL     1       0.257  -1.244   3.079  0.00  0.00    -0.065 S 
ATOM     12  C   UNL     1      -1.260  -0.391   2.680  0.00  0.00    +0.060 A 
ENDROOT
BRANCH  12  13
ATOM     13  C   UNL     1      -1.892  -0.256   1.424  0.00  0.00    +0.167 C 
ATOM     14  O   UNL     1      -2.931   0.365   1.331  0.00  0.00    -0.292 OA
ATOM     15  C   UNL     1      -1.276  -0.882   0.199  0.00  0.00    +0.092 C 
ENDBRANCH  12  13
BRANCH   8  16
ATOM     16  C   UNL     1       1.858  -1.206   8.125  0.00  0.00    +0.150 C 
BRANCH  16  17
ATOM     17  S   UNL     1       3.208  -2.182   7.408  0.00  0.00    -0.089 S 
BRANCH  17  18
ATOM     18  C   UNL     1       4.250  -2.544   8.783  0.00  0.00    +0.160 A 
ATOM     19  N   UNL     1       4.114  -2.197  10.049  0.00  0.00    -0.133 NA
ATOM     20  N   UNL     1       5.054  -2.594  10.971  0.00  0.00    -0.125 NA
ATOM     21  C   UNL     1       6.091  -3.310  10.585  0.00  0.00    +0.187 A 
ATOM     22  S   UNL     1       5.775  -3.471   8.834  0.00  0.00    -0.024 S 
ATOM     23  N   UNL     1       7.149  -3.807  11.338  0.00  0.00    -0.292 N 
ATOM     24  H   UNL     1       7.893  -4.249  10.899  0.00  0.00    +0.154 HD
BRANCH  23  25
ATOM     25  C   UNL     1       7.141  -3.671  12.729  0.00  0.00    +0.033 A 
ATOM     26  C   UNL     1       8.338  -3.651  13.434  0.00  0.00    +0.023 A 
ATOM     27  C   UNL     1       8.326  -3.511  14.807  0.00  0.00    +0.002 A 
ATOM     28  C   UNL     1       7.124  -3.401  15.483  0.00  0.00    +0.000 A 
ATOM     29  C   UNL     1       5.931  -3.425  14.785  0.00  0.00    +0.002 A 
ATOM     30  C   UNL     1       5.935  -3.560  13.410  0.00  0.00    +0.023 A 
ENDBRANCH  23  25
ENDBRANCH  17  18
ENDBRANCH  16  17
ENDBRANCH   8  16
TORSDOF 5
