REMARK  Name = ZINC49741180
REMARK  3 active torsions:
REMARK  status: ('A' for Active; 'I' for Inactive)
REMARK    1  A    between atoms: C_6  and  N_7
REMARK    2  A    between atoms: N_7  and  S_8
REMARK    3  A    between atoms: S_8  and  C_11
REMARK                            x       y       z     vdW  Elec       q    Type
REMARK                         _______ _______ _______ _____ _____    ______ ____
ROOT
ATOM      1  N   UNL     1      -1.198  -0.723   0.009  0.00  0.00    -0.216 N 
ATOM      2  H   UNL     1      -1.303  -1.485   0.600  0.00  0.00    +0.174 HD
ENDROOT
BRANCH   1   8
ATOM      3  C   UNL     1      -0.017   1.385   0.010  0.00  0.00    +0.026 A 
ATOM      4  C   UNL     1       1.165   2.095   0.002  0.00  0.00    +0.025 A 
ATOM      5  C   UNL     1       2.387   1.427  -0.013  0.00  0.00    +0.038 A 
ATOM      6  C   UNL     1       2.397   0.036  -0.019  0.00  0.00    -0.009 A 
ATOM      7  C   UNL     1       1.219  -0.676  -0.012  0.00  0.00    +0.031 A 
ATOM      8  C   UNL     1       0.002  -0.004   0.002  0.00  0.00    +0.048 A 
ATOM      9  C   UNL     1       3.846  -0.368  -0.031  0.00  0.00    +0.074 C 
ATOM     10  C   UNL     1       4.176  -1.205  -1.275  0.00  0.00    +0.021 C 
ATOM     11  C   UNL     1       5.230  -2.226  -0.771  0.00  0.00    +0.001 C 
ATOM     12  C   UNL     1       4.731  -2.559   0.658  0.00  0.00    +0.001 C 
ATOM     13  C   UNL     1       4.197  -1.213   1.196  0.00  0.00    +0.021 C 
ATOM     14  C   UNL     1       4.610   0.930  -0.035  0.00  0.00    +0.228 C 
ATOM     15  O   UNL     1       5.816   1.060  -0.047  0.00  0.00    -0.274 OA
ATOM     16  N   UNL     1       3.696   1.919  -0.024  0.00  0.00    -0.284 N 
ATOM     17  H   UNL     1       3.920   2.863  -0.024  0.00  0.00    +0.155 HD
ENDBRANCH   1   8
BRANCH   1  18
ATOM     18  S   UNL     1      -2.439  -0.274  -0.991  0.00  0.00    +0.072 S 
ATOM     19  O   UNL     1      -3.493  -1.201  -0.773  0.00  0.00    -0.150 OA
ATOM     20  O   UNL     1      -2.609   1.127  -0.822  0.00  0.00    -0.150 OA
BRANCH  18  21
ATOM     21  C   UNL     1      -1.888  -0.518  -2.647  0.00  0.00    +0.111 A 
ATOM     22  C   UNL     1      -1.241   0.507  -3.316  0.00  0.00    +0.031 A 
ATOM     23  C   UNL     1      -0.806   0.325  -4.614  0.00  0.00    +0.030 A 
ATOM     24  C   UNL     1      -1.017  -0.889  -5.249  0.00  0.00    +0.067 A 
ATOM     25  C   UNL     1      -1.669  -1.923  -4.574  0.00  0.00    +0.069 A 
ATOM     26  C   UNL     1      -2.098  -1.733  -3.269  0.00  0.00    +0.056 A 
ATOM     27  N   UNL     1      -1.733  -3.001  -5.454  0.00  0.00    -0.306 N 
ATOM     28  H   UNL     1      -2.132  -3.865  -5.265  0.00  0.00    +0.170 HD
ATOM     29  C   UNL     1      -1.147  -2.640  -6.611  0.00  0.00    +0.325 A 
ATOM     30  O   UNL     1      -1.034  -3.351  -7.591  0.00  0.00    -0.247 OA
ATOM     31  N   UNL     1      -0.705  -1.371  -6.518  0.00  0.00    -0.306 N 
ATOM     32  H   UNL     1      -0.248  -0.877  -7.216  0.00  0.00    +0.170 HD
ENDBRANCH  18  21
ENDBRANCH   1  18
TORSDOF 3
