REMARK  Name = ZINC27327338
REMARK  7 active torsions:
REMARK  status: ('A' for Active; 'I' for Inactive)
REMARK    1  A    between atoms: C_1  and  C_2
REMARK    2  A    between atoms: C_5  and  S_8
REMARK    3  A    between atoms: S_8  and  N_11
REMARK    4  A    between atoms: N_15  and  C_32
REMARK    5  A    between atoms: C_20  and  C_23
REMARK    6  A    between atoms: C_25  and  C_30
REMARK    7  A    between atoms: C_27  and  C_29
REMARK                            x       y       z     vdW  Elec       q    Type
REMARK                         _______ _______ _______ _____ _____    ______ ____
ROOT
ATOM      1  N   UNL     1       1.425  -5.065   0.007  0.00  0.00    -0.128 NA
ATOM      2  C   UNL     1       1.838  -6.313  -0.021  0.00  0.00    +0.096 A 
ATOM      3  C   UNL     1       0.914  -7.434   0.205  0.00  0.00    +0.047 A 
ATOM      4  C   UNL     1       1.322  -8.684  -0.085  0.00  0.00    +0.089 A 
ATOM      5  N   UNL     1       2.562  -8.941  -0.589  0.00  0.00    -0.341 N 
ATOM      6  C   UNL     1       3.571  -7.994  -0.560  0.00  0.00    +0.088 A 
ATOM      7  C   UNL     1       3.254  -6.655  -0.286  0.00  0.00    +0.031 A 
ATOM      8  C   UNL     1       4.253  -5.685  -0.262  0.00  0.00    +0.051 A 
ATOM      9  C   UNL     1       5.560  -6.043  -0.511  0.00  0.00    +0.135 A 
ATOM     10  C   UNL     1       5.883  -7.376  -0.789  0.00  0.00    +0.055 A 
ATOM     11  C   UNL     1       4.892  -8.350  -0.805  0.00  0.00    +0.158 A 
ATOM     12  F   UNL     1       5.210  -9.635  -1.074  0.00  0.00    -0.203 F 
ATOM     13  F   UNL     1       6.532  -5.105  -0.489  0.00  0.00    -0.205 F 
ENDROOT
BRANCH  10  14
ATOM     14  C   UNL     1       7.292  -7.753  -1.055  0.00  0.00    -0.009 A 
ATOM     15  C   UNL     1       7.683  -8.229  -2.311  0.00  0.00    +0.031 A 
ATOM     16  C   UNL     1       9.004  -8.568  -2.516  0.00  0.00    +0.039 A 
ATOM     17  N   UNL     1       9.892  -8.448  -1.548  0.00  0.00    -0.257 NA
ATOM     18  C   UNL     1       9.565  -8.004  -0.349  0.00  0.00    +0.039 A 
ATOM     19  C   UNL     1       8.267  -7.637  -0.060  0.00  0.00    +0.031 A 
ATOM     20  C   UNL     1      10.625  -7.889   0.716  0.00  0.00    +0.065 C 
ATOM     21  C   UNL     1       9.439  -9.082  -3.864  0.00  0.00    +0.065 C 
ENDBRANCH  10  14
BRANCH   1  22
ATOM     22  S   UNL     1      -0.168  -4.726   0.308  0.00  0.00    +0.099 S 
ATOM     23  O   UNL     1      -0.423  -5.129   1.647  0.00  0.00    -0.146 OA
ATOM     24  O   UNL     1      -0.906  -5.235  -0.794  0.00  0.00    -0.146 OA
BRANCH  22  29
ATOM     25  C   UNL     1      -0.777   1.275   0.168  0.00  0.00    +0.044 C 
ATOM     26  C   UNL     1      -0.625  -0.224   0.203  0.00  0.00    -0.050 A 
ATOM     27  C   UNL     1      -0.787  -0.962  -0.954  0.00  0.00    +0.005 A 
ATOM     28  C   UNL     1      -0.647  -2.337  -0.922  0.00  0.00    +0.029 A 
ATOM     29  C   UNL     1      -0.345  -2.974   0.267  0.00  0.00    +0.112 A 
ATOM     30  C   UNL     1      -0.182  -2.235   1.424  0.00  0.00    +0.029 A 
ATOM     31  C   UNL     1      -0.318  -0.860   1.391  0.00  0.00    +0.005 A 
ENDBRANCH  22  29
ENDBRANCH   1  22
BRANCH   5  32
ATOM     32  C   UNL     1       2.833 -10.254  -1.178  0.00  0.00    +0.088 C 
ATOM     33  C   UNL     1       1.702 -11.284  -1.161  0.00  0.00    +0.027 C 
ATOM     34  C   UNL     1       2.105 -10.612  -2.475  0.00  0.00    +0.027 C 
ENDBRANCH   5  32
TORSDOF 4
