REMARK  Name = ZINC34692637
REMARK  4 active torsions:
REMARK  status: ('A' for Active; 'I' for Inactive)
REMARK    1  A    between atoms: C_4  and  C_7
REMARK    2  A    between atoms: C_7  and  C_8
REMARK    3  A    between atoms: C_8  and  N_9
REMARK    4  A    between atoms: N_18  and  C_21
REMARK                            x       y       z     vdW  Elec       q    Type
REMARK                         _______ _______ _______ _____ _____    ______ ____
ROOT
ATOM      1  N   UNL     1       5.561  -1.852   0.691  0.00  0.00    -0.258 N 
ATOM      2  C   UNL     1       5.462  -3.037   1.328  0.00  0.00    +0.282 A 
ATOM      3  O   UNL     1       4.419  -3.665   1.303  0.00  0.00    -0.265 OA
ATOM      4  C   UNL     1       6.582  -3.541   2.024  0.00  0.00    +0.149 A 
ATOM      5  C   UNL     1       7.760  -2.804   2.037  0.00  0.00    +0.172 A 
ATOM      6  N   UNL     1       8.651  -3.492   2.754  0.00  0.00    -0.218 NA
ATOM      7  C   UNL     1       8.109  -4.602   3.187  0.00  0.00    +0.199 A 
ATOM      8  N   UNL     1       6.832  -4.680   2.763  0.00  0.00    -0.339 N 
ATOM      9  H   UNL     1       6.207  -5.399   2.944  0.00  0.00    +0.167 HD
ATOM     10  N   UNL     1       7.798  -1.593   1.362  0.00  0.00    -0.245 N 
ATOM     11  C   UNL     1       6.708  -1.151   0.707  0.00  0.00    +0.338 A 
ATOM     12  O   UNL     1       6.761  -0.088   0.117  0.00  0.00    -0.246 OA
ENDROOT
BRANCH  10  13
ATOM     13  C   UNL     1       8.973  -0.830   1.359  0.00  0.00    +0.056 A 
ATOM     14  C   UNL     1       9.191   0.114   2.354  0.00  0.00    +0.029 A 
ATOM     15  C   UNL     1      10.350   0.866   2.351  0.00  0.00    +0.043 A 
ATOM     16  C   UNL     1      11.295   0.679   1.357  0.00  0.00    +0.159 A 
ATOM     17  C   UNL     1      11.080  -0.263   0.362  0.00  0.00    +0.160 A 
ATOM     18  C   UNL     1       9.923  -1.021   0.366  0.00  0.00    +0.067 A 
ATOM     19  F   UNL     1      12.004  -0.444  -0.607  0.00  0.00    -0.202 F 
ATOM     20  F   UNL     1      12.428   1.416   1.356  0.00  0.00    -0.202 F 
ENDBRANCH  10  13
BRANCH   1  21
ATOM     21  C   UNL     1       4.402  -1.324  -0.033  0.00  0.00    +0.134 C 
BRANCH  21  22
ATOM     22  C   UNL     1       4.433  -1.824  -1.478  0.00  0.00    +0.057 C 
BRANCH  22  26
ATOM     23  C   UNL     1       1.055  -0.285  -3.593  0.00  0.00    +0.000 A 
ATOM     24  C   UNL     1       2.239   0.428  -3.569  0.00  0.00    +0.000 A 
ATOM     25  C   UNL     1       3.332  -0.070  -2.885  0.00  0.00    +0.004 A 
ATOM     26  C   UNL     1       3.241  -1.281  -2.224  0.00  0.00    -0.046 A 
ATOM     27  C   UNL     1       2.057  -1.994  -2.247  0.00  0.00    +0.004 A 
ATOM     28  C   UNL     1       0.964  -1.496  -2.932  0.00  0.00    +0.000 A 
ENDBRANCH  22  26
ENDBRANCH  21  22
ENDBRANCH   1  21
TORSDOF 4
