REMARK  Name = ZINC63928460
REMARK  6 active torsions:
REMARK  status: ('A' for Active; 'I' for Inactive)
REMARK    1  A    between atoms: C_1  and  C_2
REMARK    2  A    between atoms: C_2  and  C_3
REMARK    3  A    between atoms: C_2  and  N_20
REMARK    4  A    between atoms: C_3  and  N_4
REMARK    5  A    between atoms: C_5  and  C_7
REMARK    6  A    between atoms: C_10  and  C_15
REMARK                            x       y       z     vdW  Elec       q    Type
REMARK                         _______ _______ _______ _____ _____    ______ ____
ROOT
ATOM      1  N   UNL     1      -1.709  -1.760  -0.114  0.00  0.00    -0.313 N 
ATOM      2  C   UNL     1      -2.951  -2.273  -0.009  0.00  0.00    +0.249 C 
ATOM      3  O   UNL     1      -3.910  -1.530   0.091  0.00  0.00    -0.270 OA
ATOM      4  H   UNL     1      -0.952  -2.348  -0.262  0.00  0.00    +0.149 HD
ENDROOT
BRANCH   2   5
ATOM      5  C   UNL     1      -3.147  -3.727  -0.017  0.00  0.00    +0.101 A 
ATOM      6  C   UNL     1      -2.044  -4.589  -0.014  0.00  0.00    +0.020 A 
ATOM      7  C   UNL     1      -2.257  -5.957  -0.021  0.00  0.00    +0.028 A 
ATOM      8  C   UNL     1      -3.554  -6.455  -0.031  0.00  0.00    +0.056 A 
ATOM      9  N   UNL     1      -4.628  -5.607  -0.034  0.00  0.00    -0.321 N 
ATOM     10  H   UNL     1      -5.527  -5.973  -0.042  0.00  0.00    +0.169 HD
ATOM     11  C   UNL     1      -4.454  -4.273  -0.021  0.00  0.00    +0.261 A 
ATOM     12  O   UNL     1      -5.422  -3.533  -0.019  0.00  0.00    -0.267 OA
BRANCH   8  13
ATOM     13  C   UNL     1      -3.773  -7.903  -0.038  0.00  0.00    +0.036 A 
ATOM     14  C   UNL     1      -4.970  -8.606  -0.054  0.00  0.00    +0.017 A 
ATOM     15  C   UNL     1      -4.856  -9.976  -0.058  0.00  0.00    +0.008 A 
ATOM     16  C   UNL     1      -3.621 -10.535  -0.046  0.00  0.00    +0.046 A 
ATOM     17  S   UNL     1      -2.574  -9.222  -0.037  0.00  0.00    -0.095 S 
ENDBRANCH   8  13
ENDBRANCH   2   5
BRANCH   1  18
ATOM     18  C   UNL     1      -1.502  -0.313  -0.004  0.00  0.00    +0.089 C 
BRANCH  18  20
ATOM     19  C   UNL     1       0.209   1.507  -0.019  0.00  0.00    -0.012 C 
ATOM     20  C   UNL     1      -0.003  -0.008  -0.040  0.00  0.00    -0.054 C 
BRANCH  20  21
ATOM     21  N   UNL     1       0.581  -0.569  -1.265  0.00  0.00    +0.385 N 
ATOM     22  C   UNL     1       2.017  -0.253  -1.315  0.00  0.00    -0.073 C 
ATOM     23  C   UNL     1       2.663  -1.091  -2.418  0.00  0.00    +0.017 C 
ATOM     24  C   UNL     1       1.884  -0.936  -3.699  0.00  0.00    -0.048 A 
ATOM     25  C   UNL     1       2.478  -1.323  -4.890  0.00  0.00    +0.004 A 
ATOM     26  C   UNL     1       1.794  -1.199  -6.083  0.00  0.00    +0.000 A 
ATOM     27  C   UNL     1       0.509  -0.686  -6.088  0.00  0.00    +0.000 A 
ATOM     28  C   UNL     1      -0.083  -0.300  -4.903  0.00  0.00    +0.002 A 
ATOM     29  C   UNL     1       0.604  -0.423  -3.704  0.00  0.00    -0.061 A 
ATOM     30  C   UNL     1      -0.077   0.019  -2.436  0.00  0.00    -0.042 C 
ATOM     31  H   UNL     1       0.454  -1.569  -1.273  0.00  0.00    -0.081 HD
ENDBRANCH  20  21
ENDBRANCH  18  20
ENDBRANCH   1  18
TORSDOF 5
