REMARK  Name = ZINC27534149
REMARK  8 active torsions:
REMARK  status: ('A' for Active; 'I' for Inactive)
REMARK    1  A    between atoms: N_15  and  C_16
REMARK    2  A    between atoms: C_16  and  C_17
REMARK    3  A    between atoms: C_17  and  C_18
REMARK    4  A    between atoms: C_18  and  C_19
REMARK    5  A    between atoms: N_21  and  C_22
REMARK    6  A    between atoms: C_24  and  N_36
REMARK    7  A    between atoms: C_26  and  O_28
REMARK    8  A    between atoms: O_28  and  C_29
REMARK                            x       y       z     vdW  Elec       q    Type
REMARK                         _______ _______ _______ _____ _____    ______ ____
ROOT
ATOM      1  C   UNL     1      -5.839   1.652   2.908  0.00  0.00    +0.217 C 
ATOM      2  O   UNL     1      -5.145   2.051   3.819  0.00  0.00    -0.275 OA
ATOM      3  N   UNL     1      -6.958   0.949   3.173  0.00  0.00    -0.285 N 
ATOM      4  H   UNL     1      -7.625   0.648   2.352  0.00  0.00    +0.155 HD
ENDROOT
BRANCH   3   5
ATOM      5  C   UNL     1      -7.270   0.600   4.491  0.00  0.00    +0.039 A 
ATOM      6  C   UNL     1      -6.964   1.469   5.531  0.00  0.00    +0.056 A 
ATOM      7  C   UNL     1      -7.272   1.125   6.833  0.00  0.00    +0.131 A 
ATOM      8  C   UNL     1      -7.887  -0.082   7.105  0.00  0.00    +0.079 A 
ATOM      9  C   UNL     1      -8.195  -0.954   6.070  0.00  0.00    +0.132 A 
ATOM     10  C   UNL     1      -7.891  -0.611   4.761  0.00  0.00    +0.069 A 
BRANCH   7  11
ATOM     11  N   UNL     1      -6.945   2.053   7.939  0.00  0.00    +0.057 N 
ATOM     12  O   UNL     1      -6.404   3.118   7.701  0.00  0.00    -0.126 OA
ATOM     13  O   UNL     1      -7.216   1.751   9.088  0.00  0.00    -0.126 OA
ENDBRANCH   7  11
BRANCH   9  14
ATOM     14  O   UNL     1      -8.800  -2.141   6.338  0.00  0.00    -0.456 OA
BRANCH  14  15
ATOM     15  C   UNL     1      -8.043  -3.269   6.286  0.00  0.00    +0.129 A 
ATOM     16  C   UNL     1      -6.723  -3.200   5.864  0.00  0.00    +0.049 A 
ATOM     17  C   UNL     1      -5.953  -4.346   5.817  0.00  0.00    +0.042 A 
ATOM     18  C   UNL     1      -6.502  -5.565   6.179  0.00  0.00    +0.124 A 
ATOM     19  C   UNL     1      -7.821  -5.636   6.595  0.00  0.00    +0.042 A 
ATOM     20  C   UNL     1      -8.591  -4.491   6.649  0.00  0.00    +0.049 A 
ATOM     21  F   UNL     1      -5.749  -6.686   6.127  0.00  0.00    -0.205 F 
ENDBRANCH  14  15
ENDBRANCH   9  14
ENDBRANCH   3   5
BRANCH   1  22
ATOM     22  C   UNL     1      -5.451   1.942   1.482  0.00  0.00    +0.098 C 
BRANCH  22  23
ATOM     23  C   UNL     1      -4.151   2.750   1.461  0.00  0.00    +0.031 C 
BRANCH  23  24
ATOM     24  C   UNL     1      -3.757   3.045   0.012  0.00  0.00    +0.123 C 
BRANCH  24  39
ATOM     25  C   UNL     1       1.105   1.770  -0.141  0.00  0.00    +0.001 A 
ATOM     26  C   UNL     1      -0.096   1.075  -0.121  0.00  0.00    +0.002 A 
ATOM     27  C   UNL     1      -1.297   1.747  -0.083  0.00  0.00    +0.026 A 
ATOM     28  C   UNL     1      -1.313   3.141  -0.053  0.00  0.00    +0.053 A 
ATOM     29  C   UNL     1      -0.093   3.837  -0.073  0.00  0.00    +0.046 A 
ATOM     30  C   UNL     1       1.114   3.137  -0.118  0.00  0.00    +0.014 A 
ATOM     31  C   UNL     1      -0.108   5.311  -0.047  0.00  0.00    +0.197 A 
ATOM     32  O   UNL     1       0.926   5.954  -0.063  0.00  0.00    -0.287 OA
ATOM     33  C   UNL     1      -1.422   5.978   0.001  0.00  0.00    +0.046 A 
ATOM     34  C   UNL     1      -1.514   7.371   0.028  0.00  0.00    +0.014 A 
ATOM     35  C   UNL     1      -2.742   7.970   0.073  0.00  0.00    +0.001 A 
ATOM     36  C   UNL     1      -3.898   7.201   0.090  0.00  0.00    +0.002 A 
ATOM     37  C   UNL     1      -3.828   5.826   0.063  0.00  0.00    +0.026 A 
ATOM     38  C   UNL     1      -2.587   5.193   0.018  0.00  0.00    +0.053 A 
ATOM     39  N   UNL     1      -2.513   3.817  -0.008  0.00  0.00    -0.340 N 
ENDBRANCH  24  39
ENDBRANCH  23  24
ENDBRANCH  22  23
ENDBRANCH   1  22
TORSDOF 8
