REMARK  Name = ZINC09646331
REMARK  5 active torsions:
REMARK  status: ('A' for Active; 'I' for Inactive)
REMARK    1  A    between atoms: C_4  and  N_7
REMARK    2  A    between atoms: C_16  and  C_18
REMARK    3  A    between atoms: C_18  and  C_19
REMARK    4  A    between atoms: C_19  and  C_20
REMARK    5  A    between atoms: C_31  and  C_33
REMARK                            x       y       z     vdW  Elec       q    Type
REMARK                         _______ _______ _______ _____ _____    ______ ____
ROOT
ATOM      1  C   UNL     1       2.912  -2.629   0.639  0.00  0.00    +0.083 C 
ENDROOT
BRANCH   1  11
ATOM      2  N   UNL     1       7.714  -3.497   1.138  0.00  0.00    -0.214 N 
ATOM      3  C   UNL     1       6.381  -3.767   1.068  0.00  0.00    +0.170 A 
ATOM      4  C   UNL     1       6.244  -5.153   1.244  0.00  0.00    +0.103 A 
ATOM      5  C   UNL     1       7.536  -5.683   1.419  0.00  0.00    +0.150 A 
ATOM      6  N   UNL     1       8.394  -4.702   1.355  0.00  0.00    -0.172 NA
ATOM      7  C   UNL     1       4.896  -5.721   1.214  0.00  0.00    +0.262 A 
ATOM      8  O   UNL     1       4.710  -6.916   1.360  0.00  0.00    -0.267 OA
ATOM      9  N   UNL     1       3.863  -4.868   1.017  0.00  0.00    -0.310 N 
ATOM     10  H   UNL     1       2.955  -5.208   0.990  0.00  0.00    +0.170 HD
ATOM     11  C   UNL     1       4.092  -3.541   0.856  0.00  0.00    +0.113 A 
ATOM     12  N   UNL     1       5.284  -3.019   0.876  0.00  0.00    -0.214 NA
BRANCH   2  16
ATOM     13  C   UNL     1       9.467   0.266   0.772  0.00  0.00    +0.000 A 
ATOM     14  C   UNL     1      10.009  -0.667   1.637  0.00  0.00    +0.002 A 
ATOM     15  C   UNL     1       9.430  -1.915   1.761  0.00  0.00    +0.028 A 
ATOM     16  C   UNL     1       8.303  -2.232   1.015  0.00  0.00    +0.068 A 
ATOM     17  C   UNL     1       7.764  -1.296   0.143  0.00  0.00    +0.028 A 
ATOM     18  C   UNL     1       8.344  -0.048   0.028  0.00  0.00    +0.002 A 
ENDBRANCH   2  16
ENDBRANCH   1  11
BRANCH   1  19
ATOM     19  C   UNL     1       3.403  -1.188   0.485  0.00  0.00    +0.103 C 
BRANCH  19  20
ATOM     20  C   UNL     1       2.223  -0.276   0.268  0.00  0.00    +0.217 C 
ATOM     21  O   UNL     1       1.100  -0.733   0.240  0.00  0.00    -0.276 OA
ATOM     22  N   UNL     1       2.416   1.048   0.105  0.00  0.00    -0.285 N 
ATOM     23  C   UNL     1       3.764   1.616   0.003  0.00  0.00    +0.144 C 
ATOM     24  C   UNL     1       3.859   2.857   0.854  0.00  0.00    -0.027 A 
ATOM     25  C   UNL     1       5.119   3.394   1.078  0.00  0.00    +0.005 A 
ATOM     26  C   UNL     1       5.269   4.535   1.841  0.00  0.00    +0.000 A 
ATOM     27  C   UNL     1       4.155   5.147   2.384  0.00  0.00    +0.000 A 
ATOM     28  C   UNL     1       2.902   4.613   2.164  0.00  0.00    +0.004 A 
ATOM     29  C   UNL     1       2.749   3.461   1.402  0.00  0.00    -0.040 A 
ATOM     30  C   UNL     1       1.355   2.918   1.229  0.00  0.00    +0.067 C 
ATOM     31  C   UNL     1       1.281   1.983   0.024  0.00  0.00    +0.166 C 
BRANCH  31  32
ATOM     32  C   UNL     1      -0.015   1.214   0.054  0.00  0.00    +0.231 C 
ATOM     33  O   UNL     1      -0.490   0.868   1.115  0.00  0.00    -0.274 OA
ATOM     34  N   UNL     1      -0.644   0.907  -1.098  0.00  0.00    -0.328 N 
ATOM     35  H   UNL     1      -1.476   0.409  -1.079  0.00  0.00    +0.145 HD
ATOM     36  H   UNL     1      -0.264   1.185  -1.947  0.00  0.00    +0.145 HD
ENDBRANCH  31  32
ENDBRANCH  19  20
ENDBRANCH   1  19
TORSDOF 5
