REMARK  Name = ZINC19581512
REMARK  8 active torsions:
REMARK  status: ('A' for Active; 'I' for Inactive)
REMARK    1  A    between atoms: C_1  and  N_2
REMARK    2  A    between atoms: N_2  and  C_3
REMARK    3  A    between atoms: N_2  and  C_4
REMARK    4  A    between atoms: C_4  and  C_6
REMARK    5  A    between atoms: C_4  and  C_13
REMARK    6  A    between atoms: C_24  and  C_26
REMARK    7  A    between atoms: C_29  and  O_32
REMARK    8  A    between atoms: O_32  and  C_33
REMARK                            x       y       z     vdW  Elec       q    Type
REMARK                         _______ _______ _______ _____ _____    ______ ____
ROOT
ATOM      1  C   UNL     1       5.195  -0.538   1.257  0.00  0.00    +0.238 C 
ATOM      2  O   UNL     1       5.553   0.491   1.791  0.00  0.00    -0.273 OA
ATOM      3  N   UNL     1       4.212  -0.512   0.336  0.00  0.00    -0.287 N 
ATOM      4  C   UNL     1       3.763  -1.748  -0.322  0.00  0.00    +0.115 C 
ATOM      5  C   UNL     1       2.303  -2.020   0.062  0.00  0.00    +0.074 C 
ATOM      6  C   UNL     1       1.524  -0.735  -0.050  0.00  0.00    +0.040 A 
ATOM      7  C   UNL     1       2.072   0.498  -0.088  0.00  0.00    +0.062 A 
ATOM      8  N   UNL     1       1.083   1.390  -0.181  0.00  0.00    -0.348 N 
ATOM      9  C   UNL     1      -0.061   0.758  -0.205  0.00  0.00    +0.171 A 
ATOM     10  N   UNL     1       0.174  -0.572  -0.126  0.00  0.00    -0.349 N 
ATOM     11  H   UNL     1       1.314   2.464  -0.224  0.00  0.00    +0.167 HD
ATOM     12  C   UNL     1       3.560   0.757  -0.036  0.00  0.00    +0.155 C 
ATOM     13  H   UNL     1      -0.487  -1.451  -0.115  0.00  0.00    +0.166 HD
ENDROOT
BRANCH  12  14
ATOM     14  C   UNL     1       4.049   1.210  -1.388  0.00  0.00    -0.021 A 
ATOM     15  C   UNL     1       4.743   2.399  -1.507  0.00  0.00    +0.009 A 
ATOM     16  C   UNL     1       5.197   2.814  -2.744  0.00  0.00    +0.046 A 
ATOM     17  C   UNL     1       4.947   2.041  -3.869  0.00  0.00    +0.120 A 
ATOM     18  C   UNL     1       4.245   0.850  -3.747  0.00  0.00    +0.046 A 
ATOM     19  C   UNL     1       3.798   0.437  -2.507  0.00  0.00    +0.009 A 
BRANCH  17  20
ATOM     20  O   UNL     1       5.387   2.450  -5.088  0.00  0.00    -0.495 OA
ATOM     21  C   UNL     1       6.103   3.686  -5.138  0.00  0.00    +0.277 C 
ENDBRANCH  17  20
ENDBRANCH  12  14
BRANCH   1  22
ATOM     22  C   UNL     1       5.849  -1.845   1.624  0.00  0.00    +0.173 C 
BRANCH  22  23
ATOM     23  C   UNL     1       4.971  -2.591   2.595  0.00  0.00    -0.021 A 
ATOM     24  C   UNL     1       4.982  -2.255   3.936  0.00  0.00    +0.007 A 
ATOM     25  C   UNL     1       4.173  -2.935   4.826  0.00  0.00    +0.020 A 
ATOM     26  C   UNL     1       3.360  -3.960   4.377  0.00  0.00    +0.041 A 
ATOM     27  C   UNL     1       3.353  -4.300   3.036  0.00  0.00    +0.020 A 
ATOM     28  C   UNL     1       4.159  -3.615   2.146  0.00  0.00    +0.007 A 
ATOM     29 CL   UNL     1       2.349  -4.821   5.495  0.00  0.00    -0.084 Cl
ENDBRANCH  22  23
BRANCH  22  31
ATOM     30  C   UNL     1       7.822  -2.836   2.618  0.00  0.00    +0.105 C 
ATOM     31  N   UNL     1       7.154  -1.582   2.246  0.00  0.00    -0.294 NA
ATOM     32  C   UNL     1       8.005  -0.773   1.363  0.00  0.00    +0.105 C 
ENDBRANCH  22  31
ENDBRANCH   1  22
TORSDOF 5
