REMARK  Name = ZINC13396546
REMARK  5 active torsions:
REMARK  status: ('A' for Active; 'I' for Inactive)
REMARK    1  A    between atoms: C_3  and  S_20
REMARK    2  A    between atoms: C_6  and  N_7
REMARK    3  A    between atoms: C_8  and  C_10
REMARK    4  A    between atoms: S_20  and  N_23
REMARK    5  A    between atoms: C_27  and  C_30
REMARK                            x       y       z     vdW  Elec       q    Type
REMARK                         _______ _______ _______ _____ _____    ______ ____
ROOT
ATOM      1  C   UNL     1      -3.998  -1.356  -0.147  0.00  0.00    +0.025 A 
ATOM      2  C   UNL     1      -5.309  -1.785  -0.232  0.00  0.00    +0.030 A 
ATOM      3  C   UNL     1      -5.596  -3.137  -0.230  0.00  0.00    +0.106 A 
ATOM      4  C   UNL     1      -4.574  -4.065  -0.150  0.00  0.00    +0.030 A 
ATOM      5  C   UNL     1      -3.261  -3.643  -0.071  0.00  0.00    +0.025 A 
ATOM      6  C   UNL     1      -2.969  -2.285  -0.072  0.00  0.00    +0.034 A 
ENDROOT
BRANCH   6   7
ATOM      7  N   UNL     1      -1.640  -1.854   0.008  0.00  0.00    -0.285 N 
ATOM      8  C   UNL     1      -0.664  -2.565  -0.591  0.00  0.00    +0.223 C 
ATOM      9  O   UNL     1      -0.924  -3.621  -1.126  0.00  0.00    -0.275 OA
ATOM     10  H   UNL     1      -1.421  -1.043   0.494  0.00  0.00    +0.155 HD
BRANCH   8  11
ATOM     11  C   UNL     1       0.751  -2.047  -0.594  0.00  0.00    +0.048 C 
ATOM     12  C   UNL     1       1.655  -3.037  -1.332  0.00  0.00    +0.019 C 
ATOM     13  C   UNL     1       3.092  -2.511  -1.336  0.00  0.00    -0.009 C 
ATOM     14  C   UNL     1       3.580  -2.353   0.106  0.00  0.00    +0.007 C 
ATOM     15  C   UNL     1       2.677  -1.363   0.844  0.00  0.00    -0.009 C 
ATOM     16  C   UNL     1       1.240  -1.889   0.848  0.00  0.00    +0.019 C 
ATOM     17  C   UNL     1       2.722  -0.007   0.138  0.00  0.00    +0.007 C 
ATOM     18  C   UNL     1       2.234  -0.165  -1.303  0.00  0.00    -0.009 C 
ATOM     19  C   UNL     1       3.137  -1.155  -2.042  0.00  0.00    +0.007 C 
ATOM     20  C   UNL     1       0.797  -0.691  -1.300  0.00  0.00    +0.019 C 
ENDBRANCH   8  11
ENDBRANCH   6   7
BRANCH   3  21
ATOM     21  S   UNL     1      -7.270  -3.680  -0.331  0.00  0.00    +0.061 S 
ATOM     22  O   UNL     1      -8.001  -2.629  -0.947  0.00  0.00    -0.153 OA
ATOM     23  O   UNL     1      -7.238  -4.998  -0.861  0.00  0.00    -0.153 OA
BRANCH  21  24
ATOM     24  N   UNL     1      -7.837  -3.807   1.219  0.00  0.00    -0.176 NA
ATOM     25  C   UNL     1      -8.482  -2.662   1.877  0.00  0.00    +0.109 C 
ATOM     26  C   UNL     1      -7.781  -2.403   3.214  0.00  0.00    +0.018 C 
ATOM     27  C   UNL     1      -7.785  -3.689   4.045  0.00  0.00    +0.017 C 
ATOM     28  C   UNL     1      -7.015  -4.782   3.300  0.00  0.00    +0.118 C 
ATOM     29  C   UNL     1      -7.712  -5.069   1.961  0.00  0.00    +0.124 C 
BRANCH  28  30
ATOM     30  C   UNL     1      -6.991  -6.037   4.133  0.00  0.00    +0.360 C 
ATOM     31  O   UNL     1      -7.474  -7.057   3.703  0.00  0.00    -0.246 OA
ATOM     32  O   UNL     1      -6.432  -6.022   5.353  0.00  0.00    -0.246 OA
ENDBRANCH  28  30
ENDBRANCH  21  24
ENDBRANCH   3  21
TORSDOF 5
