REMARK  Name = ZINC47746602
REMARK  5 active torsions:
REMARK  status: ('A' for Active; 'I' for Inactive)
REMARK    1  A    between atoms: C_4  and  C_7
REMARK    2  A    between atoms: N_11  and  N_12
REMARK    3  A    between atoms: C_13  and  C_14
REMARK    4  A    between atoms: C_16  and  O_22
REMARK    5  A    between atoms: C_17  and  O_21
REMARK                            x       y       z     vdW  Elec       q    Type
REMARK                         _______ _______ _______ _____ _____    ______ ____
ROOT
ATOM      1  C   UNL     1       3.712  -0.703   0.184  0.00  0.00    +0.184 A 
ATOM      2  N   UNL     1       4.888  -0.143   0.113  0.00  0.00    -0.152 NA
ATOM      3  N   UNL     1       5.828  -1.144  -0.167  0.00  0.00    -0.253 N 
ATOM      4  C   UNL     1       5.162  -2.314  -0.259  0.00  0.00    +0.197 A 
ATOM      5  N   UNL     1       3.857  -2.059  -0.040  0.00  0.00    -0.188 N 
ATOM      6  S   UNL     1       5.851  -3.846  -0.588  0.00  0.00    -0.010 S 
ATOM      7  H   UNL     1       6.784  -1.019  -0.276  0.00  0.00    +0.191 HD
ENDROOT
BRANCH   1  11
ATOM      8  C   UNL     1       0.054   1.304   0.984  0.00  0.00    +0.000 A 
ATOM      9  C   UNL     1       1.236   2.021   0.931  0.00  0.00    +0.001 A 
ATOM     10  C   UNL     1       2.427   1.375   0.672  0.00  0.00    +0.011 A 
ATOM     11  C   UNL     1       2.438  -0.004   0.463  0.00  0.00    +0.021 A 
ATOM     12  C   UNL     1       1.243  -0.721   0.518  0.00  0.00    +0.011 A 
ATOM     13  C   UNL     1       0.058  -0.064   0.778  0.00  0.00    +0.001 A 
ENDBRANCH   1  11
BRANCH   5  14
ATOM     14  N   UNL     1       2.824  -3.005  -0.041  0.00  0.00    -0.171 NA
ATOM     15  C   UNL     1       3.102  -4.269  -0.148  0.00  0.00    +0.141 C 
BRANCH  15  16
ATOM     16  C   UNL     1       2.013  -5.257  -0.254  0.00  0.00    -0.000 A 
ATOM     17  C   UNL     1       2.310  -6.618  -0.364  0.00  0.00    +0.058 A 
ATOM     18  C   UNL     1       1.285  -7.540  -0.463  0.00  0.00    +0.160 A 
ATOM     19  C   UNL     1      -0.041  -7.113  -0.453  0.00  0.00    +0.177 A 
ATOM     20  C   UNL     1      -0.337  -5.761  -0.343  0.00  0.00    +0.087 A 
ATOM     21  C   UNL     1       0.681  -4.835  -0.239  0.00  0.00    +0.033 A 
ATOM     22 CL   UNL     1      -1.991  -5.235  -0.332  0.00  0.00    -0.080 Cl
BRANCH  19  23
ATOM     23  O   UNL     1      -1.047  -8.022  -0.550  0.00  0.00    -0.502 OA
ATOM     24  H   UNL     1      -1.355  -8.360   0.301  0.00  0.00    +0.292 HD
ENDBRANCH  19  23
BRANCH  18  25
ATOM     25  O   UNL     1       1.572  -8.865  -0.570  0.00  0.00    -0.503 OA
ATOM     26  H   UNL     1       1.637  -9.324   0.279  0.00  0.00    +0.292 HD
ENDBRANCH  18  25
ENDBRANCH  15  16
ENDBRANCH   5  14
TORSDOF 5
