REMARK  Name = ZINC06744535
REMARK  8 active torsions:
REMARK  status: ('A' for Active; 'I' for Inactive)
REMARK    1  A    between atoms: C_1  and  C_2
REMARK    2  A    between atoms: C_5  and  C_29
REMARK    3  A    between atoms: C_8  and  C_28
REMARK    4  A    between atoms: C_10  and  C_17
REMARK    5  A    between atoms: C_13  and  C_15
REMARK    6  A    between atoms: C_17  and  O_18
REMARK    7  A    between atoms: O_18  and  C_19
REMARK    8  A    between atoms: N_21  and  C_22
REMARK                            x       y       z     vdW  Elec       q    Type
REMARK                         _______ _______ _______ _____ _____    ______ ____
ROOT
ATOM      1  C   UNL     1       1.155   3.098  -2.134  0.00  0.00    +0.012 C 
ATOM      2  C   UNL     1       0.470   3.898  -1.024  0.00  0.00    +0.020 C 
ATOM      3  C   UNL     1       0.644   5.361  -1.295  0.00  0.00    -0.024 C 
ATOM      4  C   UNL     1       1.400   6.154  -0.607  0.00  0.00    -0.070 C 
ATOM      5  C   UNL     1       2.196   5.700   0.590  0.00  0.00    +0.051 C 
ATOM      6  C   UNL     1       2.438   4.187   0.478  0.00  0.00    +0.008 C 
ATOM      7  C   UNL     1       1.075   3.507   0.319  0.00  0.00    +0.037 C 
ATOM      8  C   UNL     1       0.165   3.898   1.476  0.00  0.00    +0.171 C 
ATOM      9  O   UNL     1       0.069   5.294   1.626  0.00  0.00    -0.371 OA
ATOM     10  C   UNL     1       1.329   5.940   1.839  0.00  0.00    +0.148 C 
ATOM     11  C   UNL     1       3.127   3.678   1.746  0.00  0.00    +0.009 C 
ATOM     12  C   UNL     1       1.491   7.600  -1.022  0.00  0.00    +0.039 C 
ENDROOT
BRANCH  10  13
ATOM     13  C   UNL     1       1.118   7.418   2.038  0.00  0.00    -0.003 C 
ATOM     14  C   UNL     1      -0.097   7.900   2.131  0.00  0.00    +0.006 C 
ENDBRANCH  10  13
BRANCH   7  15
ATOM     15  C   UNL     1       1.277   1.991   0.344  0.00  0.00    +0.243 C 
BRANCH  15  16
ATOM     16  O   UNL     1      -0.004   1.329   0.169  0.00  0.00    -0.450 OA
BRANCH  16  17
ATOM     17  C   UNL     1      -0.001  -0.018   0.167  0.00  0.00    +0.405 C 
ATOM     18  O   UNL     1       1.043  -0.623   0.308  0.00  0.00    -0.226 OA
ATOM     19  N   UNL     1      -1.156  -0.694   0.009  0.00  0.00    -0.251 N 
ATOM     20  H   UNL     1      -2.111  -0.149  -0.030  0.00  0.00    +0.158 HD
BRANCH  19  21
ATOM     21  C   UNL     1      -1.140  -2.089  -0.104  0.00  0.00    +0.036 A 
ATOM     22  C   UNL     1      -0.075  -2.724  -0.729  0.00  0.00    +0.023 A 
ATOM     23  C   UNL     1      -0.060  -4.101  -0.834  0.00  0.00    +0.002 A 
ATOM     24  C   UNL     1      -1.109  -4.846  -0.328  0.00  0.00    +0.000 A 
ATOM     25  C   UNL     1      -2.174  -4.216   0.290  0.00  0.00    +0.002 A 
ATOM     26  C   UNL     1      -2.192  -2.840   0.403  0.00  0.00    +0.023 A 
ENDBRANCH  19  21
ENDBRANCH  16  17
ENDBRANCH  15  16
ENDBRANCH   7  15
TORSDOF 5
