REMARK  Name = ZINC17084610
REMARK  7 active torsions:
REMARK  status: ('A' for Active; 'I' for Inactive)
REMARK    1  A    between atoms: C_1  and  C_2
REMARK    2  A    between atoms: C_2  and  N_3
REMARK    3  A    between atoms: C_6  and  C_17
REMARK    4  A    between atoms: N_10  and  C_11
REMARK    5  A    between atoms: C_17  and  C_18
REMARK    6  A    between atoms: N_20  and  C_21
REMARK    7  A    between atoms: C_24  and  C_27
REMARK                            x       y       z     vdW  Elec       q    Type
REMARK                         _______ _______ _______ _____ _____    ______ ____
ROOT
ATOM      1  N   UNL     1      -2.685   5.037   1.387  0.00  0.00    -0.250 N 
ATOM      2  C   UNL     1      -2.321   4.387   0.295  0.00  0.00    +0.235 C 
ATOM      3  O   UNL     1      -2.967   4.436  -0.730  0.00  0.00    -0.274 OA
ATOM      4  C   UNL     1      -1.042   3.574   0.405  0.00  0.00    +0.149 C 
ATOM      5  S   UNL     1      -0.582   3.916   2.150  0.00  0.00    -0.077 S 
ATOM      6  C   UNL     1      -1.955   4.984   2.556  0.00  0.00    +0.164 C 
ATOM      7  N   UNL     1      -2.209   5.579   3.698  0.00  0.00    -0.226 NA
ENDROOT
BRANCH   7   8
ATOM      8  C   UNL     1      -1.363   5.410   4.761  0.00  0.00    +0.067 A 
ATOM      9  C   UNL     1      -0.892   4.136   5.086  0.00  0.00    +0.028 A 
ATOM     10  C   UNL     1      -0.035   3.973   6.155  0.00  0.00    +0.002 A 
ATOM     11  C   UNL     1       0.348   5.067   6.912  0.00  0.00    +0.000 A 
ATOM     12  C   UNL     1      -0.119   6.331   6.598  0.00  0.00    +0.002 A 
ATOM     13  C   UNL     1      -0.971   6.509   5.528  0.00  0.00    +0.028 A 
ENDBRANCH   7   8
BRANCH   1  15
ATOM     14  C   UNL     1      -5.100   4.977   1.771  0.00  0.00    +0.025 C 
ATOM     15  C   UNL     1      -3.909   5.842   1.355  0.00  0.00    +0.112 C 
ENDBRANCH   1  15
BRANCH   4  16
ATOM     16  C   UNL     1      -1.312   2.084   0.185  0.00  0.00    +0.120 C 
BRANCH  16  17
ATOM     17  C   UNL     1      -0.006   1.332   0.180  0.00  0.00    +0.219 C 
ATOM     18  O   UNL     1       1.038   1.929   0.332  0.00  0.00    -0.275 OA
ATOM     19  N   UNL     1       0.002  -0.004   0.002  0.00  0.00    -0.285 N 
ATOM     20  H   UNL     1      -0.835  -0.492  -0.043  0.00  0.00    +0.155 HD
BRANCH  19  21
ATOM     21  C   UNL     1       1.213  -0.684  -0.118  0.00  0.00    +0.033 A 
ATOM     22  C   UNL     1       2.296  -0.069  -0.738  0.00  0.00    +0.024 A 
ATOM     23  C   UNL     1       3.495  -0.735  -0.854  0.00  0.00    +0.017 A 
ATOM     24  C   UNL     1       3.620  -2.036  -0.358  0.00  0.00    +0.063 A 
ATOM     25  C   UNL     1       2.528  -2.654   0.259  0.00  0.00    +0.017 A 
ATOM     26  C   UNL     1       1.334  -1.979   0.377  0.00  0.00    +0.024 A 
BRANCH  24  27
ATOM     27  C   UNL     1       4.901  -2.755  -0.486  0.00  0.00    +0.387 C 
ATOM     28  O   UNL     1       5.008  -3.886  -0.054  0.00  0.00    -0.241 OA
ATOM     29  O   UNL     1       5.953  -2.159  -1.081  0.00  0.00    -0.241 OA
ENDBRANCH  24  27
ENDBRANCH  19  21
ENDBRANCH  16  17
ENDBRANCH   4  16
TORSDOF 6
