REMARK  Name = ZINC01279481
REMARK  8 active torsions:
REMARK  status: ('A' for Active; 'I' for Inactive)
REMARK    1  A    between atoms: C_1  and  C_2
REMARK    2  A    between atoms: C_2  and  C_4
REMARK    3  A    between atoms: C_2  and  N_35
REMARK    4  A    between atoms: C_4  and  O_6
REMARK    5  A    between atoms: O_6  and  C_7
REMARK    6  A    between atoms: C_10  and  C_13
REMARK    7  A    between atoms: C_18  and  C_22
REMARK    8  A    between atoms: C_18  and  C_23
REMARK                            x       y       z     vdW  Elec       q    Type
REMARK                         _______ _______ _______ _____ _____    ______ ____
ROOT
ATOM      1  C   UNL     1      -3.526  -0.680  -1.037  0.00  0.00    +0.132 A 
ATOM      2  C   UNL     1      -4.021  -1.457   0.000  0.00  0.00    +0.046 A 
ATOM      3  C   UNL     1      -5.316  -1.936  -0.055  0.00  0.00    +0.008 A 
ATOM      4  C   UNL     1      -6.117  -1.642  -1.142  0.00  0.00    -0.035 A 
ATOM      5  C   UNL     1      -5.626  -0.868  -2.177  0.00  0.00    +0.008 A 
ATOM      6  C   UNL     1      -4.334  -0.382  -2.124  0.00  0.00    +0.046 A 
ENDROOT
BRANCH   4   7
ATOM      7  C   UNL     1      -7.529  -2.166  -1.199  0.00  0.00    +0.089 C 
ATOM      8  C   UNL     1      -8.495  -1.003  -1.277  0.00  0.00    +0.024 C 
ATOM      9  C   UNL     1      -9.139  -0.678  -2.416  0.00  0.00    +0.016 C 
ATOM     10  C   UNL     1     -10.083   0.501  -2.460  0.00  0.00    +0.058 C 
ATOM     11  C   UNL     1     -10.749   0.680  -1.094  0.00  0.00    -0.023 C 
ATOM     12  C   UNL     1      -9.650   0.897  -0.048  0.00  0.00    +0.086 C 
ATOM     13  C   UNL     1      -8.698  -0.265  -0.094  0.00  0.00    +0.162 C 
ATOM     14  O   UNL     1      -8.090  -0.574   0.911  0.00  0.00    -0.292 OA
ATOM     15  C   UNL     1     -11.677   1.896  -1.128  0.00  0.00    +0.011 C 
ATOM     16  C   UNL     1     -11.553  -0.574  -0.745  0.00  0.00    +0.011 C 
ATOM     17  N   UNL     1      -8.976  -1.390  -3.579  0.00  0.00    -0.317 N 
ATOM     18  C   UNL     1      -8.383  -2.630  -3.525  0.00  0.00    +0.047 C 
ATOM     19  C   UNL     1      -7.691  -3.038  -2.414  0.00  0.00    +0.033 C 
ATOM     20  C   UNL     1      -7.193  -4.345  -2.621  0.00  0.00    +0.193 C 
ATOM     21  O   UNL     1      -6.542  -5.000  -1.830  0.00  0.00    -0.287 OA
ATOM     22  C   UNL     1      -7.610  -4.770  -3.975  0.00  0.00    +0.031 A 
ATOM     23  C   UNL     1      -8.350  -3.698  -4.529  0.00  0.00    +0.007 A 
ATOM     24  C   UNL     1      -8.885  -3.786  -5.804  0.00  0.00    +0.010 A 
ATOM     25  C   UNL     1      -8.660  -4.974  -6.505  0.00  0.00    +0.001 A 
ATOM     26  C   UNL     1      -7.942  -6.014  -5.963  0.00  0.00    +0.001 A 
ATOM     27  C   UNL     1      -7.397  -5.939  -4.680  0.00  0.00    +0.012 A 
ATOM     28  H   UNL     1      -9.275  -1.025  -4.427  0.00  0.00    +0.152 HD
ENDBRANCH   4   7
BRANCH   1  29
ATOM     29  O   UNL     1      -2.252  -0.207  -0.985  0.00  0.00    -0.425 OA
BRANCH  29  30
ATOM     30  C   UNL     1      -1.252  -1.058  -1.263  0.00  0.00    +0.333 C 
ATOM     31  O   UNL     1      -1.490  -2.226  -1.461  0.00  0.00    -0.248 OA
BRANCH  30  33
ATOM     32  C   UNL     1       0.559   0.044   0.024  0.00  0.00    +0.040 C 
ATOM     33  C   UNL     1       0.168  -0.557  -1.328  0.00  0.00    +0.190 C 
BRANCH  33  34
ATOM     34  N   UNL     1       1.065  -1.671  -1.645  0.00  0.00    -0.220 N 
ATOM     35  C   UNL     1       1.199  -2.778  -0.892  0.00  0.00    +0.255 C 
ATOM     36  O   UNL     1       0.606  -3.008   0.142  0.00  0.00    -0.270 OA
ATOM     37  C   UNL     1       2.190  -3.667  -1.534  0.00  0.00    +0.049 A 
ATOM     38  C   UNL     1       2.720  -4.909  -1.225  0.00  0.00    +0.014 A 
ATOM     39  C   UNL     1       3.661  -5.484  -2.065  0.00  0.00    +0.001 A 
ATOM     40  C   UNL     1       4.074  -4.826  -3.208  0.00  0.00    +0.001 A 
ATOM     41  C   UNL     1       3.553  -3.583  -3.531  0.00  0.00    +0.014 A 
ATOM     42  C   UNL     1       2.611  -2.996  -2.700  0.00  0.00    +0.049 A 
ATOM     43  C   UNL     1       1.858  -1.725  -2.730  0.00  0.00    +0.255 C 
ATOM     44  O   UNL     1       1.943  -0.870  -3.588  0.00  0.00    -0.270 OA
ENDBRANCH  33  34
ENDBRANCH  30  33
ENDBRANCH  29  30
ENDBRANCH   1  29
TORSDOF 5
