REMARK  Name = ZINC06301057
REMARK  9 active torsions:
REMARK  status: ('A' for Active; 'I' for Inactive)
REMARK    1  A    between atoms: C_1  and  C_2
REMARK    2  A    between atoms: C_4  and  C_35
REMARK    3  A    between atoms: C_9  and  C_14
REMARK    4  A    between atoms: C_14  and  C_16
REMARK    5  A    between atoms: C_14  and  N_70
REMARK    6  A    between atoms: N_20  and  C_21
REMARK    7  A    between atoms: C_21  and  C_22
REMARK    8  A    between atoms: C_22  and  O_23
REMARK    9  A    between atoms: O_23  and  C_24
REMARK                            x       y       z     vdW  Elec       q    Type
REMARK                         _______ _______ _______ _____ _____    ______ ____
ROOT
ATOM      1  C   UNL     1      -1.194  -0.920   0.009  0.00  0.00    +0.039 C 
ENDROOT
BRANCH   1  10
ATOM      2  C   UNL     1      -2.501  -4.497   6.422  0.00  0.00    +0.044 C 
ATOM      3  C   UNL     1      -2.585  -3.259   5.567  0.00  0.00    -0.050 A 
ATOM      4  C   UNL     1      -3.174  -2.109   6.076  0.00  0.00    +0.008 A 
ATOM      5  C   UNL     1      -3.261  -0.966   5.312  0.00  0.00    -0.026 A 
ATOM      6  C   UNL     1      -2.755  -0.961   4.017  0.00  0.00    +0.052 A 
ATOM      7  C   UNL     1      -2.158  -2.128   3.504  0.00  0.00    -0.001 A 
ATOM      8  C   UNL     1      -2.081  -3.277   4.297  0.00  0.00    +0.013 A 
ATOM      9  C   UNL     1      -1.627  -2.112   2.139  0.00  0.00    +0.017 A 
ATOM     10  C   UNL     1      -1.731  -0.970   1.417  0.00  0.00    +0.011 A 
ATOM     11  C   UNL     1      -2.334   0.175   1.980  0.00  0.00    +0.251 A 
ATOM     12  O   UNL     1      -2.412   1.194   1.315  0.00  0.00    -0.268 OA
ATOM     13  N   UNL     1      -2.829   0.169   3.230  0.00  0.00    -0.322 N 
ATOM     14  H   UNL     1      -3.240   0.973   3.585  0.00  0.00    +0.169 HD
ATOM     15  C   UNL     1      -3.903   0.275   5.878  0.00  0.00    +0.046 C 
ENDBRANCH   1  10
BRANCH   1  26
ATOM     16  C   UNL     1      -3.385  -1.391  -0.908  0.00  0.00    -0.077 C 
ATOM     17  C   UNL     1      -4.522  -0.809  -1.751  0.00  0.00    -0.018 C 
ATOM     18  C   UNL     1      -4.022  -0.572  -3.179  0.00  0.00    +0.003 C 
ATOM     19  C   UNL     1      -2.812   0.364  -3.139  0.00  0.00    -0.044 C 
ATOM     20  C   UNL     1      -1.724  -0.252  -2.257  0.00  0.00    -0.071 C 
ATOM     21  C   UNL     1      -3.233   1.717  -2.561  0.00  0.00    +0.005 C 
ATOM     22  C   UNL     1      -4.324   2.330  -3.441  0.00  0.00    +0.000 C 
ATOM     23  C   UNL     1      -3.783   2.526  -4.859  0.00  0.00    +0.000 C 
ATOM     24  C   UNL     1      -3.362   1.174  -5.437  0.00  0.00    +0.000 C 
ATOM     25  C   UNL     1      -2.271   0.560  -4.556  0.00  0.00    +0.005 C 
ATOM     26  N   UNL     1      -2.260  -0.432  -0.890  0.00  0.00    +0.390 N 
ATOM     27  H   UNL     1      -2.599   0.473  -0.544  0.00  0.00    -0.080 HD
ENDBRANCH   1  26
BRANCH   1  28
ATOM     28  C   UNL     1      -0.028   0.032  -0.051  0.00  0.00    +0.142 A 
ATOM     29  N   UNL     1      -0.087   1.340  -0.099  0.00  0.00    -0.115 NA
ATOM     30  N   UNL     1       1.119   1.792  -0.140  0.00  0.00    -0.023 NA
ATOM     31  N   UNL     1       1.946   0.805  -0.119  0.00  0.00    -0.044 NA
ATOM     32  N   UNL     1       1.278  -0.297  -0.064  0.00  0.00    -0.228 N 
BRANCH  32  33
ATOM     33  C   UNL     1       1.835  -1.651  -0.024  0.00  0.00    +0.175 C 
BRANCH  33  34
ATOM     34  C   UNL     1       1.999  -2.178  -1.451  0.00  0.00    +0.183 C 
BRANCH  34  35
ATOM     35  O   UNL     1       2.543  -3.499  -1.411  0.00  0.00    -0.381 OA
ATOM     36  C   UNL     1       2.737  -4.086  -2.699  0.00  0.00    +0.194 C 
ENDBRANCH  34  35
ENDBRANCH  33  34
ENDBRANCH  32  33
ENDBRANCH   1  28
TORSDOF 6
