REMARK  Name = ZINC36298380
REMARK  7 active torsions:
REMARK  status: ('A' for Active; 'I' for Inactive)
REMARK    1  A    between atoms: C_1  and  C_2
REMARK    2  A    between atoms: C_5  and  S_9
REMARK    3  A    between atoms: S_9  and  N_12
REMARK    4  A    between atoms: N_12  and  C_13
REMARK    5  A    between atoms: C_18  and  C_19
REMARK    6  A    between atoms: C_19  and  N_20
REMARK    7  A    between atoms: N_20  and  C_21
REMARK                            x       y       z     vdW  Elec       q    Type
REMARK                         _______ _______ _______ _____ _____    ______ ____
ROOT
ATOM      1  N   UNL     1       1.506  -5.006   0.633  0.00  0.00    -0.098 NA
ENDROOT
BRANCH   1   2
ATOM      2  C   UNL     1       1.804  -6.365   0.754  0.00  0.00    +0.076 A 
ATOM      3  C   UNL     1       0.894  -7.319   0.318  0.00  0.00    +0.027 A 
ATOM      4  C   UNL     1       1.193  -8.662   0.439  0.00  0.00    +0.002 A 
ATOM      5  C   UNL     1       2.396  -9.057   0.994  0.00  0.00    +0.000 A 
ATOM      6  C   UNL     1       3.304  -8.110   1.430  0.00  0.00    +0.003 A 
ATOM      7  C   UNL     1       3.014  -6.765   1.306  0.00  0.00    -0.040 A 
BRANCH   7   8
ATOM      8  C   UNL     1       4.007  -5.733   1.776  0.00  0.00    -0.045 C 
BRANCH   8   9
ATOM      9  N   UNL     1       3.610  -5.238   3.100  0.00  0.00    +0.380 N 
ATOM     10  C   UNL     1       4.578  -4.232   3.558  0.00  0.00    -0.100 C 
ATOM     11  H   UNL     1       2.693  -4.820   3.042  0.00  0.00    -0.086 HD
ATOM     12  H   UNL     1       3.588  -6.006   3.754  0.00  0.00    -0.086 HD
ENDBRANCH   8   9
ENDBRANCH   7   8
ENDBRANCH   1   2
BRANCH   1  13
ATOM     13  S   UNL     1       0.062  -4.531  -0.025  0.00  0.00    +0.093 S 
ATOM     14  O   UNL     1      -0.953  -4.956   0.873  0.00  0.00    -0.148 OA
ATOM     15  O   UNL     1       0.088  -4.928  -1.389  0.00  0.00    -0.148 OA
BRANCH  13  20
ATOM     16  C   UNL     1      -0.018   1.503   0.010  0.00  0.00    +0.044 C 
ATOM     17  C   UNL     1       0.002  -0.004   0.002  0.00  0.00    -0.049 A 
ATOM     18  C   UNL     1       0.006  -0.689  -1.199  0.00  0.00    +0.005 A 
ATOM     19  C   UNL     1       0.025  -2.071  -1.207  0.00  0.00    +0.030 A 
ATOM     20  C   UNL     1       0.040  -2.769  -0.015  0.00  0.00    +0.124 A 
ATOM     21  C   UNL     1       0.036  -2.085   1.187  0.00  0.00    +0.045 A 
ATOM     22  C   UNL     1       0.023  -0.701   1.195  0.00  0.00    +0.020 A 
ATOM     23 BR   UNL     1       0.056  -3.039   2.820  0.00  0.00    -0.048 Br
ENDBRANCH  13  20
ENDBRANCH   1  13
TORSDOF 5
