REMARK  Name = ZINC11904096
REMARK  6 active torsions:
REMARK  status: ('A' for Active; 'I' for Inactive)
REMARK    1  A    between atoms: C_1  and  C_2
REMARK    2  A    between atoms: C_7  and  N_8
REMARK    3  A    between atoms: N_8  and  S_9
REMARK    4  A    between atoms: S_9  and  C_12
REMARK    5  A    between atoms: C_15  and  N_18
REMARK    6  A    between atoms: C_21  and  C_27
REMARK                            x       y       z     vdW  Elec       q    Type
REMARK                         _______ _______ _______ _____ _____    ______ ____
ROOT
ATOM      1  C   UNL     1      -2.365  -0.209   2.469  0.00  0.00    +0.109 A 
ATOM      2  C   UNL     1      -1.120  -0.218   3.072  0.00  0.00    +0.030 A 
ATOM      3  C   UNL     1      -1.009  -0.024   4.435  0.00  0.00    +0.027 A 
ATOM      4  C   UNL     1      -2.150   0.170   5.202  0.00  0.00    +0.059 A 
ATOM      5  C   UNL     1      -3.399   0.173   4.595  0.00  0.00    +0.027 A 
ATOM      6  C   UNL     1      -3.503  -0.017   3.231  0.00  0.00    +0.030 A 
ENDROOT
BRANCH   4   7
ATOM      7  N   UNL     1      -2.042   0.362   6.584  0.00  0.00    -0.144 N 
ATOM      8  C   UNL     1      -2.923   1.008   7.362  0.00  0.00    +0.243 C 
ATOM      9  O   UNL     1      -3.943   1.468   6.895  0.00  0.00    -0.273 OA
ATOM     10  C   UNL     1      -2.620   1.143   8.824  0.00  0.00    +0.097 C 
ATOM     11  C   UNL     1      -1.549   0.090   9.211  0.00  0.00    +0.201 C 
ATOM     12  S   UNL     1      -0.787  -0.169   7.556  0.00  0.00    +0.053 S 
ATOM     13  O   UNL     1      -0.641  -1.554   7.275  0.00  0.00    -0.155 OA
ATOM     14  O   UNL     1       0.279   0.746   7.341  0.00  0.00    -0.155 OA
ATOM     15  C   UNL     1      -3.892   0.908   9.641  0.00  0.00    +0.019 C 
ENDBRANCH   4   7
BRANCH   1  16
ATOM     16  S   UNL     1      -2.501  -0.452   0.730  0.00  0.00    +0.072 S 
ATOM     17  O   UNL     1      -3.810  -0.950   0.490  0.00  0.00    -0.150 OA
ATOM     18  O   UNL     1      -1.333  -1.153   0.324  0.00  0.00    -0.150 OA
BRANCH  16  19
ATOM     19  N   UNL     1      -2.426   1.042   0.020  0.00  0.00    -0.216 N 
ATOM     20  H   UNL     1      -3.170   1.365  -0.513  0.00  0.00    +0.174 HD
BRANCH  19  27
ATOM     21  C   UNL     1      -2.781   3.857   0.231  0.00  0.00    +0.046 C 
ATOM     22  C   UNL     1      -1.418   3.218   0.295  0.00  0.00    -0.028 A 
ATOM     23  C   UNL     1      -0.293   4.004   0.456  0.00  0.00    +0.006 A 
ATOM     24  C   UNL     1       0.958   3.419   0.515  0.00  0.00    +0.020 A 
ATOM     25  C   UNL     1       1.089   2.045   0.413  0.00  0.00    +0.043 A 
ATOM     26  C   UNL     1      -0.033   1.253   0.253  0.00  0.00    +0.044 A 
ATOM     27  C   UNL     1      -1.291   1.839   0.187  0.00  0.00    +0.052 A 
ATOM     28 CL   UNL     1       2.662   1.315   0.488  0.00  0.00    -0.083 Cl
ENDBRANCH  19  27
ENDBRANCH  16  19
ENDBRANCH   1  16
TORSDOF 4
