REMARK  Name = ZINC47886648
REMARK  6 active torsions:
REMARK  status: ('A' for Active; 'I' for Inactive)
REMARK    1  A    between atoms: C_1  and  N_2
REMARK    2  A    between atoms: C_3  and  C_5
REMARK    3  A    between atoms: C_5  and  C_6
REMARK    4  A    between atoms: C_11  and  N_12
REMARK    5  A    between atoms: C_13  and  C_15
REMARK    6  A    between atoms: C_18  and  C_20
REMARK                            x       y       z     vdW  Elec       q    Type
REMARK                         _______ _______ _______ _____ _____    ______ ____
ROOT
ATOM      1  N   UNL     1      -2.643  -2.511  -2.392  0.00  0.00    -0.280 N 
ATOM      2  C   UNL     1      -3.285  -2.737  -3.555  0.00  0.00    +0.267 C 
ATOM      3  O   UNL     1      -4.426  -3.159  -3.548  0.00  0.00    -0.268 OA
ATOM      4  H   UNL     1      -1.758  -2.114  -2.395  0.00  0.00    +0.155 HD
ENDROOT
BRANCH   1  10
ATOM      5  C   UNL     1      -2.486  -3.316  -0.121  0.00  0.00    -0.017 A 
ATOM      6  C   UNL     1      -3.091  -3.643   1.077  0.00  0.00    +0.006 A 
ATOM      7  C   UNL     1      -4.459  -3.511   1.221  0.00  0.00    +0.000 A 
ATOM      8  C   UNL     1      -5.227  -3.051   0.167  0.00  0.00    +0.002 A 
ATOM      9  C   UNL     1      -4.629  -2.722  -1.033  0.00  0.00    +0.023 A 
ATOM     10  C   UNL     1      -3.253  -2.849  -1.179  0.00  0.00    +0.037 A 
BRANCH   5  11
ATOM     11  C   UNL     1      -0.994  -3.461  -0.277  0.00  0.00    +0.132 C 
BRANCH  11  14
ATOM     12  C   UNL     1       1.660  -0.747   0.216  0.00  0.00    +0.128 C 
ATOM     13  N   UNL     1       1.013  -2.030  -0.065  0.00  0.00    -0.318 N 
ATOM     14  C   UNL     1      -0.328  -2.140   0.013  0.00  0.00    +0.217 C 
ATOM     15  O   UNL     1      -0.999  -1.177   0.316  0.00  0.00    -0.275 OA
ATOM     16  H   UNL     1       1.550  -2.801  -0.308  0.00  0.00    +0.148 HD
ENDBRANCH  11  14
ENDBRANCH   5  11
ENDBRANCH   1  10
BRANCH   2  17
ATOM     17  C   UNL     1      -2.605  -2.474  -4.835  0.00  0.00    +0.133 A 
ATOM     18  C   UNL     1      -3.250  -2.696  -6.023  0.00  0.00    +0.080 A 
ATOM     19  S   UNL     1      -2.086  -2.257  -7.156  0.00  0.00    -0.075 S 
ATOM     20  C   UNL     1      -0.788  -1.796  -6.022  0.00  0.00    +0.109 A 
ATOM     21  N   UNL     1      -1.361  -2.014  -4.853  0.00  0.00    -0.234 NA
BRANCH  20  22
ATOM     22  C   UNL     1       0.573  -1.296  -6.316  0.00  0.00    +0.007 A 
ATOM     23  C   UNL     1       1.448  -0.995  -5.271  0.00  0.00    +0.012 A 
ATOM     24  C   UNL     1       2.716  -0.528  -5.551  0.00  0.00    +0.020 A 
ATOM     25  C   UNL     1       3.120  -0.358  -6.864  0.00  0.00    +0.041 A 
ATOM     26  C   UNL     1       2.255  -0.655  -7.904  0.00  0.00    +0.020 A 
ATOM     27  C   UNL     1       0.987  -1.128  -7.637  0.00  0.00    +0.012 A 
ATOM     28 CL   UNL     1       4.717   0.230  -7.208  0.00  0.00    -0.084 Cl
ENDBRANCH  20  22
ENDBRANCH   2  17
TORSDOF 5
