REMARK  Name = ZINC63271665
REMARK  3 active torsions:
REMARK  status: ('A' for Active; 'I' for Inactive)
REMARK    1  A    between atoms: N_18  and  C_19
REMARK    2  A    between atoms: C_19  and  C_20
REMARK    3  A    between atoms: N_22  and  C_23
REMARK                            x       y       z     vdW  Elec       q    Type
REMARK                         _______ _______ _______ _____ _____    ______ ____
ROOT
ATOM      1  C   UNL     1      -0.072   1.423   0.952  0.00  0.00    +0.022 A 
ATOM      2  C   UNL     1       1.051   2.159   0.821  0.00  0.00    +0.027 A 
ATOM      3  C   UNL     1       2.318   1.527   0.701  0.00  0.00    +0.043 A 
ATOM      4  N   UNL     1       3.531   2.018   0.585  0.00  0.00    -0.376 N 
ATOM      5  C   UNL     1       4.468   0.909   0.420  0.00  0.00    +0.124 C 
ATOM      6  C   UNL     1       5.560   0.918   1.496  0.00  0.00    +0.138 C 
ATOM      7  N   UNL     1       6.192  -0.411   1.509  0.00  0.00    -0.283 N 
ATOM      8  C   UNL     1       5.398  -1.613   1.788  0.00  0.00    +0.114 C 
ATOM      9  C   UNL     1       4.259  -1.721   0.758  0.00  0.00    +0.052 C 
ATOM     10  C   UNL     1       3.639  -0.350   0.616  0.00  0.00    -0.035 C 
ATOM     11  C   UNL     1       2.363   0.044   0.732  0.00  0.00    +0.001 A 
ATOM     12  C   UNL     1       1.095  -0.681   0.875  0.00  0.00    +0.030 A 
ATOM     13  C   UNL     1      -0.058   0.020   0.978  0.00  0.00    +0.042 A 
ATOM     14 CL   UNL     1      -1.557  -0.838   1.146  0.00  0.00    -0.084 Cl
ATOM     15  C   UNL     1       7.512  -0.525   1.262  0.00  0.00    +0.303 C 
ATOM     16  O   UNL     1       8.157   0.454   0.940  0.00  0.00    -0.253 OA
ATOM     17  N   UNL     1       8.117  -1.724   1.371  0.00  0.00    -0.291 N 
ATOM     18  H   UNL     1       7.591  -2.518   1.557  0.00  0.00    +0.151 HD
ATOM     19  H   UNL     1       3.766   2.959   0.605  0.00  0.00    +0.160 HD
ENDROOT
BRANCH  17  20
ATOM     20  C   UNL     1       9.569  -1.829   1.210  0.00  0.00    +0.202 C 
BRANCH  20  21
ATOM     21  C   UNL     1       9.990  -3.267   1.378  0.00  0.00    +0.234 C 
ATOM     22  O   UNL     1       9.159  -4.119   1.610  0.00  0.00    -0.274 OA
ATOM     23  N   UNL     1      11.290  -3.605   1.271  0.00  0.00    -0.284 N 
ATOM     24  H   UNL     1      11.963  -2.915   1.156  0.00  0.00    +0.155 HD
BRANCH  23  25
ATOM     25  C   UNL     1      11.667  -4.939   1.324  0.00  0.00    +0.034 C 
ATOM     26  C   UNL     1      12.597  -5.357   2.251  0.00  0.00    +0.029 C 
ATOM     27  C   UNL     1      12.858  -6.732   2.252  0.00  0.00    -0.016 C 
ATOM     28  C   UNL     1      13.956  -7.456   2.548  0.00  0.00    +0.025 C 
ATOM     29  C   UNL     1      13.772  -8.783   2.112  0.00  0.00    +0.106 C 
ATOM     30  N   UNL     1      12.575  -8.983   1.633  0.00  0.00    -0.279 NA
ATOM     31  C   UNL     1      11.818  -7.753   1.816  0.00  0.00    +0.158 C 
ATOM     32  C   UNL     1      11.152  -7.226   0.581  0.00  0.00    +0.006 C 
ATOM     33  C   UNL     1      11.073  -5.907   0.398  0.00  0.00    +0.021 C 
ENDBRANCH  23  25
ENDBRANCH  20  21
ENDBRANCH  17  20
TORSDOF 3
