REMARK  Name = ZINC66304186
REMARK  6 active torsions:
REMARK  status: ('A' for Active; 'I' for Inactive)
REMARK    1  A    between atoms: C_1  and  C_2
REMARK    2  A    between atoms: C_4  and  C_7
REMARK    3  A    between atoms: C_7  and  N_14
REMARK    4  A    between atoms: C_15  and  C_17
REMARK    5  A    between atoms: C_17  and  C_18
REMARK    6  A    between atoms: C_21  and  C_23
REMARK                            x       y       z     vdW  Elec       q    Type
REMARK                         _______ _______ _______ _____ _____    ______ ____
ROOT
ATOM      1  N   UNL     1      -2.409  -3.215  -1.221  0.00  0.00    -0.302 N 
ATOM      2  C   UNL     1      -3.217  -2.162  -1.453  0.00  0.00    +0.220 C 
ATOM      3  O   UNL     1      -3.266  -1.247  -0.657  0.00  0.00    -0.275 OA
ATOM      4  H   UNL     1      -2.370  -3.946  -1.857  0.00  0.00    +0.150 HD
ENDROOT
BRANCH   1   5
ATOM      5  C   UNL     1      -1.588  -3.254  -0.008  0.00  0.00    +0.097 C 
ATOM      6  C   UNL     1      -2.514  -3.169   1.223  0.00  0.00    +0.034 C 
ATOM      7  C   UNL     1      -3.729  -4.018   0.966  0.00  0.00    +0.003 C 
ATOM      8  C   UNL     1      -3.582  -5.443   1.533  0.00  0.00    +0.000 C 
ATOM      9  C   UNL     1      -2.183  -6.041   1.292  0.00  0.00    +0.000 C 
ATOM     10  C   UNL     1      -1.660  -5.744  -0.088  0.00  0.00    +0.003 C 
ATOM     11  C   UNL     1      -0.790  -4.472  -0.018  0.00  0.00    +0.034 C 
BRANCH   5  15
ATOM     12  C   UNL     1      -0.018   1.503   0.010  0.00  0.00    +0.112 C 
ATOM     13  C   UNL     1       0.002  -0.004   0.002  0.00  0.00    +0.224 A 
ATOM     14  N   UNL     1      -1.044  -0.783   0.003  0.00  0.00    -0.194 NA
ATOM     15  C   UNL     1      -0.663  -2.065  -0.006  0.00  0.00    +0.195 A 
ATOM     16  N   UNL     1       0.638  -2.118  -0.012  0.00  0.00    -0.059 NA
ATOM     17  O   UNL     1       1.097  -0.774  -0.013  0.00  0.00    -0.338 OA
ENDBRANCH   5  15
ENDBRANCH   1   5
BRANCH   2  18
ATOM     18  C   UNL     1      -4.062  -2.121  -2.700  0.00  0.00    +0.151 C 
BRANCH  18  19
ATOM     19  C   UNL     1      -4.868  -0.848  -2.720  0.00  0.00    +0.058 A 
ATOM     20  C   UNL     1      -4.795  -0.011  -3.790  0.00  0.00    +0.071 A 
ATOM     21  S   UNL     1      -5.919   1.282  -3.275  0.00  0.00    -0.074 S 
ATOM     22  C   UNL     1      -6.361   0.569  -1.696  0.00  0.00    +0.128 A 
ATOM     23  N   UNL     1      -5.645  -0.547  -1.708  0.00  0.00    -0.242 NA
BRANCH  22  24
ATOM     24  C   UNL     1      -7.281   1.082  -0.659  0.00  0.00    +0.114 A 
ATOM     25  C   UNL     1      -7.953   2.291  -0.855  0.00  0.00    +0.141 A 
ATOM     26  N   UNL     1      -8.773   2.744   0.074  0.00  0.00    -0.260 NA
ATOM     27  C   UNL     1      -8.959   2.056   1.188  0.00  0.00    +0.130 A 
ATOM     28  C   UNL     1      -8.295   0.857   1.387  0.00  0.00    +0.131 A 
ATOM     29  N   UNL     1      -7.476   0.392   0.462  0.00  0.00    -0.250 NA
ENDBRANCH  22  24
ENDBRANCH  18  19
ENDBRANCH   2  18
TORSDOF 5
