REMARK  Name = ZINC39566218
REMARK  6 active torsions:
REMARK  status: ('A' for Active; 'I' for Inactive)
REMARK    1  A    between atoms: C_3  and  S_8
REMARK    2  A    between atoms: S_8  and  N_11
REMARK    3  A    between atoms: C_14  and  C_17
REMARK    4  A    between atoms: C_17  and  O_19
REMARK    5  A    between atoms: O_19  and  C_20
REMARK    6  A    between atoms: C_20  and  C_21
REMARK                            x       y       z     vdW  Elec       q    Type
REMARK                         _______ _______ _______ _____ _____    ______ ____
ROOT
ATOM      1  N   UNL     1       4.326   2.557   1.556  0.00  0.00    -0.177 NA
ATOM      2  C   UNL     1       3.871   3.749   2.284  0.00  0.00    +0.110 C 
ATOM      3  C   UNL     1       3.187   3.304   3.581  0.00  0.00    +0.032 C 
ATOM      4  C   UNL     1       4.142   2.410   4.375  0.00  0.00    +0.100 C 
ATOM      5  C   UNL     1       4.478   1.163   3.554  0.00  0.00    +0.032 C 
ATOM      6  C   UNL     1       5.171   1.580   2.258  0.00  0.00    +0.110 C 
ENDROOT
BRANCH   1   7
ATOM      7  S   UNL     1       3.891   2.315  -0.023  0.00  0.00    +0.061 S 
ATOM      8  O   UNL     1       4.872   1.456  -0.588  0.00  0.00    -0.153 OA
ATOM      9  O   UNL     1       3.597   3.595  -0.564  0.00  0.00    -0.153 OA
BRANCH   7  12
ATOM     10  C   UNL     1      -0.017   1.380   0.010  0.00  0.00    +0.040 A 
ATOM     11  C   UNL     1       1.171   2.087   0.002  0.00  0.00    +0.031 A 
ATOM     12  C   UNL     1       2.377   1.412  -0.013  0.00  0.00    +0.106 A 
ATOM     13  C   UNL     1       2.397   0.030  -0.021  0.00  0.00    +0.031 A 
ATOM     14  C   UNL     1       1.211  -0.679  -0.014  0.00  0.00    +0.040 A 
ATOM     15  C   UNL     1       0.002  -0.004   0.002  0.00  0.00    +0.124 A 
ATOM     16  F   UNL     1      -1.158  -0.696   0.009  0.00  0.00    -0.205 F 
ENDBRANCH   7  12
ENDBRANCH   1   7
BRANCH   4  17
ATOM     17  C   UNL     1       3.486   1.998   5.668  0.00  0.00    +0.311 C 
ATOM     18  O   UNL     1       2.369   2.380   5.927  0.00  0.00    -0.251 OA
BRANCH  17  19
ATOM     19  O   UNL     1       4.141   1.206   6.531  0.00  0.00    -0.460 OA
BRANCH  19  20
ATOM     20  C   UNL     1       3.458   0.855   7.736  0.00  0.00    +0.270 C 
BRANCH  20  21
ATOM     21  C   UNL     1       4.343  -0.032   8.575  0.00  0.00    +0.025 A 
ATOM     22  C   UNL     1       5.606  -0.370   8.126  0.00  0.00    +0.011 A 
ATOM     23  C   UNL     1       6.418  -1.183   8.895  0.00  0.00    +0.016 A 
ATOM     24  C   UNL     1       5.968  -1.658  10.114  0.00  0.00    +0.021 A 
ATOM     25  C   UNL     1       4.705  -1.321  10.563  0.00  0.00    +0.054 A 
ATOM     26  C   UNL     1       3.893  -0.502   9.796  0.00  0.00    +0.131 A 
ATOM     27  F   UNL     1       2.661  -0.167  10.238  0.00  0.00    -0.205 F 
ATOM     28 BR   UNL     1       7.080  -2.770  11.164  0.00  0.00    -0.050 Br
ENDBRANCH  20  21
ENDBRANCH  19  20
ENDBRANCH  17  19
ENDBRANCH   4  17
TORSDOF 6
