REMARK  Name = ZINC20328500
REMARK  10 active torsions:
REMARK  status: ('A' for Active; 'I' for Inactive)
REMARK    1  A    between atoms: C_1  and  C_2
REMARK    2  A    between atoms: C_2  and  O_3
REMARK    3  A    between atoms: O_3  and  C_4
REMARK    4  A    between atoms: C_4  and  C_6
REMARK    5  A    between atoms: C_7  and  C_21
REMARK    6  A    between atoms: C_12  and  C_14
REMARK    7  A    between atoms: C_21  and  S_22
REMARK    8  A    between atoms: S_22  and  C_25
REMARK    9  A    between atoms: C_28  and  C_32
REMARK   10  A    between atoms: C_29  and  C_31
REMARK                            x       y       z     vdW  Elec       q    Type
REMARK                         _______ _______ _______ _____ _____    ______ ____
ROOT
ATOM      1  C   UNL     1      -0.027   6.434   2.162  0.00  0.00    +0.080 C 
ATOM      2  C   UNL     1       1.129   5.811   1.846  0.00  0.00    +0.045 C 
ATOM      3  N   UNL     1       2.288   6.513   1.686  0.00  0.00    -0.271 N 
ATOM      4  C   UNL     1       2.378   7.842   1.831  0.00  0.00    +0.304 C 
ATOM      5  O   UNL     1       3.456   8.380   1.669  0.00  0.00    -0.252 OA
ATOM      6  N   UNL     1       1.312   8.601   2.151  0.00  0.00    -0.288 N 
ATOM      7  C   UNL     1       0.011   7.938   2.345  0.00  0.00    +0.144 C 
ATOM      8  H   UNL     1       3.219   5.988   1.424  0.00  0.00    +0.156 HD
ATOM      9  H   UNL     1       1.396   9.692   2.268  0.00  0.00    +0.151 HD
ENDROOT
BRANCH   7  10
ATOM     10  C   UNL     1      -0.969   8.545   1.375  0.00  0.00    -0.022 A 
ATOM     11  C   UNL     1      -0.567   8.852   0.088  0.00  0.00    +0.007 A 
ATOM     12  C   UNL     1      -1.468   9.404  -0.804  0.00  0.00    +0.020 A 
ATOM     13  C   UNL     1      -2.768   9.658  -0.406  0.00  0.00    +0.041 A 
ATOM     14  C   UNL     1      -3.168   9.355   0.883  0.00  0.00    +0.020 A 
ATOM     15  C   UNL     1      -2.268   8.798   1.773  0.00  0.00    +0.007 A 
ATOM     16 CL   UNL     1      -3.897  10.357  -1.524  0.00  0.00    -0.084 Cl
ENDBRANCH   7  10
BRANCH   1  17
ATOM     17  C   UNL     1      -1.230   5.708   2.321  0.00  0.00    +0.339 C 
ATOM     18  O   UNL     1      -1.212   4.492   2.310  0.00  0.00    -0.245 OA
BRANCH  17  19
ATOM     19  O   UNL     1      -2.397   6.365   2.486  0.00  0.00    -0.462 OA
BRANCH  19  21
ATOM     20  C   UNL     1      -4.789   6.481   2.814  0.00  0.00    +0.048 C 
ATOM     21  C   UNL     1      -3.573   5.568   2.641  0.00  0.00    +0.229 C 
ENDBRANCH  19  21
ENDBRANCH  17  19
ENDBRANCH   1  17
BRANCH   2  22
ATOM     22  C   UNL     1       1.137   4.315   1.660  0.00  0.00    +0.223 C 
BRANCH  22  23
ATOM     23  S   UNL     1       1.757   3.522   3.168  0.00  0.00    +0.002 S 
ATOM     24  O   UNL     1       0.831   3.700   4.232  0.00  0.00    -0.169 OA
ATOM     25  O   UNL     1       3.134   3.822   3.349  0.00  0.00    -0.169 OA
BRANCH  23  26
ATOM     26  C   UNL     1       1.716   1.794   2.822  0.00  0.00    +0.089 A 
ATOM     27  C   UNL     1       2.816   1.176   2.258  0.00  0.00    +0.027 A 
ATOM     28  C   UNL     1       2.784  -0.179   1.986  0.00  0.00    +0.005 A 
ATOM     29  C   UNL     1       1.651  -0.915   2.278  0.00  0.00    -0.047 A 
ATOM     30  C   UNL     1       0.551  -0.297   2.842  0.00  0.00    -0.046 A 
ATOM     31  C   UNL     1       0.583   1.058   3.114  0.00  0.00    +0.030 A 
ATOM     32  C   UNL     1      -0.684  -1.101   3.161  0.00  0.00    +0.044 C 
ATOM     33  C   UNL     1       1.616  -2.393   1.982  0.00  0.00    +0.044 C 
ENDBRANCH  23  26
ENDBRANCH  22  23
ENDBRANCH   2  22
TORSDOF 7
