REMARK  Name = ZINC37130051
REMARK  2 active torsions:
REMARK  status: ('A' for Active; 'I' for Inactive)
REMARK    1  A    between atoms: C_7  and  N_12
REMARK    2  A    between atoms: N_12  and  C_13
REMARK                            x       y       z     vdW  Elec       q    Type
REMARK                         _______ _______ _______ _____ _____    ______ ____
ROOT
ATOM      1  N   UNL     1       0.148  -2.670  -0.926  0.00  0.00    -0.337 N 
ATOM      2  H   UNL     1       0.377  -2.905  -1.839  0.00  0.00    +0.147 HD
ENDROOT
BRANCH   1   3
ATOM      3  C   UNL     1      -1.175  -2.784  -0.485  0.00  0.00    +0.030 A 
ATOM      4  C   UNL     1      -1.504  -2.442   0.821  0.00  0.00    +0.026 A 
ATOM      5  C   UNL     1      -2.807  -2.553   1.262  0.00  0.00    +0.050 A 
ATOM      6  C   UNL     1      -3.794  -3.008   0.401  0.00  0.00    +0.157 A 
ATOM      7  C   UNL     1      -3.466  -3.352  -0.910  0.00  0.00    +0.089 A 
ATOM      8  C   UNL     1      -2.159  -3.234  -1.354  0.00  0.00    +0.052 A 
ATOM      9  N   UNL     1      -4.649  -3.767  -1.521  0.00  0.00    -0.288 N 
ATOM     10  H   UNL     1      -4.746  -4.069  -2.438  0.00  0.00    +0.172 HD
ATOM     11  C   UNL     1      -5.634  -3.671  -0.605  0.00  0.00    +0.419 A 
ATOM     12  O   UNL     1      -6.801  -3.953  -0.797  0.00  0.00    -0.223 OA
ATOM     13  O   UNL     1      -5.126  -3.216   0.551  0.00  0.00    -0.408 OA
ENDBRANCH   1   3
BRANCH   1  20
ATOM     14  C   UNL     1      -0.017   1.377   0.010  0.00  0.00    +0.001 A 
ATOM     15  C   UNL     1       1.172   2.084   0.002  0.00  0.00    +0.004 A 
ATOM     16  C   UNL     1       2.375   1.409  -0.015  0.00  0.00    +0.046 A 
ATOM     17  C   UNL     1       2.398   0.018  -0.024  0.00  0.00    +0.125 A 
ATOM     18  C   UNL     1       1.207  -0.687  -0.012  0.00  0.00    +0.014 A 
ATOM     19  C   UNL     1       0.002  -0.004   0.002  0.00  0.00    +0.009 A 
ATOM     20  C   UNL     1       1.187  -2.194  -0.010  0.00  0.00    +0.107 C 
ATOM     21  C   UNL     1       2.548  -2.729  -0.463  0.00  0.00    +0.068 C 
ATOM     22  C   UNL     1       3.641  -1.990   0.320  0.00  0.00    +0.231 C 
ATOM     23  O   UNL     1       3.602  -0.610  -0.046  0.00  0.00    -0.492 OA
ENDBRANCH   1  20
TORSDOF 2
