REMARK  Name = ZINC41511335
REMARK  8 active torsions:
REMARK  status: ('A' for Active; 'I' for Inactive)
REMARK    1  A    between atoms: C_1  and  C_2
REMARK    2  A    between atoms: C_4  and  O_30
REMARK    3  A    between atoms: C_5  and  C_21
REMARK    4  A    between atoms: C_11  and  C_12
REMARK    5  A    between atoms: C_15  and  O_18
REMARK    6  A    between atoms: O_18  and  C_19
REMARK    7  A    between atoms: C_21  and  N_22
REMARK    8  A    between atoms: C_27  and  C_29
REMARK                            x       y       z     vdW  Elec       q    Type
REMARK                         _______ _______ _______ _____ _____    ______ ____
ROOT
ATOM      1  C   UNL     1      -0.086   1.509   0.016  0.00  0.00    +0.045 C 
ATOM      2  C   UNL     1      -0.073   0.002   0.006  0.00  0.00    -0.033 A 
ATOM      3  C   UNL     1      -0.094  -0.674  -1.181  0.00  0.00    +0.050 A 
ATOM      4  C   UNL     1      -0.082  -2.066  -1.193  0.00  0.00    +0.122 A 
ATOM      5  C   UNL     1      -0.049  -2.781  -0.007  0.00  0.00    +0.020 A 
ATOM      6  C   UNL     1      -0.028  -2.109   1.209  0.00  0.00    +0.145 A 
ATOM      7  C   UNL     1      -0.034  -0.704   1.208  0.00  0.00    +0.071 A 
ATOM      8  C   UNL     1       0.000  -0.288   2.622  0.00  0.00    +0.232 C 
ATOM      9  O   UNL     1       0.002   0.847   3.066  0.00  0.00    -0.283 OA
ATOM     10  C   UNL     1       0.032  -1.549   3.377  0.00  0.00    +0.176 C 
ATOM     11  C   UNL     1       0.069  -1.674   4.728  0.00  0.00    +0.058 C 
ATOM     12  O   UNL     1       0.004  -2.563   2.480  0.00  0.00    -0.451 OA
ENDROOT
BRANCH  11  13
ATOM     13  C   UNL     1      -0.017  -3.003   5.345  0.00  0.00    -0.021 A 
ATOM     14  C   UNL     1      -0.114  -3.127   6.737  0.00  0.00    +0.011 A 
ATOM     15  C   UNL     1      -0.195  -4.376   7.310  0.00  0.00    +0.046 A 
ATOM     16  C   UNL     1      -0.180  -5.513   6.510  0.00  0.00    +0.120 A 
ATOM     17  C   UNL     1      -0.084  -5.396   5.128  0.00  0.00    +0.046 A 
ATOM     18  C   UNL     1      -0.009  -4.152   4.544  0.00  0.00    +0.011 A 
BRANCH  16  19
ATOM     19  O   UNL     1      -0.260  -6.742   7.081  0.00  0.00    -0.495 OA
ATOM     20  C   UNL     1      -0.239  -7.868   6.201  0.00  0.00    +0.277 C 
ENDBRANCH  16  19
ENDBRANCH  11  13
BRANCH   4  21
ATOM     21  O   UNL     1      -0.103  -2.729  -2.378  0.00  0.00    -0.506 OA
ATOM     22  H   UNL     1       0.774  -2.913  -2.741  0.00  0.00    +0.292 HD
ENDBRANCH   4  21
BRANCH   5  23
ATOM     23  C   UNL     1      -0.037  -4.288  -0.035  0.00  0.00    -0.035 C 
BRANCH  23  24
ATOM     24  N   UNL     1       1.351  -4.766  -0.075  0.00  0.00    +0.384 N 
ATOM     25  C   UNL     1       2.034  -4.387   1.167  0.00  0.00    -0.078 C 
ATOM     26  C   UNL     1       3.502  -4.812   1.097  0.00  0.00    -0.019 C 
ATOM     27  C   UNL     1       3.581  -6.330   0.912  0.00  0.00    -0.003 C 
ATOM     28  C   UNL     1       2.802  -6.721  -0.347  0.00  0.00    -0.016 C 
ATOM     29  C   UNL     1       1.360  -6.226  -0.223  0.00  0.00    -0.071 C 
ATOM     30  C   UNL     1       0.578  -6.616  -1.480  0.00  0.00    -0.013 C 
ATOM     31  H   UNL     1       1.827  -4.346  -0.860  0.00  0.00    -0.081 HD
ENDBRANCH  23  24
ENDBRANCH   5  23
TORSDOF 5
