REMARK  Name = ZINC04177448
REMARK  6 active torsions:
REMARK  status: ('A' for Active; 'I' for Inactive)
REMARK    1  A    between atoms: C_1  and  C_2
REMARK    2  A    between atoms: C_8  and  C_27
REMARK    3  A    between atoms: C_9  and  N_11
REMARK    4  A    between atoms: C_12  and  C_14
REMARK    5  A    between atoms: C_19  and  O_20
REMARK    6  A    between atoms: O_20  and  C_21
REMARK                            x       y       z     vdW  Elec       q    Type
REMARK                         _______ _______ _______ _____ _____    ______ ____
ROOT
ATOM      1  N   UNL     1      -0.167   9.364  -0.255  0.00  0.00    -0.275 N 
ATOM      2  C   UNL     1      -0.099   8.021  -0.162  0.00  0.00    +0.252 C 
ATOM      3  O   UNL     1       0.982   7.471  -0.082  0.00  0.00    -0.270 OA
ATOM      4  H   UNL     1      -1.030   9.803  -0.319  0.00  0.00    +0.156 HD
ENDROOT
BRANCH   1  12
ATOM      5  C   UNL     1       4.609  15.221  -0.178  0.00  0.00    +0.008 C 
ATOM      6  C   UNL     1       4.215  13.766   0.081  0.00  0.00    -0.009 C 
ATOM      7  C   UNL     1       5.183  12.837  -0.658  0.00  0.00    +0.009 C 
ATOM      8  C   UNL     1       4.939  11.395  -0.190  0.00  0.00    +0.043 C 
ATOM      9  C   UNL     1       3.466  11.129  -0.229  0.00  0.00    -0.004 A 
ATOM     10  C   UNL     1       2.476  12.042  -0.330  0.00  0.00    -0.023 A 
ATOM     11  C   UNL     1       1.130  11.496  -0.352  0.00  0.00    +0.068 A 
ATOM     12  C   UNL     1       0.996  10.117  -0.259  0.00  0.00    +0.085 A 
ATOM     13  S   UNL     1       2.636   9.567  -0.157  0.00  0.00    -0.077 S 
ATOM     14  C   UNL     1       2.788  13.531  -0.418  0.00  0.00    +0.040 C 
BRANCH  11  15
ATOM     15  C   UNL     1      -0.043  12.368  -0.464  0.00  0.00    +0.244 C 
ATOM     16  O   UNL     1      -0.575  12.806   0.539  0.00  0.00    -0.270 OA
ATOM     17  N   UNL     1      -0.533  12.685  -1.679  0.00  0.00    -0.325 N 
ATOM     18  H   UNL     1      -0.110  12.336  -2.479  0.00  0.00    +0.145 HD
ATOM     19  H   UNL     1      -1.310  13.262  -1.753  0.00  0.00    +0.145 HD
ENDBRANCH  11  15
ENDBRANCH   1  12
BRANCH   2  20
ATOM     20  C   UNL     1      -1.337   7.219  -0.158  0.00  0.00    +0.079 A 
ATOM     21  C   UNL     1      -2.581   7.846  -0.256  0.00  0.00    +0.017 A 
ATOM     22  C   UNL     1      -3.734   7.091  -0.245  0.00  0.00    +0.001 A 
ATOM     23  C   UNL     1      -3.665   5.711  -0.144  0.00  0.00    +0.004 A 
ATOM     24  C   UNL     1      -2.442   5.078  -0.052  0.00  0.00    +0.047 A 
ATOM     25  C   UNL     1      -1.271   5.822  -0.061  0.00  0.00    +0.141 A 
BRANCH  25  26
ATOM     26  O   UNL     1      -0.069   5.201   0.029  0.00  0.00    -0.455 OA
BRANCH  26  27
ATOM     27  C   UNL     1      -0.048   3.842  -0.004  0.00  0.00    +0.128 A 
ATOM     28  C   UNL     1       0.320   3.126   1.126  0.00  0.00    +0.046 A 
ATOM     29  C   UNL     1       0.340   1.745   1.091  0.00  0.00    +0.004 A 
ATOM     30  C   UNL     1      -0.007   1.077  -0.070  0.00  0.00    +0.000 A 
ATOM     31  C   UNL     1      -0.369   1.789  -1.198  0.00  0.00    +0.004 A 
ATOM     32  C   UNL     1      -0.396   3.170  -1.166  0.00  0.00    +0.046 A 
ENDBRANCH  26  27
ENDBRANCH  25  26
ENDBRANCH   2  20
TORSDOF 5
