REMARK  Name = ZINC20833601
REMARK  10 active torsions:
REMARK  status: ('A' for Active; 'I' for Inactive)
REMARK    1  A    between atoms: C_3  and  O_35
REMARK    2  A    between atoms: C_6  and  C_7
REMARK    3  A    between atoms: N_8  and  N_9
REMARK    4  A    between atoms: C_12  and  S_15
REMARK    5  A    between atoms: S_15  and  C_16
REMARK    6  A    between atoms: C_16  and  C_17
REMARK    7  A    between atoms: C_17  and  C_18
REMARK    8  A    between atoms: N_20  and  C_21
REMARK    9  A    between atoms: C_24  and  S_27
REMARK   10  A    between atoms: S_27  and  N_30
REMARK                            x       y       z     vdW  Elec       q    Type
REMARK                         _______ _______ _______ _____ _____    ______ ____
ROOT
ATOM      1  C   UNL     1      -0.707  -2.731  -0.003  0.00  0.00    +0.086 C 
ENDROOT
BRANCH   1   2
ATOM      2  S   UNL     1      -1.410  -1.059   0.022  0.00  0.00    -0.084 S 
BRANCH   2   6
ATOM      3  N   UNL     1       1.688   3.128   0.009  0.00  0.00    -0.205 N 
ATOM      4  C   UNL     1       1.277   1.802   0.005  0.00  0.00    +0.232 A 
ATOM      5  N   UNL     1      -0.017   1.362   0.022  0.00  0.00    -0.186 NA
ATOM      6  C   UNL     1       0.002  -0.004   0.009  0.00  0.00    +0.210 A 
ATOM      7  N   UNL     1       1.254  -0.392  -0.014  0.00  0.00    -0.144 NA
ATOM      8  N   UNL     1       2.062   0.752  -0.017  0.00  0.00    -0.245 N 
ATOM      9  H   UNL     1       0.941   3.935   0.028  0.00  0.00    +0.177 HD
ATOM     10  H   UNL     1       3.154   0.882  -0.034  0.00  0.00    +0.192 HD
BRANCH   3  12
ATOM     11  C   UNL     1       3.438   4.678  -0.006  0.00  0.00    +0.138 C 
ATOM     12  N   UNL     1       3.054   3.438  -0.010  0.00  0.00    -0.188 NA
BRANCH  11  18
ATOM     13  C   UNL     1       5.827   3.981  -0.044  0.00  0.00    +0.013 A 
ATOM     14  C   UNL     1       7.169   4.291  -0.069  0.00  0.00    +0.046 A 
ATOM     15  C   UNL     1       7.578   5.618  -0.064  0.00  0.00    +0.117 A 
ATOM     16  C   UNL     1       6.636   6.639  -0.041  0.00  0.00    +0.046 A 
ATOM     17  C   UNL     1       5.291   6.339  -0.022  0.00  0.00    +0.013 A 
ATOM     18  C   UNL     1       4.875   5.005  -0.026  0.00  0.00    -0.005 A 
BRANCH  15  19
ATOM     19  O   UNL     1       8.903   5.919  -0.082  0.00  0.00    -0.507 OA
ATOM     20  H   UNL     1       9.228   6.970  -0.078  0.00  0.00    +0.292 HD
ENDBRANCH  15  19
ENDBRANCH  11  18
ENDBRANCH   3  12
ENDBRANCH   2   6
ENDBRANCH   1   2
BRANCH   1  21
ATOM     21  C   UNL     1      -1.840  -3.760   0.006  0.00  0.00    +0.107 C 
BRANCH  21  22
ATOM     22  C   UNL     1      -1.256  -5.149  -0.016  0.00  0.00    +0.218 C 
ATOM     23  O   UNL     1      -0.053  -5.302  -0.036  0.00  0.00    -0.275 OA
ATOM     24  N   UNL     1      -2.071  -6.223  -0.012  0.00  0.00    -0.285 N 
ATOM     25  H   UNL     1      -3.159  -6.087   0.083  0.00  0.00    +0.155 HD
BRANCH  24  26
ATOM     26  C   UNL     1      -1.534  -7.510  -0.130  0.00  0.00    +0.033 A 
ATOM     27  C   UNL     1      -2.230  -8.493  -0.820  0.00  0.00    +0.025 A 
ATOM     28  C   UNL     1      -1.694  -9.761  -0.940  0.00  0.00    +0.030 A 
ATOM     29  C   UNL     1      -0.472 -10.054  -0.363  0.00  0.00    +0.106 A 
ATOM     30  C   UNL     1       0.220  -9.078   0.331  0.00  0.00    +0.030 A 
ATOM     31  C   UNL     1      -0.307  -7.807   0.449  0.00  0.00    +0.025 A 
BRANCH  29  32
ATOM     32  S   UNL     1       0.204 -11.674  -0.511  0.00  0.00    +0.061 S 
ATOM     33  O   UNL     1      -0.379 -12.253  -1.670  0.00  0.00    -0.153 OA
ATOM     34  O   UNL     1       1.610 -11.543  -0.350  0.00  0.00    -0.153 OA
BRANCH  32  35
ATOM     35  N   UNL     1      -0.341 -12.553   0.782  0.00  0.00    -0.177 NA
ATOM     36  C   UNL     1       0.334 -12.672   2.083  0.00  0.00    +0.109 C 
ATOM     37  C   UNL     1      -0.525 -13.605   2.962  0.00  0.00    +0.018 C 
ATOM     38  C   UNL     1      -1.335 -14.416   1.915  0.00  0.00    +0.018 C 
ATOM     39  C   UNL     1      -1.581 -13.350   0.819  0.00  0.00    +0.109 C 
ENDBRANCH  32  35
ENDBRANCH  29  32
ENDBRANCH  24  26
ENDBRANCH  21  22
ENDBRANCH   1  21
TORSDOF 10
