REMARK  Name = ZINC08916476
REMARK  9 active torsions:
REMARK  status: ('A' for Active; 'I' for Inactive)
REMARK    1  A    between atoms: C_1  and  N_2
REMARK    2  A    between atoms: N_7  and  C_10
REMARK    3  A    between atoms: N_11  and  C_21
REMARK    4  A    between atoms: N_14  and  C_15
REMARK    5  A    between atoms: C_15  and  C_16
REMARK    6  A    between atoms: C_16  and  C_18
REMARK    7  A    between atoms: C_16  and  O_20
REMARK    8  A    between atoms: C_18  and  O_19
REMARK    9  A    between atoms: C_21  and  C_22
REMARK                            x       y       z     vdW  Elec       q    Type
REMARK                         _______ _______ _______ _____ _____    ______ ____
ROOT
ATOM      1  C   UNL     1      -0.171   5.421   0.032  0.00  0.00    +0.155 C 
ATOM      2  N   UNL     1      -0.093   3.958   0.024  0.00  0.00    -0.280 N 
ATOM      3  C   UNL     1       1.143   3.331   0.009  0.00  0.00    +0.170 A 
ATOM      4  C   UNL     1       1.189   1.941   0.001  0.00  0.00    +0.153 A 
ATOM      5  C   UNL     1      -0.015   1.214   0.009  0.00  0.00    +0.282 A 
ATOM      6  O   UNL     1       0.002  -0.004   0.002  0.00  0.00    -0.265 OA
ATOM      7  N   UNL     1      -1.188   1.880   0.018  0.00  0.00    -0.262 N 
ATOM      8  C   UNL     1      -1.221   3.224   0.031  0.00  0.00    +0.333 A 
ATOM      9  O   UNL     1      -2.297   3.791   0.044  0.00  0.00    -0.246 OA
ATOM     10  C   UNL     1      -2.445   1.127   0.020  0.00  0.00    +0.157 C 
ATOM     11  N   UNL     1       2.534   1.595  -0.014  0.00  0.00    -0.302 N 
ATOM     12  C   UNL     1       3.237   2.758  -0.014  0.00  0.00    +0.198 A 
ATOM     13  N   UNL     1       2.401   3.776  -0.001  0.00  0.00    -0.196 NA
ATOM     14  N   UNL     1       4.610   2.857  -0.027  0.00  0.00    -0.312 N 
ATOM     15  H   UNL     1       5.154   2.054  -0.037  0.00  0.00    +0.149 HD
ENDROOT
BRANCH  14  16
ATOM     16  C   UNL     1       5.249   4.175  -0.026  0.00  0.00    +0.138 C 
BRANCH  16  17
ATOM     17  C   UNL     1       6.770   4.004  -0.042  0.00  0.00    +0.157 C 
BRANCH  17  18
ATOM     18  O   UNL     1       7.179   3.275   1.117  0.00  0.00    -0.388 OA
ATOM     19  H   UNL     1       6.949   3.703   1.953  0.00  0.00    +0.210 HD
ENDBRANCH  17  18
BRANCH  17  20
ATOM     20  C   UNL     1       7.438   5.380  -0.041  0.00  0.00    +0.188 C 
BRANCH  20  21
ATOM     21  O   UNL     1       8.852   5.224  -0.173  0.00  0.00    -0.392 OA
ATOM     22  H   UNL     1       9.341   6.058  -0.180  0.00  0.00    +0.210 HD
ENDBRANCH  20  21
ENDBRANCH  17  20
ENDBRANCH  16  17
ENDBRANCH  14  16
BRANCH  11  23
ATOM     23  C   UNL     1       3.087   0.238  -0.026  0.00  0.00    +0.160 C 
BRANCH  23  24
ATOM     24  C   UNL     1       3.263  -0.220  -1.451  0.00  0.00    -0.026 A 
ATOM     25  C   UNL     1       4.452   0.023  -2.112  0.00  0.00    +0.007 A 
ATOM     26  C   UNL     1       4.615  -0.397  -3.419  0.00  0.00    +0.022 A 
ATOM     27  C   UNL     1       3.587  -1.060  -4.066  0.00  0.00    +0.059 A 
ATOM     28  C   UNL     1       2.396  -1.303  -3.403  0.00  0.00    +0.060 A 
ATOM     29  C   UNL     1       2.237  -0.886  -2.093  0.00  0.00    +0.026 A 
ATOM     30 CL   UNL     1       1.105  -2.135  -4.213  0.00  0.00    -0.082 Cl
ATOM     31 CL   UNL     1       3.791  -1.588  -5.707  0.00  0.00    -0.082 Cl
ENDBRANCH  23  24
ENDBRANCH  11  23
TORSDOF 7
