REMARK  Name = ZINC19314663
REMARK  7 active torsions:
REMARK  status: ('A' for Active; 'I' for Inactive)
REMARK    1  A    between atoms: C_1  and  C_2
REMARK    2  A    between atoms: C_3  and  C_17
REMARK    3  A    between atoms: C_4  and  O_16
REMARK    4  A    between atoms: C_13  and  O_15
REMARK    5  A    between atoms: C_17  and  O_19
REMARK    6  A    between atoms: O_19  and  C_20
REMARK    7  A    between atoms: C_20  and  C_21
REMARK                            x       y       z     vdW  Elec       q    Type
REMARK                         _______ _______ _______ _____ _____    ______ ____
ROOT
ATOM      1  C   UNL     1       4.735  -2.212  -3.385  0.00  0.00    +0.061 C 
ATOM      2  C   UNL     1       4.142  -1.983  -2.018  0.00  0.00    +0.017 C 
ATOM      3  C   UNL     1       3.423  -2.912  -1.366  0.00  0.00    +0.097 C 
ATOM      4  C   UNL     1       2.994  -2.337  -0.034  0.00  0.00    +0.211 C 
ATOM      5  C   UNL     1       1.499  -2.138  -0.021  0.00  0.00    +0.205 C 
ATOM      6  O   UNL     1       0.664  -3.017  -0.018  0.00  0.00    -0.288 OA
ATOM      7  C   UNL     1       1.226  -0.691  -0.013  0.00  0.00    +0.028 A 
ATOM      8  C   UNL     1       0.002  -0.004   0.002  0.00  0.00    +0.012 A 
ATOM      9  C   UNL     1      -0.017   1.373   0.010  0.00  0.00    +0.001 A 
ATOM     10  C   UNL     1       1.171   2.084   0.002  0.00  0.00    +0.000 A 
ATOM     11  C   UNL     1       2.381   1.416  -0.014  0.00  0.00    +0.009 A 
ATOM     12  C   UNL     1       2.417   0.034  -0.022  0.00  0.00    +0.016 A 
ATOM     13  C   UNL     1       3.591  -0.914  -0.041  0.00  0.00    +0.199 C 
ATOM     14  N   UNL     1       4.284  -0.822  -1.333  0.00  0.00    -0.313 N 
ATOM     15  H   UNL     1       4.813   0.103  -1.609  0.00  0.00    +0.149 HD
ENDROOT
BRANCH  13  16
ATOM     16  O   UNL     1       4.467  -0.696   1.068  0.00  0.00    -0.365 OA
ATOM     17  H   UNL     1       4.966   0.276   1.192  0.00  0.00    +0.212 HD
ENDBRANCH  13  16
BRANCH   4  18
ATOM     18  O   UNL     1       3.456  -3.119   1.070  0.00  0.00    -0.372 OA
ATOM     19  H   UNL     1       3.215  -2.815   2.099  0.00  0.00    +0.211 HD
ENDBRANCH   4  18
BRANCH   3  20
ATOM     20  C   UNL     1       3.121  -4.206  -1.842  0.00  0.00    +0.340 C 
ATOM     21  O   UNL     1       3.522  -4.561  -2.935  0.00  0.00    -0.245 OA
BRANCH  20  22
ATOM     22  O   UNL     1       2.386  -5.049  -1.086  0.00  0.00    -0.457 OA
BRANCH  22  23
ATOM     23  C   UNL     1       2.118  -6.342  -1.631  0.00  0.00    +0.268 C 
BRANCH  23  24
ATOM     24  C   UNL     1       1.292  -7.138  -0.653  0.00  0.00    -0.010 A 
ATOM     25  C   UNL     1       1.915  -7.927   0.296  0.00  0.00    +0.007 A 
ATOM     26  C   UNL     1       1.157  -8.653   1.196  0.00  0.00    +0.000 A 
ATOM     27  C   UNL     1      -0.223  -8.598   1.141  0.00  0.00    +0.000 A 
ATOM     28  C   UNL     1      -0.845  -7.813   0.188  0.00  0.00    +0.000 A 
ATOM     29  C   UNL     1      -0.088  -7.083  -0.709  0.00  0.00    +0.007 A 
ENDBRANCH  23  24
ENDBRANCH  22  23
ENDBRANCH  20  22
ENDBRANCH   3  20
TORSDOF 6
