REMARK  Name = ZINC20518089
REMARK  3 active torsions:
REMARK  status: ('A' for Active; 'I' for Inactive)
REMARK    1  A    between atoms: C_13  and  C_16
REMARK    2  A    between atoms: C_16  and  C_17
REMARK    3  A    between atoms: N_22  and  C_25
REMARK                            x       y       z     vdW  Elec       q    Type
REMARK                         _______ _______ _______ _____ _____    ______ ____
ROOT
ATOM      1  C   UNL     1      -0.017   1.380   0.010  0.00  0.00    +0.040 A 
ATOM      2  C   UNL     1       1.165   2.092   0.002  0.00  0.00    +0.026 A 
ATOM      3  C   UNL     1       2.386   1.424  -0.013  0.00  0.00    +0.039 A 
ATOM      4  C   UNL     1       2.394   0.032  -0.019  0.00  0.00    +0.006 A 
ATOM      5  C   UNL     1       1.214  -0.676  -0.012  0.00  0.00    +0.046 A 
ATOM      6  C   UNL     1       0.002  -0.004   0.002  0.00  0.00    +0.124 A 
ATOM      7  F   UNL     1      -1.157  -0.698   0.009  0.00  0.00    -0.205 F 
ATOM      8  C   UNL     1       3.842  -0.370  -0.033  0.00  0.00    +0.136 C 
ATOM      9  C   UNL     1       4.201  -1.227   1.187  0.00  0.00    +0.122 C 
ATOM     10  C   UNL     1       4.165  -2.689   0.661  0.00  0.00    +0.107 C 
ATOM     11  C   UNL     1       3.751  -2.568  -0.820  0.00  0.00    +0.076 C 
ATOM     12  N   UNL     1       4.166  -1.190  -1.215  0.00  0.00    -0.295 NA
ATOM     13  C   UNL     1       5.608  -3.131   0.759  0.00  0.00    +0.227 C 
ATOM     14  O   UNL     1       6.031  -4.219   0.433  0.00  0.00    -0.275 OA
ATOM     15  N   UNL     1       6.345  -2.133   1.260  0.00  0.00    -0.238 N 
ATOM     16  C   UNL     1       5.653  -1.007   1.550  0.00  0.00    +0.228 C 
ATOM     17  O   UNL     1       6.110   0.013   2.019  0.00  0.00    -0.275 OA
ATOM     18  C   UNL     1       4.608   0.925  -0.037  0.00  0.00    +0.243 C 
ATOM     19  O   UNL     1       5.814   1.052  -0.050  0.00  0.00    -0.273 OA
ATOM     20  N   UNL     1       3.695   1.915  -0.024  0.00  0.00    -0.283 N 
ATOM     21  H   UNL     1       3.649  -0.879  -2.024  0.00  0.00    +0.124 HD
ATOM     22  H   UNL     1       3.920   2.859  -0.022  0.00  0.00    +0.155 HD
ENDROOT
BRANCH  15  23
ATOM     23  C   UNL     1       7.788  -2.249   1.486  0.00  0.00    +0.084 C 
ATOM     24  C   UNL     1       8.489  -2.544   0.158  0.00  0.00    +0.023 C 
ATOM     25  C   UNL     1       9.996  -2.666   0.393  0.00  0.00    +0.002 C 
ATOM     26  C   UNL     1      10.268  -3.805   1.377  0.00  0.00    +0.000 C 
ATOM     27  C   UNL     1       9.567  -3.511   2.704  0.00  0.00    +0.002 C 
ATOM     28  C   UNL     1       8.060  -3.389   2.469  0.00  0.00    +0.023 C 
ENDBRANCH  15  23
BRANCH  11  29
ATOM     29  C   UNL     1       4.500  -3.599  -1.668  0.00  0.00    +0.115 C 
BRANCH  29  30
ATOM     30  C   UNL     1       3.992  -3.547  -3.086  0.00  0.00    +0.212 C 
ATOM     31  O   UNL     1       3.118  -2.763  -3.389  0.00  0.00    -0.276 OA
ATOM     32  N   UNL     1       4.510  -4.372  -4.017  0.00  0.00    -0.329 N 
ATOM     33  H   UNL     1       5.209  -4.999  -3.775  0.00  0.00    +0.145 HD
ATOM     34  H   UNL     1       4.183  -4.339  -4.930  0.00  0.00    +0.145 HD
ENDBRANCH  29  30
ENDBRANCH  11  29
TORSDOF 3
