REMARK  Name = ZINC38639962
REMARK  8 active torsions:
REMARK  status: ('A' for Active; 'I' for Inactive)
REMARK    1  A    between atoms: C_1  and  C_2
REMARK    2  A    between atoms: C_4  and  C_33
REMARK    3  A    between atoms: C_8  and  C_12
REMARK    4  A    between atoms: C_12  and  S_13
REMARK    5  A    between atoms: S_13  and  C_14
REMARK    6  A    between atoms: C_14  and  C_16
REMARK    7  A    between atoms: C_14  and  C_17
REMARK    8  A    between atoms: N_19  and  N_20
REMARK                            x       y       z     vdW  Elec       q    Type
REMARK                         _______ _______ _______ _____ _____    ______ ____
ROOT
ATOM      1  C   UNL     1      -5.363  -5.944   6.359  0.00  0.00    +0.242 C 
ATOM      2  O   UNL     1      -6.304  -5.546   5.705  0.00  0.00    -0.273 OA
ATOM      3  N   UNL     1      -5.511  -7.007   7.175  0.00  0.00    -0.223 N 
ATOM      4  H   UNL     1      -4.759  -7.325   7.698  0.00  0.00    +0.174 HD
ENDROOT
BRANCH   3   5
ATOM      5  N   UNL     1      -6.751  -7.652   7.268  0.00  0.00    -0.137 N 
ATOM      6  C   UNL     1      -7.596  -7.525   8.312  0.00  0.00    +0.263 C 
ATOM      7  O   UNL     1      -7.433  -6.857   9.310  0.00  0.00    -0.271 OA
ATOM      8  C   UNL     1      -8.788  -8.391   7.974  0.00  0.00    +0.114 C 
ATOM      9  C   UNL     1     -10.052  -7.543   7.884  0.00  0.00    +0.035 C 
ATOM     10  C   UNL     1     -11.241  -8.433   7.511  0.00  0.00    +0.003 C 
ATOM     11  C   UNL     1     -11.412  -9.523   8.572  0.00  0.00    +0.000 C 
ATOM     12  C   UNL     1     -10.145 -10.379   8.634  0.00  0.00    +0.003 C 
ATOM     13  C   UNL     1      -8.952  -9.497   9.011  0.00  0.00    +0.035 C 
ATOM     14  N   UNL     1      -8.455  -8.960   6.662  0.00  0.00    -0.284 N 
ATOM     15  C   UNL     1      -7.247  -8.466   6.328  0.00  0.00    +0.326 C 
ATOM     16  O   UNL     1      -6.671  -8.733   5.292  0.00  0.00    -0.251 OA
ATOM     17  H   UNL     1      -8.999  -9.568   6.138  0.00  0.00    +0.151 HD
ENDBRANCH   3   5
BRANCH   1  18
ATOM     18  C   UNL     1      -4.029  -5.250   6.260  0.00  0.00    +0.131 C 
ATOM     19  C   UNL     1      -3.853  -4.309   7.454  0.00  0.00    +0.029 C 
BRANCH  18  20
ATOM     20  S   UNL     1      -3.959  -4.293   4.721  0.00  0.00    -0.141 S 
BRANCH  20  21
ATOM     21  C   UNL     1      -2.262  -3.654   4.678  0.00  0.00    +0.143 C 
BRANCH  21  28
ATOM     22  C   UNL     1      -0.019   1.526   0.010  0.00  0.00    +0.024 C 
ATOM     23  C   UNL     1       0.002  -0.004   0.002  0.00  0.00    +0.076 C 
ATOM     24  C   UNL     1      -1.399  -0.565   0.089  0.00  0.00    -0.045 C 
ATOM     25  C   UNL     1      -1.704  -1.321   1.155  0.00  0.00    +0.071 C 
ATOM     26  C   UNL     1      -0.645  -1.546   2.162  0.00  0.00    +0.111 C 
ATOM     27  N   UNL     1      -0.881  -2.276   3.226  0.00  0.00    -0.227 NA
ATOM     28  C   UNL     1      -2.066  -2.829   3.432  0.00  0.00    +0.133 C 
ATOM     29  N   UNL     1      -3.079  -2.698   2.609  0.00  0.00    -0.161 NA
ATOM     30  C   UNL     1      -3.005  -1.988   1.478  0.00  0.00    +0.271 C 
ATOM     31  O   UNL     1      -3.966  -1.886   0.735  0.00  0.00    -0.268 OA
ATOM     32  S   UNL     1       0.764  -0.661   1.541  0.00  0.00    -0.098 S 
ATOM     33  C   UNL     1      -2.419  -0.284  -0.984  0.00  0.00    +0.041 C 
ENDBRANCH  21  28
ENDBRANCH  20  21
ENDBRANCH  18  20
ENDBRANCH   1  18
TORSDOF 5
