REMARK  Name = ZINC22794985
REMARK  12 active torsions:
REMARK  status: ('A' for Active; 'I' for Inactive)
REMARK    1  A    between atoms: C_1  and  C_2
REMARK    2  A    between atoms: C_2  and  N_3
REMARK    3  A    between atoms: N_6  and  C_9
REMARK    4  A    between atoms: C_9  and  C_10
REMARK    5  A    between atoms: C_10  and  C_11
REMARK    6  A    between atoms: C_11  and  N_12
REMARK    7  A    between atoms: N_15  and  C_16
REMARK    8  A    between atoms: C_22  and  O_24
REMARK    9  A    between atoms: O_24  and  C_25
REMARK   10  A    between atoms: C_25  and  C_26
REMARK   11  A    between atoms: C_27  and  O_30
REMARK   12  A    between atoms: C_28  and  O_29
REMARK                            x       y       z     vdW  Elec       q    Type
REMARK                         _______ _______ _______ _____ _____    ______ ____
ROOT
ATOM      1  N   UNL     1       2.070  -6.114   6.045  0.00  0.00    -0.278 NA
ATOM      2  C   UNL     1       3.159  -6.823   5.952  0.00  0.00    +0.132 C 
ATOM      3  C   UNL     1       4.611  -6.514   5.831  0.00  0.00    +0.132 C 
ATOM      4  N   UNL     1       5.358  -5.448   5.772  0.00  0.00    -0.275 NA
ATOM      5  C   UNL     1       4.810  -7.976   5.809  0.00  0.00    +0.188 C 
ATOM      6  C   UNL     1       3.466  -8.266   5.928  0.00  0.00    +0.188 C 
ENDROOT
BRANCH   4   7
ATOM      7  C   UNL     1       6.812  -5.578   5.650  0.00  0.00    +0.109 C 
ATOM      8  C   UNL     1       7.487  -4.911   6.850  0.00  0.00    +0.046 C 
ATOM      9  C   UNL     1       9.005  -5.079   6.737  0.00  0.00    +0.113 C 
ATOM     10  N   UNL     1       9.443  -4.561   5.433  0.00  0.00    -0.267 N 
ATOM     11  C   UNL     1       8.794  -5.069   4.217  0.00  0.00    +0.113 C 
ATOM     12  C   UNL     1       7.278  -4.901   4.359  0.00  0.00    +0.046 C 
ATOM     13  C   UNL     1      10.419  -3.635   5.355  0.00  0.00    +0.403 C 
ATOM     14  O   UNL     1      10.947  -3.222   6.369  0.00  0.00    -0.226 OA
BRANCH  13  15
ATOM     15  O   UNL     1      10.810  -3.168   4.154  0.00  0.00    -0.451 OA
BRANCH  15  16
ATOM     16  C   UNL     1      11.850  -2.189   4.146  0.00  0.00    +0.230 C 
ATOM     17  C   UNL     1      12.156  -1.782   2.704  0.00  0.00    +0.048 C 
ENDBRANCH  15  16
ENDBRANCH  13  15
ENDBRANCH   4   7
BRANCH   6  18
ATOM     18  O   UNL     1       2.733  -9.403   5.995  0.00  0.00    -0.502 OA
ATOM     19  H   UNL     1       3.259 -10.214   5.950  0.00  0.00    +0.292 HD
ENDBRANCH   6  18
BRANCH   5  20
ATOM     20  O   UNL     1       5.915  -8.753   5.714  0.00  0.00    -0.502 OA
ATOM     21  H   UNL     1       5.731  -9.703   5.727  0.00  0.00    +0.292 HD
ENDBRANCH   5  20
BRANCH   1  22
ATOM     22  C   UNL     1       2.145  -4.650   6.035  0.00  0.00    +0.143 C 
BRANCH  22  23
ATOM     23  C   UNL     1       1.452  -4.112   4.782  0.00  0.00    +0.038 C 
BRANCH  23  24
ATOM     24  C   UNL     1       1.530  -2.584   4.772  0.00  0.00    +0.086 C 
BRANCH  24  28
ATOM     25  N   UNL     1       0.713  -0.491   1.192  0.00  0.00    +0.381 N 
ATOM     26  C   UNL     1      -0.039  -0.117   2.398  0.00  0.00    -0.063 C 
ATOM     27  C   UNL     1       0.710  -0.608   3.639  0.00  0.00    +0.066 C 
ATOM     28  N   UNL     1       0.864  -2.067   3.569  0.00  0.00    -0.306 NA
ATOM     29  C   UNL     1       1.594  -2.458   2.354  0.00  0.00    +0.066 C 
ATOM     30  C   UNL     1       0.837  -1.953   1.124  0.00  0.00    -0.063 C 
ATOM     31  H   UNL     1       1.632  -0.076   1.228  0.00  0.00    -0.082 HD
BRANCH  25  33
ATOM     32  C   UNL     1      -0.019   1.526   0.010  0.00  0.00    -0.017 C 
ATOM     33  C   UNL     1       0.002  -0.004   0.002  0.00  0.00    -0.082 C 
ENDBRANCH  25  33
ENDBRANCH  24  28
ENDBRANCH  23  24
ENDBRANCH  22  23
ENDBRANCH   1  22
TORSDOF 10
