REMARK  Name = ZINC63376376
REMARK  10 active torsions:
REMARK  status: ('A' for Active; 'I' for Inactive)
REMARK    1  A    between atoms: C_1  and  O_2
REMARK    2  A    between atoms: O_2  and  C_3
REMARK    3  A    between atoms: C_3  and  C_5
REMARK    4  A    between atoms: C_8  and  O_11
REMARK    5  A    between atoms: O_11  and  C_12
REMARK    6  A    between atoms: C_12  and  C_13
REMARK    7  A    between atoms: C_15  and  C_19
REMARK    8  A    between atoms: N_21  and  C_22
REMARK    9  A    between atoms: C_22  and  C_23
REMARK   10  A    between atoms: C_23  and  C_24
REMARK                            x       y       z     vdW  Elec       q    Type
REMARK                         _______ _______ _______ _____ _____    ______ ____
ROOT
ATOM      1  C   UNL     1       1.437  -8.262  -2.374  0.00  0.00    +0.141 C 
ATOM      2  N   UNL     1       1.951  -9.055  -3.250  0.00  0.00    -0.336 N 
ATOM      3  C   UNL     1       1.722 -10.441  -2.824  0.00  0.00    +0.329 C 
ATOM      4  O   UNL     1       1.005 -10.341  -1.583  0.00  0.00    -0.239 OA
ATOM      5  N   UNL     1       0.859  -8.950  -1.347  0.00  0.00    -0.248 N 
ATOM      6  H   UNL     1       0.417  -8.552  -0.581  0.00  0.00    +0.196 HD
ATOM      7  H   UNL     1       2.413  -8.781  -4.057  0.00  0.00    +0.164 HD
ENDROOT
BRANCH   3   8
ATOM      8  C   UNL     1       3.036 -11.148  -2.615  0.00  0.00    +0.265 C 
ATOM      9  O   UNL     1       3.394 -11.443  -1.495  0.00  0.00    -0.271 OA
ATOM     10  N   UNL     1       3.813 -11.452  -3.674  0.00  0.00    -0.311 N 
ATOM     11  H   UNL     1       3.526 -11.216  -4.570  0.00  0.00    +0.149 HD
BRANCH  10  12
ATOM     12  C   UNL     1       5.091 -12.140  -3.471  0.00  0.00    +0.108 C 
BRANCH  12  13
ATOM     13  C   UNL     1       5.770 -12.364  -4.823  0.00  0.00    +0.052 C 
BRANCH  13  14
ATOM     14  C   UNL     1       7.084 -13.071  -4.614  0.00  0.00    -0.040 C 
ATOM     15  C   UNL     1       7.313 -14.402  -4.691  0.00  0.00    -0.001 A 
ATOM     16  C   UNL     1       6.440 -15.546  -4.980  0.00  0.00    +0.010 A 
ATOM     17  C   UNL     1       6.969 -16.791  -4.986  0.00  0.00    +0.001 A 
ATOM     18  C   UNL     1       8.327 -17.015  -4.722  0.00  0.00    +0.002 A 
ATOM     19  C   UNL     1       9.192 -16.015  -4.449  0.00  0.00    +0.026 A 
ATOM     20  C   UNL     1       8.743 -14.666  -4.417  0.00  0.00    +0.043 A 
ATOM     21  N   UNL     1       9.375 -13.541  -4.180  0.00  0.00    -0.380 N 
ATOM     22  C   UNL     1       8.416 -12.436  -4.283  0.00  0.00    +0.144 C 
ATOM     23  H   UNL     1      10.319 -13.455  -3.974  0.00  0.00    +0.160 HD
ENDBRANCH  13  14
ENDBRANCH  12  13
ENDBRANCH  10  12
ENDBRANCH   3   8
BRANCH   1  24
ATOM     24  C   UNL     1       1.476  -6.759  -2.470  0.00  0.00    +0.302 C 
BRANCH  24  25
ATOM     25  O   UNL     1       0.821  -6.193  -1.333  0.00  0.00    -0.484 OA
BRANCH  25  29
ATOM     26  C   UNL     1       0.659  -2.074  -1.122  0.00  0.00    +0.059 A 
ATOM     27  C   UNL     1       0.088  -2.850  -0.109  0.00  0.00    +0.018 A 
ATOM     28  C   UNL     1       0.144  -4.224  -0.184  0.00  0.00    +0.046 A 
ATOM     29  C   UNL     1       0.767  -4.839  -1.264  0.00  0.00    +0.121 A 
ATOM     30  C   UNL     1       1.336  -4.070  -2.273  0.00  0.00    +0.046 A 
ATOM     31  C   UNL     1       1.279  -2.696  -2.209  0.00  0.00    +0.018 A 
BRANCH  26  32
ATOM     32  C   UNL     1       0.601  -0.602  -1.047  0.00  0.00    +0.339 C 
ATOM     33  O   UNL     1       1.093   0.071  -1.930  0.00  0.00    -0.245 OA
BRANCH  32  35
ATOM     34  C   UNL     1      -0.017   1.425   0.010  0.00  0.00    +0.280 C 
ATOM     35  O   UNL     1       0.002  -0.004   0.002  0.00  0.00    -0.464 OA
ENDBRANCH  32  35
ENDBRANCH  26  32
ENDBRANCH  25  29
ENDBRANCH  24  25
ENDBRANCH   1  24
TORSDOF 9
