REMARK  Name = ZINC04133161
REMARK  1 active torsions:
REMARK  status: ('A' for Active; 'I' for Inactive)
REMARK    1  A    between atoms: C_12  and  C_14
REMARK                            x       y       z     vdW  Elec       q    Type
REMARK                         _______ _______ _______ _____ _____    ______ ____
ROOT
ATOM      1  C   UNL     1      -0.017   1.389   0.010  0.00  0.00    +0.002 A 
ATOM      2  C   UNL     1       1.137   2.114   0.003  0.00  0.00    +0.009 A 
ATOM      3  C   UNL     1       2.379   1.457  -0.011  0.00  0.00    -0.014 A 
ATOM      4  C   UNL     1       3.594   2.163  -0.014  0.00  0.00    +0.009 A 
ATOM      5  C   UNL     1       4.776   1.484  -0.023  0.00  0.00    +0.002 A 
ATOM      6  C   UNL     1       4.812   0.091  -0.031  0.00  0.00    +0.023 A 
ATOM      7  C   UNL     1       3.644  -0.634  -0.031  0.00  0.00    +0.038 A 
ATOM      8  C   UNL     1       2.407   0.044  -0.020  0.00  0.00    +0.024 A 
ATOM      9  C   UNL     1       1.198  -0.683  -0.014  0.00  0.00    +0.038 A 
ATOM     10  C   UNL     1       0.002  -0.004   0.002  0.00  0.00    +0.023 A 
ATOM     11  N   UNL     1       1.254  -2.077  -0.027  0.00  0.00    -0.322 N 
ATOM     12  C   UNL     1       2.465  -2.726   0.507  0.00  0.00    +0.187 C 
ATOM     13  N   UNL     1       3.643  -2.030  -0.043  0.00  0.00    -0.322 N 
ATOM     14  H   UNL     1       0.518  -2.604  -0.376  0.00  0.00    +0.148 HD
ATOM     15  H   UNL     1       4.395  -2.527  -0.401  0.00  0.00    +0.148 HD
ENDROOT
BRANCH  12  16
ATOM     16  C   UNL     1       2.473  -2.629   2.010  0.00  0.00    -0.009 A 
ATOM     17  C   UNL     1       1.279  -2.602   2.707  0.00  0.00    +0.007 A 
ATOM     18  C   UNL     1       1.285  -2.513   4.087  0.00  0.00    +0.001 A 
ATOM     19  C   UNL     1       2.485  -2.451   4.770  0.00  0.00    +0.015 A 
ATOM     20  C   UNL     1       3.680  -2.478   4.073  0.00  0.00    +0.018 A 
ATOM     21  C   UNL     1       3.673  -2.573   2.693  0.00  0.00    +0.022 A 
ATOM     22 BR   UNL     1       5.322  -2.393   5.008  0.00  0.00    -0.050 Br
ENDBRANCH  12  16
TORSDOF 1
