REMARK  Name = ZINC33673009
REMARK  7 active torsions:
REMARK  status: ('A' for Active; 'I' for Inactive)
REMARK    1  A    between atoms: C_1  and  C_2
REMARK    2  A    between atoms: N_8  and  C_9
REMARK    3  A    between atoms: C_9  and  C_10
REMARK    4  A    between atoms: C_10  and  C_11
REMARK    5  A    between atoms: C_11  and  N_12
REMARK    6  A    between atoms: C_18  and  C_25
REMARK    7  A    between atoms: N_23  and  C_24
REMARK                            x       y       z     vdW  Elec       q    Type
REMARK                         _______ _______ _______ _____ _____    ______ ____
ROOT
ATOM      1  N   UNL     1       2.121   3.735   1.046  0.00  0.00    -0.292 N 
ATOM      2  C   UNL     1       2.554   2.334   1.163  0.00  0.00    +0.159 C 
ATOM      3  C   UNL     1       1.287   1.558   1.446  0.00  0.00    +0.042 C 
ATOM      4  C   UNL     1       0.287   2.462   1.475  0.00  0.00    +0.058 C 
ATOM      5  C   UNL     1       0.789   3.757   1.236  0.00  0.00    +0.247 C 
ATOM      6  O   UNL     1       0.107   4.765   1.206  0.00  0.00    -0.270 OA
ATOM      7  C   UNL     1      -1.115   1.953   1.743  0.00  0.00    +0.142 C 
ATOM      8  N   UNL     1      -1.270   0.503   1.951  0.00  0.00    -0.288 N 
ATOM      9  C   UNL     1      -0.171  -0.275   1.891  0.00  0.00    +0.307 C 
ATOM     10  O   UNL     1      -0.288  -1.473   2.061  0.00  0.00    -0.252 OA
ATOM     11  N   UNL     1       1.046   0.229   1.650  0.00  0.00    -0.260 N 
ATOM     12  C   UNL     1       2.182  -0.695   1.603  0.00  0.00    +0.139 C 
ATOM     13  H   UNL     1      -2.265   0.079   2.149  0.00  0.00    +0.151 HD
ENDROOT
BRANCH   7  14
ATOM     14  C   UNL     1      -1.638   2.656   2.969  0.00  0.00    -0.020 A 
ATOM     15  C   UNL     1      -1.386   2.135   4.225  0.00  0.00    +0.006 A 
ATOM     16  C   UNL     1      -1.861   2.782   5.350  0.00  0.00    +0.003 A 
ATOM     17  C   UNL     1      -2.598   3.944   5.221  0.00  0.00    +0.038 A 
ATOM     18  C   UNL     1      -2.855   4.464   3.964  0.00  0.00    +0.124 A 
ATOM     19  C   UNL     1      -2.374   3.818   2.837  0.00  0.00    +0.044 A 
ATOM     20  F   UNL     1      -3.576   5.599   3.836  0.00  0.00    -0.205 F 
ENDBRANCH   7  14
BRANCH   1  21
ATOM     21  C   UNL     1       2.980   4.890   0.774  0.00  0.00    +0.106 C 
BRANCH  21  22
ATOM     22  C   UNL     1       3.484   5.473   2.096  0.00  0.00    +0.000 C 
BRANCH  22  23
ATOM     23  C   UNL     1       4.381   6.679   1.812  0.00  0.00    -0.077 C 
BRANCH  23  30
ATOM     24  C   UNL     1       4.570   9.470   2.117  0.00  0.00    -0.013 C 
ATOM     25  C   UNL     1       5.521   8.535   2.869  0.00  0.00    -0.072 C 
ATOM     26  C   UNL     1       5.881   9.154   4.221  0.00  0.00    -0.016 C 
ATOM     27  C   UNL     1       6.816   8.206   4.978  0.00  0.00    -0.003 C 
ATOM     28  C   UNL     1       6.128   6.848   5.143  0.00  0.00    -0.019 C 
ATOM     29  C   UNL     1       5.761   6.296   3.764  0.00  0.00    -0.078 C 
ATOM     30  N   UNL     1       4.865   7.239   3.081  0.00  0.00    +0.381 N 
ATOM     31  H   UNL     1       3.995   7.406   3.733  0.00  0.00    -0.081 HD
ENDBRANCH  23  30
ENDBRANCH  22  23
ENDBRANCH  21  22
ENDBRANCH   1  21
TORSDOF 5
