REMARK  Name = ZINC57730526
REMARK  7 active torsions:
REMARK  status: ('A' for Active; 'I' for Inactive)
REMARK    1  A    between atoms: C_1  and  C_2
REMARK    2  A    between atoms: C_3  and  C_8
REMARK    3  A    between atoms: N_6  and  C_7
REMARK    4  A    between atoms: C_11  and  C_19
REMARK    5  A    between atoms: N_13  and  C_18
REMARK    6  A    between atoms: N_21  and  C_22
REMARK    7  A    between atoms: C_23  and  C_30
REMARK                            x       y       z     vdW  Elec       q    Type
REMARK                         _______ _______ _______ _____ _____    ______ ____
ROOT
ATOM      1  C   UNL     1      -0.025  -0.134  -2.491  0.00  0.00    +0.113 C 
ATOM      2  C   UNL     1      -1.360   0.473  -2.919  0.00  0.00    +0.055 C 
ATOM      3  C   UNL     1      -1.325   0.872  -4.394  0.00  0.00    +0.168 C 
ATOM      4  N   UNL     1      -1.168  -0.338  -5.220  0.00  0.00    -0.158 NA
ATOM      5  S   UNL     1       0.140  -1.319  -4.891  0.00  0.00    +0.098 S 
ATOM      6  O   UNL     1       1.302  -0.621  -5.316  0.00  0.00    -0.141 OA
ATOM      7  O   UNL     1      -0.189  -2.621  -5.355  0.00  0.00    -0.141 OA
ATOM      8  N   UNL     1       0.196  -1.392  -3.225  0.00  0.00    -0.172 NA
ATOM      9  C   UNL     1      -2.119  -0.664  -6.285  0.00  0.00    +0.133 C 
ATOM     10  H   UNL     1       0.366  -2.226  -2.761  0.00  0.00    +0.150 HD
ENDROOT
BRANCH   1  13
ATOM     11  C   UNL     1       0.432   1.960  -0.212  0.00  0.00    +0.065 C 
ATOM     12  C   UNL     1       0.146   0.492  -0.025  0.00  0.00    +0.041 A 
ATOM     13  C   UNL     1      -0.051  -0.414  -1.010  0.00  0.00    +0.012 A 
ATOM     14  C   UNL     1      -0.284  -1.657  -0.412  0.00  0.00    +0.139 A 
ATOM     15  N   UNL     1      -0.229  -1.502   0.886  0.00  0.00    -0.179 NA
ATOM     16  N   UNL     1       0.047  -0.155   1.155  0.00  0.00    -0.271 N 
ATOM     17  C   UNL     1       0.198   0.446   2.483  0.00  0.00    +0.172 C 
ENDBRANCH   1  13
BRANCH   3  18
ATOM     18  C   UNL     1      -2.611   1.568  -4.759  0.00  0.00    +0.237 C 
ATOM     19  O   UNL     1      -3.651   0.945  -4.782  0.00  0.00    -0.274 OA
ATOM     20  N   UNL     1      -2.604   2.881  -5.059  0.00  0.00    -0.278 N 
ATOM     21  H   UNL     1      -1.772   3.379  -5.041  0.00  0.00    +0.155 HD
BRANCH  20  22
ATOM     22  C   UNL     1      -3.789   3.522  -5.395  0.00  0.00    +0.090 A 
ATOM     23  C   UNL     1      -3.970   4.849  -5.734  0.00  0.00    +0.084 A 
ATOM     24  C   UNL     1      -5.330   5.282  -6.048  0.00  0.00    -0.018 A 
ATOM     25  C   UNL     1      -6.250   4.303  -5.962  0.00  0.00    -0.004 A 
ATOM     26  S   UNL     1      -5.328   2.862  -5.489  0.00  0.00    -0.077 S 
ATOM     27  C   UNL     1      -7.631   4.801  -6.290  0.00  0.00    +0.043 C 
ATOM     28  C   UNL     1      -7.527   6.339  -6.183  0.00  0.00    +0.010 C 
ATOM     29  C   UNL     1      -6.029   6.574  -6.464  0.00  0.00    +0.037 C 
BRANCH  23  30
ATOM     30  C   UNL     1      -2.870   5.765  -5.775  0.00  0.00    +0.102 C 
ATOM     31  N   UNL     1      -1.997   6.491  -5.808  0.00  0.00    -0.191 NA
ENDBRANCH  23  30
ENDBRANCH  20  22
ENDBRANCH   3  18
TORSDOF 4
