REMARK  Name = ZINC00666667
REMARK  9 active torsions:
REMARK  status: ('A' for Active; 'I' for Inactive)
REMARK    1  A    between atoms: C_1  and  C_2
REMARK    2  A    between atoms: C_3  and  C_25
REMARK    3  A    between atoms: C_4  and  C_10
REMARK    4  A    between atoms: C_13  and  O_20
REMARK    5  A    between atoms: O_20  and  C_21
REMARK    6  A    between atoms: C_21  and  C_22
REMARK    7  A    between atoms: C_22  and  C_23
REMARK    8  A    between atoms: C_22  and  C_24
REMARK    9  A    between atoms: N_27  and  C_28
REMARK                            x       y       z     vdW  Elec       q    Type
REMARK                         _______ _______ _______ _____ _____    ______ ____
ROOT
ATOM      1  C   UNL     1      -2.089  -5.826   0.641  0.00  0.00    +0.061 C 
ATOM      2  C   UNL     1      -0.906  -5.003   0.199  0.00  0.00    +0.017 C 
ATOM      3  C   UNL     1      -0.898  -3.674   0.431  0.00  0.00    +0.056 C 
ATOM      4  C   UNL     1       0.312  -2.885  -0.025  0.00  0.00    +0.140 C 
ATOM      5  N   UNL     1       1.386  -3.639  -0.694  0.00  0.00    -0.315 N 
ATOM      6  C   UNL     1       1.230  -4.968  -0.859  0.00  0.00    +0.135 C 
ATOM      7  S   UNL     1       2.471  -5.857  -1.634  0.00  0.00    -0.019 S 
ATOM      8  N   UNL     1       0.137  -5.615  -0.435  0.00  0.00    -0.300 N 
ATOM      9  H   UNL     1       2.187  -3.190  -1.008  0.00  0.00    +0.149 HD
ATOM     10  H   UNL     1       0.085  -6.572  -0.584  0.00  0.00    +0.154 HD
ENDROOT
BRANCH   4  11
ATOM     11  C   UNL     1       0.905  -2.204   1.181  0.00  0.00    -0.015 A 
ATOM     12  C   UNL     1       0.662  -2.692   2.429  0.00  0.00    +0.010 A 
ATOM     13  C   UNL     1       1.200  -2.079   3.558  0.00  0.00    +0.046 A 
ATOM     14  C   UNL     1       1.988  -0.969   3.445  0.00  0.00    +0.128 A 
ATOM     15  C   UNL     1       2.261  -0.437   2.168  0.00  0.00    +0.024 A 
ATOM     16  C   UNL     1       1.716  -1.068   1.023  0.00  0.00    -0.009 A 
ATOM     17  C   UNL     1       1.983  -0.535  -0.250  0.00  0.00    +0.009 A 
ATOM     18  C   UNL     1       2.768   0.571  -0.366  0.00  0.00    +0.001 A 
ATOM     19  C   UNL     1       3.308   1.188   0.761  0.00  0.00    +0.001 A 
ATOM     20  C   UNL     1       3.067   0.702   2.010  0.00  0.00    +0.012 A 
BRANCH  14  21
ATOM     21  O   UNL     1       2.506  -0.383   4.555  0.00  0.00    -0.491 OA
BRANCH  21  22
ATOM     22  C   UNL     1       2.186  -0.979   5.813  0.00  0.00    +0.232 C 
BRANCH  22  23
ATOM     23  C   UNL     1       2.854  -0.186   6.938  0.00  0.00    +0.020 C 
ATOM     24  C   UNL     1       2.411  -0.748   8.291  0.00  0.00    +0.010 C 
ATOM     25  C   UNL     1       4.374  -0.302   6.811  0.00  0.00    +0.010 C 
ENDBRANCH  22  23
ENDBRANCH  21  22
ENDBRANCH  14  21
ENDBRANCH   4  11
BRANCH   3  26
ATOM     26  C   UNL     1      -1.982  -3.038   1.084  0.00  0.00    +0.248 C 
ATOM     27  O   UNL     1      -2.989  -3.670   1.350  0.00  0.00    -0.270 OA
ATOM     28  N   UNL     1      -1.900  -1.733   1.411  0.00  0.00    -0.282 N 
ATOM     29  H   UNL     1      -1.101  -1.228   1.196  0.00  0.00    +0.155 HD
BRANCH  28  30
ATOM     30  C   UNL     1      -2.968  -1.107   2.062  0.00  0.00    +0.034 A 
ATOM     31  C   UNL     1      -4.261  -1.589   1.900  0.00  0.00    +0.023 A 
ATOM     32  C   UNL     1      -5.312  -0.971   2.548  0.00  0.00    +0.002 A 
ATOM     33  C   UNL     1      -5.081   0.133   3.348  0.00  0.00    +0.000 A 
ATOM     34  C   UNL     1      -3.796   0.618   3.507  0.00  0.00    +0.002 A 
ATOM     35  C   UNL     1      -2.739   0.002   2.866  0.00  0.00    +0.023 A 
ENDBRANCH  28  30
ENDBRANCH   3  26
TORSDOF 6
