REMARK  Name = ZINC12504443
REMARK  9 active torsions:
REMARK  status: ('A' for Active; 'I' for Inactive)
REMARK    1  A    between atoms: C_4  and  O_33
REMARK    2  A    between atoms: C_5  and  C_7
REMARK    3  A    between atoms: C_7  and  N_8
REMARK    4  A    between atoms: N_8  and  C_9
REMARK    5  A    between atoms: N_12  and  S_15
REMARK    6  A    between atoms: S_15  and  N_18
REMARK    7  A    between atoms: N_18  and  C_19
REMARK    8  A    between atoms: C_23  and  O_25
REMARK    9  A    between atoms: O_25  and  C_26
REMARK                            x       y       z     vdW  Elec       q    Type
REMARK                         _______ _______ _______ _____ _____    ______ ____
ROOT
ATOM      1  S   UNL     1       3.492  -7.462   2.281  0.00  0.00    +0.112 S 
ATOM      2  O   UNL     1       2.918  -8.080   3.425  0.00  0.00    -0.138 OA
ATOM      3  O   UNL     1       3.807  -8.188   1.101  0.00  0.00    -0.138 OA
ENDROOT
BRANCH   1   7
ATOM      4  C   UNL     1       1.545  -3.603   1.427  0.00  0.00    -0.069 C 
ATOM      5  C   UNL     1       2.656  -4.182   0.548  0.00  0.00    +0.001 C 
ATOM      6  C   UNL     1       2.496  -5.703   0.466  0.00  0.00    +0.109 C 
ATOM      7  N   UNL     1       2.459  -6.249   1.830  0.00  0.00    -0.164 NA
ATOM      8  C   UNL     1       1.488  -5.699   2.785  0.00  0.00    +0.109 C 
ATOM      9  C   UNL     1       1.659  -4.178   2.841  0.00  0.00    +0.001 C 
BRANCH   4  10
ATOM     10  N   UNL     1       1.675  -2.141   1.482  0.00  0.00    +0.384 N 
ATOM     11  H   UNL     1       2.603  -1.897   1.795  0.00  0.00    -0.085 HD
ATOM     12  H   UNL     1       0.994  -1.766   2.124  0.00  0.00    -0.085 HD
BRANCH  10  13
ATOM     13  C   UNL     1       1.448  -1.579   0.144  0.00  0.00    -0.043 C 
BRANCH  13  18
ATOM     14  C   UNL     1       0.574   2.091   0.307  0.00  0.00    +0.000 A 
ATOM     15  C   UNL     1       1.826   2.676   0.301  0.00  0.00    +0.004 A 
ATOM     16  C   UNL     1       2.959   1.888   0.244  0.00  0.00    +0.045 A 
ATOM     17  C   UNL     1       2.839   0.506   0.193  0.00  0.00    +0.118 A 
ATOM     18  C   UNL     1       1.581  -0.079   0.199  0.00  0.00    -0.023 A 
ATOM     19  C   UNL     1       0.452   0.715   0.256  0.00  0.00    +0.005 A 
BRANCH  17  20
ATOM     20  O   UNL     1       3.952  -0.272   0.136  0.00  0.00    -0.507 OA
ATOM     21  H   UNL     1       4.295  -0.531   1.002  0.00  0.00    +0.292 HD
ENDBRANCH  17  20
ENDBRANCH  13  18
ENDBRANCH  10  13
ENDBRANCH   4  10
ENDBRANCH   1   7
BRANCH   1  22
ATOM     22  N   UNL     1       4.898  -6.746   2.785  0.00  0.00    -0.206 N 
ATOM     23  H   UNL     1       5.191  -6.847   3.704  0.00  0.00    +0.175 HD
BRANCH  22  24
ATOM     24  C   UNL     1       5.661  -5.997   1.887  0.00  0.00    +0.053 A 
ATOM     25  C   UNL     1       5.924  -6.492   0.615  0.00  0.00    +0.025 A 
ATOM     26  C   UNL     1       6.678  -5.750  -0.273  0.00  0.00    +0.005 A 
ATOM     27  C   UNL     1       7.173  -4.515   0.099  0.00  0.00    +0.046 A 
ATOM     28  C   UNL     1       6.913  -4.015   1.368  0.00  0.00    +0.130 A 
ATOM     29  C   UNL     1       6.152  -4.754   2.261  0.00  0.00    +0.070 A 
BRANCH  28  30
ATOM     30  O   UNL     1       7.401  -2.800   1.733  0.00  0.00    -0.456 OA
BRANCH  30  31
ATOM     31  C   UNL     1       8.403  -2.764   2.651  0.00  0.00    +0.129 A 
ATOM     32  C   UNL     1       8.988  -3.944   3.087  0.00  0.00    +0.049 A 
ATOM     33  C   UNL     1      10.006  -3.906   4.020  0.00  0.00    +0.042 A 
ATOM     34  C   UNL     1      10.442  -2.690   4.519  0.00  0.00    +0.124 A 
ATOM     35  C   UNL     1       9.859  -1.512   4.086  0.00  0.00    +0.042 A 
ATOM     36  C   UNL     1       8.845  -1.547   3.148  0.00  0.00    +0.049 A 
ATOM     37  F   UNL     1      11.438  -2.654   5.432  0.00  0.00    -0.205 F 
ENDBRANCH  30  31
ENDBRANCH  28  30
ENDBRANCH  22  24
ENDBRANCH   1  22
TORSDOF 9
