REMARK  Name = ZINC63383912
REMARK  10 active torsions:
REMARK  status: ('A' for Active; 'I' for Inactive)
REMARK    1  A    between atoms: C_1  and  C_2
REMARK    2  A    between atoms: C_2  and  C_3
REMARK    3  A    between atoms: C_3  and  C_5
REMARK    4  A    between atoms: C_3  and  C_6
REMARK    5  A    between atoms: C_6  and  C_8
REMARK    6  A    between atoms: C_6  and  N_14
REMARK    7  A    between atoms: N_10  and  C_11
REMARK    8  A    between atoms: C_11  and  C_12
REMARK    9  A    between atoms: C_11  and  C_13
REMARK   10  A    between atoms: C_15  and  C_17
REMARK                            x       y       z     vdW  Elec       q    Type
REMARK                         _______ _______ _______ _____ _____    ______ ____
ROOT
ATOM      1  C   UNL     1      -0.532  -3.474   3.324  0.00  0.00    +0.167 C 
ATOM      2  C   UNL     1       0.016  -4.857   2.924  0.00  0.00    +0.065 C 
ATOM      3  C   UNL     1      -0.635  -5.870   3.832  0.00  0.00    -0.034 C 
ATOM      4  C   UNL     1      -0.099  -6.829   4.581  0.00  0.00    -0.001 A 
ATOM      5  C   UNL     1       1.289  -7.300   4.719  0.00  0.00    +0.010 A 
ATOM      6  C   UNL     1       1.493  -8.310   5.606  0.00  0.00    +0.001 A 
ATOM      7  C   UNL     1       0.469  -8.891   6.359  0.00  0.00    +0.002 A 
ATOM      8  C   UNL     1      -0.836  -8.525   6.291  0.00  0.00    +0.026 A 
ATOM      9  C   UNL     1      -1.177  -7.476   5.389  0.00  0.00    +0.043 A 
ATOM     10  N   UNL     1      -2.331  -6.946   5.112  0.00  0.00    -0.375 N 
ATOM     11  C   UNL     1      -2.138  -5.943   4.063  0.00  0.00    +0.131 C 
ATOM     12  C   UNL     1      -2.598  -4.555   4.505  0.00  0.00    +0.134 C 
ATOM     13  N   UNL     1      -1.429  -3.652   4.473  0.00  0.00    -0.276 N 
ATOM     14  C   UNL     1      -1.322  -3.046   5.671  0.00  0.00    +0.248 C 
ATOM     15  O   UNL     1      -0.540  -2.153   5.933  0.00  0.00    -0.270 OA
ATOM     16  C   UNL     1      -2.287  -3.619   6.611  0.00  0.00    +0.042 A 
ATOM     17  C   UNL     1      -3.103  -4.563   5.910  0.00  0.00    -0.013 A 
ATOM     18  C   UNL     1      -4.111  -5.274   6.521  0.00  0.00    +0.006 A 
ATOM     19  C   UNL     1      -4.328  -5.029   7.874  0.00  0.00    +0.000 A 
ATOM     20  C   UNL     1      -3.571  -4.113   8.577  0.00  0.00    +0.001 A 
ATOM     21  C   UNL     1      -2.497  -3.369   7.970  0.00  0.00    +0.013 A 
ATOM     22  H   UNL     1      -3.176  -7.176   5.530  0.00  0.00    +0.160 HD
ENDROOT
BRANCH   1  24
ATOM     23  N   UNL     1      -0.673  -2.638   1.000  0.00  0.00    -0.302 N 
ATOM     24  C   UNL     1      -1.297  -2.877   2.170  0.00  0.00    +0.235 C 
ATOM     25  O   UNL     1      -2.474  -2.612   2.295  0.00  0.00    -0.274 OA
ATOM     26  H   UNL     1       0.269  -2.850   0.900  0.00  0.00    +0.150 HD
BRANCH  23  27
ATOM     27  C   UNL     1      -1.416  -2.058  -0.121  0.00  0.00    +0.162 C 
BRANCH  27  28
ATOM     28  C   UNL     1      -0.749  -2.440  -1.417  0.00  0.00    +0.234 C 
ATOM     29  O   UNL     1       0.249  -3.130  -1.406  0.00  0.00    -0.274 OA
ATOM     30  N   UNL     1      -1.261  -2.016  -2.590  0.00  0.00    -0.311 N 
ATOM     31  H   UNL     1      -2.059  -1.465  -2.599  0.00  0.00    +0.149 HD
BRANCH  30  32
ATOM     32  C   UNL     1      -0.613  -2.388  -3.850  0.00  0.00    +0.067 C 
ATOM     33  C   UNL     1      -1.641  -2.352  -4.982  0.00  0.00    +0.027 C 
ATOM     34  C   UNL     1       0.515  -1.401  -4.154  0.00  0.00    +0.027 C 
ENDBRANCH  30  32
ENDBRANCH  27  28
BRANCH  27  35
ATOM     35  C   UNL     1      -1.433  -0.534   0.013  0.00  0.00    +0.015 C 
ATOM     36  C   UNL     1      -2.110  -0.145   1.329  0.00  0.00    +0.010 C 
BRANCH  35  38
ATOM     37  C   UNL     1      -0.019   1.526   0.010  0.00  0.00    +0.004 C 
ATOM     38  C   UNL     1       0.002  -0.004   0.002  0.00  0.00    +0.002 C 
ENDBRANCH  35  38
ENDBRANCH  27  35
ENDBRANCH  23  27
ENDBRANCH   1  24
TORSDOF 6
