REMARK  Name = ZINC12412072
REMARK  11 active torsions:
REMARK  status: ('A' for Active; 'I' for Inactive)
REMARK    1  A    between atoms: C_1  and  C_2
REMARK    2  A    between atoms: C_2  and  N_3
REMARK    3  A    between atoms: C_7  and  C_20
REMARK    4  A    between atoms: N_11  and  C_12
REMARK    5  A    between atoms: C_15  and  O_18
REMARK    6  A    between atoms: O_18  and  C_19
REMARK    7  A    between atoms: N_22  and  C_23
REMARK    8  A    between atoms: C_23  and  C_24
REMARK    9  A    between atoms: C_24  and  C_25
REMARK   10  A    between atoms: C_28  and  S_31
REMARK   11  A    between atoms: S_31  and  N_34
REMARK                            x       y       z     vdW  Elec       q    Type
REMARK                         _______ _______ _______ _____ _____    ______ ____
ROOT
ATOM      1  N   UNL     1      -1.372  -0.511   0.012  0.00  0.00    -0.251 N 
ATOM      2  C   UNL     1      -1.944  -0.727   1.188  0.00  0.00    +0.223 C 
ATOM      3  O   UNL     1      -1.221  -0.608   2.154  0.00  0.00    -0.275 OA
ATOM      4  C   UNL     1      -3.358  -1.096   1.480  0.00  0.00    +0.120 C 
ATOM      5  C   UNL     1      -4.011  -1.867   0.331  0.00  0.00    +0.148 C 
ATOM      6  S   UNL     1      -3.752  -0.914  -1.202  0.00  0.00    -0.077 S 
ATOM      7  C   UNL     1      -1.991  -0.729  -1.206  0.00  0.00    +0.164 C 
ATOM      8  N   UNL     1      -1.302  -0.798  -2.320  0.00  0.00    -0.226 NA
ENDROOT
BRANCH   8   9
ATOM      9  C   UNL     1      -1.944  -1.014  -3.511  0.00  0.00    +0.067 A 
ATOM     10  C   UNL     1      -2.938  -1.990  -3.603  0.00  0.00    +0.031 A 
ATOM     11  C   UNL     1      -3.582  -2.204  -4.804  0.00  0.00    +0.048 A 
ATOM     12  C   UNL     1      -3.241  -1.452  -5.920  0.00  0.00    +0.120 A 
ATOM     13  C   UNL     1      -2.253  -0.481  -5.833  0.00  0.00    +0.048 A 
ATOM     14  C   UNL     1      -1.609  -0.256  -4.634  0.00  0.00    +0.031 A 
BRANCH  12  15
ATOM     15  O   UNL     1      -3.878  -1.668  -7.103  0.00  0.00    -0.495 OA
ATOM     16  C   UNL     1      -3.479  -0.859  -8.211  0.00  0.00    +0.277 C 
ENDBRANCH  12  15
ENDBRANCH   8   9
BRANCH   5  17
ATOM     17  C   UNL     1      -5.486  -2.021   0.594  0.00  0.00    +0.227 C 
ATOM     18  O   UNL     1      -6.098  -1.135   1.153  0.00  0.00    -0.275 OA
ATOM     19  N   UNL     1      -6.126  -3.143   0.209  0.00  0.00    -0.314 N 
ATOM     20  H   UNL     1      -5.636  -3.851  -0.238  0.00  0.00    +0.149 HD
BRANCH  19  21
ATOM     21  C   UNL     1      -7.561  -3.293   0.465  0.00  0.00    +0.109 C 
BRANCH  21  22
ATOM     22  C   UNL     1      -8.035  -4.647  -0.068  0.00  0.00    +0.054 C 
BRANCH  22  23
ATOM     23  C   UNL     1      -9.511  -4.801   0.196  0.00  0.00    -0.046 A 
ATOM     24  C   UNL     1      -9.946  -5.368   1.379  0.00  0.00    +0.005 A 
ATOM     25  C   UNL     1     -11.300  -5.509   1.620  0.00  0.00    +0.029 A 
ATOM     26  C   UNL     1     -12.218  -5.083   0.679  0.00  0.00    +0.105 A 
ATOM     27  C   UNL     1     -11.783  -4.515  -0.504  0.00  0.00    +0.029 A 
ATOM     28  C   UNL     1     -10.429  -4.370  -0.743  0.00  0.00    +0.005 A 
BRANCH  26  29
ATOM     29  S   UNL     1     -13.944  -5.265   0.986  0.00  0.00    +0.056 S 
ATOM     30  O   UNL     1     -14.582  -5.287  -0.283  0.00  0.00    -0.153 OA
ATOM     31  O   UNL     1     -14.080  -6.322   1.926  0.00  0.00    -0.153 OA
BRANCH  29  32
ATOM     32  N   UNL     1     -14.453  -3.885   1.748  0.00  0.00    -0.204 NA
ATOM     33  H   UNL     1     -13.821  -3.174   1.937  0.00  0.00    +0.144 HD
ATOM     34  H   UNL     1     -15.383  -3.788   2.005  0.00  0.00    +0.144 HD
ENDBRANCH  29  32
ENDBRANCH  26  29
ENDBRANCH  22  23
ENDBRANCH  21  22
ENDBRANCH  19  21
ENDBRANCH   5  17
BRANCH   1  36
ATOM     35  C   UNL     1      -0.019   1.526   0.010  0.00  0.00    +0.025 C 
ATOM     36  C   UNL     1       0.002  -0.004   0.002  0.00  0.00    +0.112 C 
ENDBRANCH   1  36
TORSDOF 9
