REMARK  Name = ZINC32428458
REMARK  6 active torsions:
REMARK  status: ('A' for Active; 'I' for Inactive)
REMARK    1  A    between atoms: C_1  and  C_2
REMARK    2  A    between atoms: C_2  and  C_4
REMARK    3  A    between atoms: C_2  and  N_19
REMARK    4  A    between atoms: C_4  and  N_5
REMARK    5  A    between atoms: C_6  and  C_8
REMARK    6  A    between atoms: C_12  and  N_14
REMARK                            x       y       z     vdW  Elec       q    Type
REMARK                         _______ _______ _______ _____ _____    ______ ____
ROOT
ATOM      1  N   UNL     1       4.044  -0.476   1.202  0.00  0.00    -0.313 N 
ATOM      2  C   UNL     1       4.239   0.844   1.389  0.00  0.00    +0.244 C 
ATOM      3  O   UNL     1       4.111   1.615   0.459  0.00  0.00    -0.270 OA
ATOM      4  H   UNL     1       4.160  -1.174   2.044  0.00  0.00    +0.149 HD
ENDROOT
BRANCH   2   5
ATOM      5  C   UNL     1       4.609   1.354   2.727  0.00  0.00    +0.039 A 
ATOM      6  C   UNL     1       4.757   0.471   3.797  0.00  0.00    +0.013 A 
ATOM      7  C   UNL     1       5.096   0.950   5.046  0.00  0.00    +0.003 A 
ATOM      8  C   UNL     1       5.302   2.304   5.239  0.00  0.00    +0.028 A 
ATOM      9  C   UNL     1       5.157   3.191   4.180  0.00  0.00    +0.069 A 
ATOM     10  C   UNL     1       4.811   2.720   2.923  0.00  0.00    +0.041 A 
BRANCH   9  11
ATOM     11  N   UNL     1       5.361   4.564   4.382  0.00  0.00    -0.200 N 
ATOM     12  C   UNL     1       5.700   5.182   5.535  0.00  0.00    +0.250 A 
ATOM     13  N   UNL     1       5.787   6.461   5.279  0.00  0.00    -0.116 NA
ATOM     14  N   UNL     1       5.526   6.694   4.043  0.00  0.00    -0.023 NA
ATOM     15  N   UNL     1       5.263   5.592   3.428  0.00  0.00    -0.039 NA
ENDBRANCH   9  11
ENDBRANCH   2   5
BRANCH   1  16
ATOM     16  C   UNL     1       3.678  -0.982  -0.123  0.00  0.00    +0.089 C 
BRANCH  16  18
ATOM     17  C   UNL     1       5.050  -3.051   0.157  0.00  0.00    -0.012 C 
ATOM     18  C   UNL     1       3.640  -2.511  -0.093  0.00  0.00    -0.054 C 
BRANCH  18  19
ATOM     19  N   UNL     1       2.747  -2.958   0.984  0.00  0.00    +0.385 N 
ATOM     20  C   UNL     1       2.588  -4.419   0.965  0.00  0.00    -0.073 C 
ATOM     21  C   UNL     1       2.006  -4.872   2.314  0.00  0.00    +0.024 C 
ATOM     22  C   UNL     1       0.861  -3.970   2.641  0.00  0.00    -0.011 A 
ATOM     23  C   UNL     1       0.564  -2.783   2.042  0.00  0.00    -0.054 A 
ATOM     24  C   UNL     1      -0.562  -2.112   2.515  0.00  0.00    +0.009 A 
ATOM     25  C   UNL     1      -1.296  -2.646   3.520  0.00  0.00    +0.045 A 
ATOM     26  S   UNL     1      -0.411  -4.161   3.858  0.00  0.00    -0.101 S 
ATOM     27  C   UNL     1       1.455  -2.262   0.919  0.00  0.00    -0.042 C 
ATOM     28  H   UNL     1       3.208  -2.694   1.947  0.00  0.00    -0.081 HD
ENDBRANCH  18  19
ENDBRANCH  16  18
ENDBRANCH   1  16
TORSDOF 5
