REMARK  Name = ZINC00863053
REMARK  18 active torsions:
REMARK  status: ('A' for Active; 'I' for Inactive)
REMARK    1  A    between atoms: C_1  and  N_62
REMARK    2  A    between atoms: C_2  and  N_62
REMARK    3  A    between atoms: C_3  and  C_4
REMARK    4  A    between atoms: C_3  and  N_62
REMARK    5  A    between atoms: C_4  and  C_6
REMARK    6  A    between atoms: C_4  and  O_33
REMARK    7  A    between atoms: C_6  and  O_7
REMARK    8  A    between atoms: O_7  and  C_8
REMARK    9  A    between atoms: C_11  and  C_15
REMARK   10  A    between atoms: C_15  and  C_16
REMARK   11  A    between atoms: C_19  and  O_23
REMARK   12  A    between atoms: O_23  and  C_24
REMARK   13  A    between atoms: C_24  and  C_25
REMARK   14  A    between atoms: C_25  and  C_27
REMARK   15  A    between atoms: C_25  and  O_30
REMARK   16  A    between atoms: C_27  and  N_64
REMARK   17  A    between atoms: C_28  and  N_64
REMARK   18  A    between atoms: C_29  and  N_64
REMARK                            x       y       z     vdW  Elec       q    Type
REMARK                         _______ _______ _______ _____ _____    ______ ____
ROOT
ATOM      1  C   UNL     1      -0.242  -1.590   0.262  0.00  0.00    +0.070 C 
ENDROOT
BRANCH   1   5
ATOM      2  C   UNL     1      -1.555  -2.241  -3.754  0.00  0.00    +0.157 A 
ATOM      3  C   UNL     1      -0.875  -3.242  -3.075  0.00  0.00    +0.084 A 
ATOM      4  C   UNL     1      -0.452  -3.029  -1.776  0.00  0.00    +0.027 A 
ATOM      5  C   UNL     1      -0.705  -1.820  -1.154  0.00  0.00    -0.040 A 
ATOM      6  C   UNL     1      -1.387  -0.823  -1.827  0.00  0.00    +0.027 A 
ATOM      7  C   UNL     1      -1.808  -1.029  -3.128  0.00  0.00    +0.084 A 
ATOM      8 CL   UNL     1      -2.658   0.226  -3.975  0.00  0.00    -0.080 Cl
ATOM      9 CL   UNL     1      -0.555  -4.759  -3.854  0.00  0.00    -0.080 Cl
BRANCH   2  10
ATOM     10  O   UNL     1      -1.972  -2.448  -5.032  0.00  0.00    -0.487 OA
BRANCH  10  11
ATOM     11  C   UNL     1      -3.277  -3.003  -5.207  0.00  0.00    +0.258 C 
BRANCH  11  12
ATOM     12  C   UNL     1      -3.568  -3.162  -6.700  0.00  0.00    +0.135 C 
BRANCH  12  13
ATOM     13  O   UNL     1      -2.671  -4.122  -7.261  0.00  0.00    -0.390 OA
ATOM     14  H   UNL     1      -2.736  -5.001  -6.862  0.00  0.00    +0.210 HD
ENDBRANCH  12  13
BRANCH  12  15
ATOM     15  C   UNL     1      -5.010  -3.638  -6.891  0.00  0.00    -0.045 C 
BRANCH  15  18
ATOM     16  C   UNL     1      -6.513  -4.558  -8.551  0.00  0.00    -0.096 C 
ATOM     17  C   UNL     1      -5.405  -2.444  -8.960  0.00  0.00    -0.096 C 
ATOM     18  N   UNL     1      -5.275  -3.779  -8.338  0.00  0.00    +0.378 N 
ATOM     19  H   UNL     1      -4.489  -4.275  -8.775  0.00  0.00    -0.083 HD
ENDBRANCH  15  18
ENDBRANCH  12  15
ENDBRANCH  11  12
ENDBRANCH  10  11
ENDBRANCH   2  10
ENDBRANCH   1   5
BRANCH   1  20
ATOM     20  C   UNL     1       1.146  -1.005   0.248  0.00  0.00    -0.040 A 
ATOM     21  C   UNL     1       1.317   0.366   0.215  0.00  0.00    +0.027 A 
ATOM     22  C   UNL     1       2.590   0.906   0.202  0.00  0.00    +0.084 A 
ATOM     23  C   UNL     1       3.697   0.069   0.222  0.00  0.00    +0.157 A 
ATOM     24  C   UNL     1       3.523  -1.308   0.256  0.00  0.00    +0.084 A 
ATOM     25  C   UNL     1       2.247  -1.841   0.269  0.00  0.00    +0.027 A 
ATOM     26 CL   UNL     1       4.904  -2.358   0.283  0.00  0.00    -0.080 Cl
ATOM     27 CL   UNL     1       2.803   2.628   0.160  0.00  0.00    -0.080 Cl
BRANCH  23  28
ATOM     28  O   UNL     1       4.950   0.597   0.210  0.00  0.00    -0.487 OA
BRANCH  28  29
ATOM     29  C   UNL     1       5.548   0.817  -1.069  0.00  0.00    +0.258 C 
BRANCH  29  30
ATOM     30  C   UNL     1       6.946   1.411  -0.882  0.00  0.00    +0.135 C 
BRANCH  30  31
ATOM     31  O   UNL     1       6.838   2.705  -0.287  0.00  0.00    -0.390 OA
ATOM     32  H   UNL     1       6.327   3.338  -0.811  0.00  0.00    +0.210 HD
ENDBRANCH  30  31
BRANCH  30  33
ATOM     33  C   UNL     1       7.635   1.531  -2.243  0.00  0.00    -0.045 C 
BRANCH  33  36
ATOM     34  C   UNL     1       9.887   0.966  -1.557  0.00  0.00    -0.096 C 
ATOM     35  C   UNL     1       9.529   2.606  -3.301  0.00  0.00    -0.096 C 
ATOM     36  N   UNL     1       9.004   2.049  -2.037  0.00  0.00    +0.378 N 
ATOM     37  H   UNL     1       8.975   2.794  -1.331  0.00  0.00    -0.083 HD
ENDBRANCH  33  36
ENDBRANCH  30  33
ENDBRANCH  29  30
ENDBRANCH  28  29
ENDBRANCH  23  28
ENDBRANCH   1  20
TORSDOF 14
