REMARK  Name = ZINC03401591
REMARK  10 active torsions:
REMARK  status: ('A' for Active; 'I' for Inactive)
REMARK    1  A    between atoms: C_1  and  C_2
REMARK    2  A    between atoms: C_2  and  C_4
REMARK    3  A    between atoms: C_2  and  N_49
REMARK    4  A    between atoms: C_14  and  C_15
REMARK    5  A    between atoms: C_14  and  N_49
REMARK    6  A    between atoms: C_15  and  C_17
REMARK    7  A    between atoms: C_15  and  O_27
REMARK    8  A    between atoms: C_17  and  O_18
REMARK    9  A    between atoms: O_18  and  C_19
REMARK   10  A    between atoms: C_19  and  C_20
REMARK                            x       y       z     vdW  Elec       q    Type
REMARK                         _______ _______ _______ _____ _____    ______ ____
ROOT
ATOM      1  N   UNL     1       2.115   7.941   0.916  0.00  0.00    +0.385 N 
ATOM      2  H   UNL     1       2.996   7.984   0.390  0.00  0.00    -0.085 HD
ATOM      3  H   UNL     1       2.222   7.299   1.710  0.00  0.00    -0.085 HD
ENDROOT
BRANCH   1   5
ATOM      4  C   UNL     1       1.274   7.968  -1.390  0.00  0.00    -0.009 C 
ATOM      5  C   UNL     1       1.044   7.447   0.030  0.00  0.00    -0.044 C 
BRANCH   5   6
ATOM      6  C   UNL     1       1.064   5.940   0.022  0.00  0.00    -0.061 A 
ATOM      7  C   UNL     1       2.286   5.270   0.008  0.00  0.00    +0.002 A 
ATOM      8  C   UNL     1       2.340   3.910   0.001  0.00  0.00    +0.009 A 
ATOM      9  C   UNL     1       1.147   3.167   0.008  0.00  0.00    -0.018 A 
ATOM     10  C   UNL     1       1.163   1.762   0.000  0.00  0.00    +0.008 A 
ATOM     11  C   UNL     1      -0.013   1.076   0.008  0.00  0.00    +0.001 A 
ATOM     12  C   UNL     1      -1.235   1.746   0.017  0.00  0.00    +0.001 A 
ATOM     13  C   UNL     1      -1.288   3.106   0.031  0.00  0.00    +0.008 A 
ATOM     14  C   UNL     1      -0.096   3.849   0.023  0.00  0.00    -0.018 A 
ATOM     15  C   UNL     1      -0.111   5.254   0.030  0.00  0.00    +0.010 A 
ENDBRANCH   5   6
ENDBRANCH   1   5
BRANCH   1  16
ATOM     16  C   UNL     1       1.783   9.287   1.420  0.00  0.00    -0.048 C 
BRANCH  16  17
ATOM     17  C   UNL     1       2.910   9.773   2.334  0.00  0.00    +0.123 C 
BRANCH  17  18
ATOM     18  O   UNL     1       4.106   9.936   1.569  0.00  0.00    -0.391 OA
ATOM     19  H   UNL     1       4.028  10.575   0.848  0.00  0.00    +0.210 HD
ENDBRANCH  17  18
BRANCH  17  20
ATOM     20  C   UNL     1       2.518  11.113   2.959  0.00  0.00    +0.189 C 
BRANCH  20  21
ATOM     21  O   UNL     1       3.517  11.509   3.901  0.00  0.00    -0.373 OA
BRANCH  21  22
ATOM     22  C   UNL     1       3.246  12.755   4.546  0.00  0.00    +0.196 C 
BRANCH  22  23
ATOM     23  C   UNL     1       4.358  13.073   5.511  0.00  0.00    -0.004 A 
ATOM     24  C   UNL     1       5.419  12.199   5.657  0.00  0.00    +0.007 A 
ATOM     25  C   UNL     1       6.442  12.493   6.539  0.00  0.00    +0.000 A 
ATOM     26  C   UNL     1       6.399  13.657   7.284  0.00  0.00    +0.001 A 
ATOM     27  C   UNL     1       5.337  14.529   7.144  0.00  0.00    +0.020 A 
ATOM     28  C   UNL     1       4.315  14.238   6.257  0.00  0.00    +0.046 A 
ATOM     29 CL   UNL     1       2.980  15.333   6.080  0.00  0.00    -0.083 Cl
ENDBRANCH  22  23
ENDBRANCH  21  22
ENDBRANCH  20  21
ENDBRANCH  17  20
ENDBRANCH  16  17
ENDBRANCH   1  16
TORSDOF 9
