REMARK  Name = ZINC03860848
REMARK  3 active torsions:
REMARK  status: ('A' for Active; 'I' for Inactive)
REMARK    1  A    between atoms: C_4  and  N_7
REMARK    2  A    between atoms: N_8  and  C_9
REMARK    3  A    between atoms: C_18  and  O_19
REMARK                            x       y       z     vdW  Elec       q    Type
REMARK                         _______ _______ _______ _____ _____    ______ ____
ROOT
ATOM      1  C   UNL     1       4.808  -2.579  -0.060  0.00  0.00    +0.135 A 
ATOM      2  C   UNL     1       4.851  -4.041  -0.074  0.00  0.00    +0.013 A 
ATOM      3  C   UNL     1       3.679  -4.806  -0.073  0.00  0.00    +0.011 A 
ATOM      4  C   UNL     1       3.762  -6.167  -0.087  0.00  0.00    +0.001 A 
ATOM      5  C   UNL     1       4.998  -6.807  -0.102  0.00  0.00    +0.001 A 
ATOM      6  C   UNL     1       6.158  -6.093  -0.104  0.00  0.00    +0.008 A 
ATOM      7  C   UNL     1       6.109  -4.689  -0.091  0.00  0.00    -0.016 A 
ATOM      8  C   UNL     1       7.287  -3.918  -0.093  0.00  0.00    +0.012 A 
ATOM      9  C   UNL     1       7.230  -2.560  -0.080  0.00  0.00    +0.048 A 
ATOM     10  C   UNL     1       6.015  -1.876  -0.069  0.00  0.00    +0.144 A 
ENDROOT
BRANCH   1  12
ATOM     11  N   UNL     1       3.599  -0.629  -0.037  0.00  0.00    -0.149 NA
ATOM     12  N   UNL     1       3.620  -1.919  -0.044  0.00  0.00    -0.145 NA
BRANCH  11  16
ATOM     13  C   UNL     1      -0.017   1.380   0.010  0.00  0.00    +0.000 A 
ATOM     14  C   UNL     1       1.168   2.095   0.002  0.00  0.00    +0.002 A 
ATOM     15  C   UNL     1       2.377   1.432  -0.013  0.00  0.00    +0.029 A 
ATOM     16  C   UNL     1       2.404   0.035  -0.021  0.00  0.00    +0.086 A 
ATOM     17  C   UNL     1       1.204  -0.681  -0.013  0.00  0.00    +0.029 A 
ATOM     18  C   UNL     1       0.002  -0.004   0.002  0.00  0.00    +0.002 A 
ENDBRANCH  11  16
ENDBRANCH   1  12
BRANCH  10  19
ATOM     19  O   UNL     1       6.006  -0.519  -0.062  0.00  0.00    -0.505 OA
ATOM     20  H   UNL     1       6.012  -0.130   0.824  0.00  0.00    +0.292 HD
ENDBRANCH  10  19
TORSDOF 3
