REMARK  Name = ZINC63271169
REMARK  5 active torsions:
REMARK  status: ('A' for Active; 'I' for Inactive)
REMARK    1  A    between atoms: N_17  and  C_18
REMARK    2  A    between atoms: C_18  and  C_19
REMARK    3  A    between atoms: C_19  and  C_20
REMARK    4  A    between atoms: C_20  and  C_21
REMARK    5  A    between atoms: N_23  and  C_24
REMARK                            x       y       z     vdW  Elec       q    Type
REMARK                         _______ _______ _______ _____ _____    ______ ____
ROOT
ATOM      1  C   UNL     1      -0.005   1.377   0.245  0.00  0.00    +0.001 A 
ATOM      2  C   UNL     1       1.179   2.128   0.246  0.00  0.00    +0.002 A 
ATOM      3  C   UNL     1       2.402   1.559   0.211  0.00  0.00    +0.026 A 
ATOM      4  C   UNL     1       2.538   0.145   0.171  0.00  0.00    +0.043 A 
ATOM      5  N   UNL     1       3.599  -0.630   0.154  0.00  0.00    -0.376 N 
ATOM      6  C   UNL     1       3.158  -2.018   0.035  0.00  0.00    +0.124 C 
ATOM      7  C   UNL     1       3.680  -2.884   1.187  0.00  0.00    +0.138 C 
ATOM      8  N   UNL     1       2.883  -4.120   1.220  0.00  0.00    -0.283 N 
ATOM      9  C   UNL     1       1.431  -4.068   1.417  0.00  0.00    +0.114 C 
ATOM     10  C   UNL     1       0.797  -3.212   0.304  0.00  0.00    +0.052 C 
ATOM     11  C   UNL     1       1.643  -1.970   0.146  0.00  0.00    -0.036 C 
ATOM     12  C   UNL     1       1.301  -0.674   0.176  0.00  0.00    -0.001 A 
ATOM     13  C   UNL     1       0.011   0.026   0.211  0.00  0.00    +0.010 A 
ATOM     14  C   UNL     1       3.494  -5.312   1.067  0.00  0.00    +0.302 C 
ATOM     15  O   UNL     1       4.679  -5.358   0.801  0.00  0.00    -0.253 OA
ATOM     16  N   UNL     1       2.790  -6.453   1.208  0.00  0.00    -0.299 N 
ATOM     17  H   UNL     1       1.831  -6.417   1.347  0.00  0.00    +0.150 HD
ATOM     18  H   UNL     1       4.519  -0.331   0.210  0.00  0.00    +0.160 HD
ENDROOT
BRANCH  16  19
ATOM     19  C   UNL     1       3.474  -7.747   1.151  0.00  0.00    +0.106 C 
BRANCH  19  20
ATOM     20  C   UNL     1       2.453  -8.872   1.338  0.00  0.00    +0.028 C 
BRANCH  20  21
ATOM     21  C   UNL     1       3.167 -10.223   1.278  0.00  0.00    +0.097 C 
BRANCH  21  22
ATOM     22  C   UNL     1       2.162 -11.331   1.462  0.00  0.00    +0.217 C 
ATOM     23  O   UNL     1       0.990 -11.065   1.625  0.00  0.00    -0.275 OA
ATOM     24  N   UNL     1       2.566 -12.617   1.446  0.00  0.00    -0.285 N 
ATOM     25  H   UNL     1       3.511 -12.828   1.387  0.00  0.00    +0.155 HD
BRANCH  24  26
ATOM     26  C   UNL     1       1.630 -13.639   1.513  0.00  0.00    +0.033 C 
ATOM     27  C   UNL     1       1.553 -14.572   0.502  0.00  0.00    +0.029 C 
ATOM     28  C   UNL     1       0.535 -15.522   0.646  0.00  0.00    -0.016 C 
ATOM     29  C   UNL     1       0.423 -16.809   0.262  0.00  0.00    +0.025 C 
ATOM     30  C   UNL     1      -0.686 -17.393   0.905  0.00  0.00    +0.106 C 
ATOM     31  N   UNL     1      -1.358 -16.527   1.613  0.00  0.00    -0.279 NA
ATOM     32  C   UNL     1      -0.751 -15.221   1.398  0.00  0.00    +0.158 C 
ATOM     33  C   UNL     1      -0.385 -14.477   2.647  0.00  0.00    +0.006 C 
ATOM     34  C   UNL     1       0.724 -13.731   2.661  0.00  0.00    +0.021 C 
ENDBRANCH  24  26
ENDBRANCH  21  22
ENDBRANCH  20  21
ENDBRANCH  19  20
ENDBRANCH  16  19
TORSDOF 5
