REMARK  Name = ZINC09387073
REMARK  11 active torsions:
REMARK  status: ('A' for Active; 'I' for Inactive)
REMARK    1  A    between atoms: C_1  and  C_2
REMARK    2  A    between atoms: C_3  and  C_33
REMARK    3  A    between atoms: C_4  and  C_32
REMARK    4  A    between atoms: C_5  and  S_10
REMARK    5  A    between atoms: C_6  and  C_9
REMARK    6  A    between atoms: C_7  and  C_8
REMARK    7  A    between atoms: S_10  and  N_13
REMARK    8  A    between atoms: N_13  and  C_14
REMARK    9  A    between atoms: N_13  and  C_15
REMARK   10  A    between atoms: C_15  and  C_16
REMARK   11  A    between atoms: C_29  and  C_31
REMARK                            x       y       z     vdW  Elec       q    Type
REMARK                         _______ _______ _______ _____ _____    ______ ____
ROOT
ATOM      1  C   UNL     1      -4.872  -0.285   1.376  0.00  0.00    +0.205 C 
ENDROOT
BRANCH   1   2
ATOM      2  C   UNL     1      -6.112  -0.522   0.554  0.00  0.00    +0.236 C 
ATOM      3  O   UNL     1      -6.034  -0.596  -0.654  0.00  0.00    -0.274 OA
ATOM      4  N   UNL     1      -7.309  -0.653   1.161  0.00  0.00    -0.265 N 
ATOM      5  C   UNL     1      -7.414  -0.577   2.556  0.00  0.00    +0.058 A 
ATOM      6  C   UNL     1      -7.282   0.645   3.204  0.00  0.00    +0.025 A 
ATOM      7  C   UNL     1      -7.424   0.713   4.578  0.00  0.00    +0.002 A 
ATOM      8  C   UNL     1      -7.699  -0.429   5.308  0.00  0.00    +0.002 A 
ATOM      9  C   UNL     1      -7.820  -1.650   4.671  0.00  0.00    +0.025 A 
ATOM     10  C   UNL     1      -7.667  -1.728   3.297  0.00  0.00    +0.055 A 
ATOM     11  N   UNL     1      -7.753  -2.956   2.631  0.00  0.00    -0.284 N 
ATOM     12  C   UNL     1      -8.528  -3.089   1.532  0.00  0.00    +0.219 C 
ATOM     13  O   UNL     1      -8.533  -4.137   0.921  0.00  0.00    -0.275 OA
ATOM     14  C   UNL     1      -9.387  -1.946   1.060  0.00  0.00    +0.118 C 
ATOM     15  C   UNL     1      -8.523  -0.884   0.377  0.00  0.00    +0.087 C 
ATOM     16  C   UNL     1      -9.313   0.421   0.268  0.00  0.00    +0.029 C 
ATOM     17  H   UNL     1      -7.251  -3.718   2.961  0.00  0.00    +0.155 HD
ENDBRANCH   1   2
BRANCH   1  18
ATOM     18  N   UNL     1      -3.711  -0.179   0.489  0.00  0.00    -0.171 NA
ATOM     19  C   UNL     1      -3.001  -1.388   0.063  0.00  0.00    +0.132 C 
BRANCH  18  20
ATOM     20  S   UNL     1      -3.201   1.308  -0.033  0.00  0.00    +0.062 S 
ATOM     21  O   UNL     1      -4.337   2.161  -0.002  0.00  0.00    -0.153 OA
ATOM     22  O   UNL     1      -2.446   1.086  -1.216  0.00  0.00    -0.153 OA
BRANCH  20  27
ATOM     23  C   UNL     1       0.651   3.413   4.107  0.00  0.00    +0.044 C 
ATOM     24  C   UNL     1      -0.310   2.889   3.071  0.00  0.00    -0.044 A 
ATOM     25  C   UNL     1       0.129   2.002   2.106  0.00  0.00    -0.043 A 
ATOM     26  C   UNL     1      -0.753   1.522   1.156  0.00  0.00    -0.021 A 
ATOM     27  C   UNL     1      -2.075   1.925   1.174  0.00  0.00    +0.112 A 
ATOM     28  C   UNL     1      -2.513   2.816   2.136  0.00  0.00    -0.021 A 
ATOM     29  C   UNL     1      -1.631   3.296   3.086  0.00  0.00    -0.043 A 
ATOM     30  C   UNL     1      -2.110   4.263   4.138  0.00  0.00    +0.044 C 
ATOM     31  C   UNL     1      -3.953   3.260   2.152  0.00  0.00    +0.046 C 
ATOM     32  C   UNL     1      -0.274   0.555   0.104  0.00  0.00    +0.046 C 
ATOM     33  C   UNL     1       1.569   1.559   2.090  0.00  0.00    +0.044 C 
ENDBRANCH  20  27
ENDBRANCH  18  20
ENDBRANCH   1  18
TORSDOF 4
