REMARK  Name = ZINC08972032
REMARK  3 active torsions:
REMARK  status: ('A' for Active; 'I' for Inactive)
REMARK    1  A    between atoms: C_7  and  C_12
REMARK    2  A    between atoms: N_18  and  C_21
REMARK    3  A    between atoms: C_21  and  C_22
REMARK                            x       y       z     vdW  Elec       q    Type
REMARK                         _______ _______ _______ _____ _____    ______ ____
ROOT
ATOM      1  C   UNL     1       1.046  -2.812   1.212  0.00  0.00    +0.126 A 
ATOM      2  C   UNL     1       1.521  -2.450   2.485  0.00  0.00    +0.265 A 
ATOM      3  N   UNL     1       1.031  -3.068   3.578  0.00  0.00    -0.274 N 
ATOM      4  H   UNL     1       1.357  -2.820   4.457  0.00  0.00    +0.173 HD
ATOM      5  C   UNL     1       0.094  -4.026   3.458  0.00  0.00    +0.332 A 
ATOM      6  O   UNL     1      -0.335  -4.572   4.456  0.00  0.00    -0.246 OA
ATOM      7  N   UNL     1      -0.375  -4.389   2.250  0.00  0.00    -0.256 N 
ATOM      8  C   UNL     1       0.093  -3.782   1.112  0.00  0.00    +0.268 A 
ATOM      9  O   UNL     1      -0.384  -4.145  -0.097  0.00  0.00    -0.267 OA
ATOM     10  O   UNL     1       2.369  -1.582   2.599  0.00  0.00    -0.267 OA
ENDROOT
BRANCH   1  17
ATOM     11  C   UNL     1      -0.017   1.381   0.010  0.00  0.00    +0.000 A 
ATOM     12  C   UNL     1       1.169   2.094   0.002  0.00  0.00    +0.001 A 
ATOM     13  C   UNL     1       2.380   1.432  -0.013  0.00  0.00    +0.015 A 
ATOM     14  C   UNL     1       2.406   0.037  -0.021  0.00  0.00    +0.066 A 
ATOM     15  C   UNL     1       1.203  -0.674  -0.013  0.00  0.00    +0.012 A 
ATOM     16  C   UNL     1       0.002  -0.004   0.002  0.00  0.00    +0.008 A 
ATOM     17  C   UNL     1       1.578  -2.134  -0.024  0.00  0.00    +0.248 C 
ATOM     18  O   UNL     1       3.007  -2.192  -0.038  0.00  0.00    -0.448 OA
ATOM     19  C   UNL     1       3.506  -0.945  -0.037  0.00  0.00    +0.340 C 
ATOM     20  O   UNL     1       4.688  -0.667  -0.047  0.00  0.00    -0.245 OA
ENDBRANCH   1  17
BRANCH   7  21
ATOM     21  C   UNL     1      -1.395  -5.436   2.150  0.00  0.00    +0.165 C 
BRANCH  21  22
ATOM     22  C   UNL     1      -2.764  -4.810   2.216  0.00  0.00    -0.027 A 
ATOM     23  C   UNL     1      -3.386  -4.636   3.439  0.00  0.00    +0.008 A 
ATOM     24  C   UNL     1      -4.642  -4.062   3.501  0.00  0.00    +0.038 A 
ATOM     25  C   UNL     1      -5.277  -3.662   2.338  0.00  0.00    +0.123 A 
ATOM     26  C   UNL     1      -4.654  -3.837   1.114  0.00  0.00    +0.038 A 
ATOM     27  C   UNL     1      -3.396  -4.406   1.055  0.00  0.00    +0.008 A 
ATOM     28  F   UNL     1      -6.505  -3.101   2.397  0.00  0.00    -0.205 F 
ENDBRANCH  21  22
ENDBRANCH   7  21
TORSDOF 3
