REMARK  Name = ZINC23556703
REMARK  15 active torsions:
REMARK  status: ('A' for Active; 'I' for Inactive)
REMARK    1  A    between atoms: C_1  and  C_2
REMARK    2  A    between atoms: C_4  and  N_33
REMARK    3  A    between atoms: C_7  and  N_8
REMARK    4  A    between atoms: C_9  and  C_11
REMARK    5  A    between atoms: C_11  and  S_12
REMARK    6  A    between atoms: S_12  and  C_13
REMARK    7  A    between atoms: N_23  and  C_24
REMARK    8  A    between atoms: C_24  and  C_25
REMARK    9  A    between atoms: C_25  and  N_26
REMARK   10  A    between atoms: N_26  and  C_27
REMARK   11  A    between atoms: N_26  and  C_30
REMARK   12  A    between atoms: C_27  and  C_28
REMARK   13  A    between atoms: C_27  and  C_29
REMARK   14  A    between atoms: C_30  and  C_31
REMARK   15  A    between atoms: C_30  and  C_32
REMARK                            x       y       z     vdW  Elec       q    Type
REMARK                         _______ _______ _______ _____ _____    ______ ____
ROOT
ATOM      1  C   UNL     1      -1.204  -2.581   0.465  0.00  0.00    +0.173 A 
ATOM      2  N   UNL     1      -1.315  -1.276   0.519  0.00  0.00    -0.223 NA
ATOM      3  C   UNL     1      -0.233  -0.473   0.472  0.00  0.00    +0.079 A 
ATOM      4  C   UNL     1      -0.350   0.919   0.531  0.00  0.00    +0.028 A 
ATOM      5  C   UNL     1       0.773   1.695   0.480  0.00  0.00    +0.002 A 
ATOM      6  C   UNL     1       2.034   1.122   0.371  0.00  0.00    +0.001 A 
ATOM      7  C   UNL     1       2.181  -0.237   0.311  0.00  0.00    +0.015 A 
ATOM      8  C   UNL     1       1.052  -1.053   0.360  0.00  0.00    +0.065 A 
ATOM      9  C   UNL     1       1.149  -2.518   0.300  0.00  0.00    +0.262 A 
ATOM     10  O   UNL     1       2.227  -3.075   0.205  0.00  0.00    -0.267 OA
ATOM     11  N   UNL     1      -0.004  -3.223   0.356  0.00  0.00    -0.289 N 
ENDROOT
BRANCH   1  12
ATOM     12  S   UNL     1      -2.673  -3.551   0.534  0.00  0.00    -0.078 S 
BRANCH  12  13
ATOM     13  C   UNL     1      -3.912  -2.238   0.669  0.00  0.00    +0.173 C 
BRANCH  13  15
ATOM     14  N   UNL     1      -6.372  -2.058   0.851  0.00  0.00    -0.285 N 
ATOM     15  C   UNL     1      -5.287  -2.850   0.745  0.00  0.00    +0.227 C 
ATOM     16  O   UNL     1      -5.417  -4.055   0.711  0.00  0.00    -0.275 OA
ATOM     17  H   UNL     1      -6.260  -0.964   0.812  0.00  0.00    +0.155 HD
BRANCH  14  24
ATOM     18  C   UNL     1      -8.383  -0.516   2.144  0.00  0.00    +0.046 C 
ATOM     19  C   UNL     1      -8.651  -1.909   1.635  0.00  0.00    -0.027 A 
ATOM     20  C   UNL     1      -9.904  -2.471   1.785  0.00  0.00    +0.038 A 
ATOM     21  C   UNL     1     -10.149  -3.751   1.324  0.00  0.00    +0.127 A 
ATOM     22  C   UNL     1      -9.143  -4.471   0.705  0.00  0.00    +0.034 A 
ATOM     23  C   UNL     1      -7.890  -3.912   0.547  0.00  0.00    +0.026 A 
ATOM     24  C   UNL     1      -7.641  -2.627   1.010  0.00  0.00    +0.036 A 
BRANCH  21  25
ATOM     25  N   UNL     1     -11.491  -4.353   1.492  0.00  0.00    +0.056 N 
ATOM     26  O   UNL     1     -11.708  -5.481   1.086  0.00  0.00    -0.126 OA
ATOM     27  O   UNL     1     -12.378  -3.720   2.037  0.00  0.00    -0.126 OA
ENDBRANCH  21  25
ENDBRANCH  14  24
ENDBRANCH  13  15
ENDBRANCH  12  13
ENDBRANCH   1  12
BRANCH  11  28
ATOM     28  C   UNL     1       0.035  -4.687   0.301  0.00  0.00    +0.109 C 
BRANCH  28  29
ATOM     29  C   UNL     1       0.150  -5.248   1.719  0.00  0.00    -0.056 C 
BRANCH  29  30
ATOM     30  N   UNL     1       0.049  -6.713   1.676  0.00  0.00    +0.384 N 
ATOM     31  H   UNL     1      -0.805  -6.974   1.032  0.00  0.00    -0.081 HD
BRANCH  30  32
ATOM     32  C   UNL     1       1.256  -7.307   1.087  0.00  0.00    -0.074 C 
ATOM     33  C   UNL     1       1.080  -7.426  -0.428  0.00  0.00    -0.014 C 
ATOM     34  C   UNL     1       2.463  -6.418   1.392  0.00  0.00    -0.014 C 
ENDBRANCH  30  32
BRANCH  30  35
ATOM     35  C   UNL     1      -0.210  -7.263   3.013  0.00  0.00    -0.074 C 
ATOM     36  C   UNL     1      -0.566  -8.746   2.895  0.00  0.00    -0.014 C 
ATOM     37  C   UNL     1       1.041  -7.106   3.880  0.00  0.00    -0.014 C 
ENDBRANCH  30  35
ENDBRANCH  29  30
ENDBRANCH  28  29
ENDBRANCH  11  28
TORSDOF 10
