REMARK  Name = ZINC06812706
REMARK  8 active torsions:
REMARK  status: ('A' for Active; 'I' for Inactive)
REMARK    1  A    between atoms: C_1  and  N_48
REMARK    2  A    between atoms: C_2  and  N_48
REMARK    3  A    between atoms: C_3  and  C_4
REMARK    4  A    between atoms: C_3  and  N_48
REMARK    5  A    between atoms: C_4  and  N_5
REMARK    6  A    between atoms: C_6  and  C_24
REMARK    7  A    between atoms: C_9  and  C_10
REMARK    8  A    between atoms: C_9  and  O_19
REMARK                            x       y       z     vdW  Elec       q    Type
REMARK                         _______ _______ _______ _____ _____    ______ ____
ROOT
ATOM      1  N   UNL     1       6.006   7.236   0.293  0.00  0.00    -0.285 N 
ATOM      2  C   UNL     1       4.640   7.763   0.227  0.00  0.00    +0.151 C 
ATOM      3  C   UNL     1       3.722   6.568   0.108  0.00  0.00    +0.075 C 
ATOM      4  C   UNL     1       2.340   6.586   0.016  0.00  0.00    +0.168 C 
ATOM      5  C   UNL     1       4.550   5.438   0.115  0.00  0.00    +0.249 C 
ATOM      6  O   UNL     1       4.178   4.280   0.041  0.00  0.00    -0.282 OA
ATOM      7  C   UNL     1       5.960   5.895   0.226  0.00  0.00    +0.288 C 
ATOM      8  O   UNL     1       6.929   5.163   0.255  0.00  0.00    -0.266 OA
ENDROOT
BRANCH   4   9
ATOM      9  C   UNL     1       1.607   5.346  -0.235  0.00  0.00    +0.171 A 
ATOM     10  C   UNL     1       0.508   4.928   0.452  0.00  0.00    +0.061 A 
ATOM     11  C   UNL     1       0.118   3.687  -0.111  0.00  0.00    +0.021 A 
ATOM     12  C   UNL     1      -0.916   2.783   0.160  0.00  0.00    +0.011 A 
ATOM     13  C   UNL     1      -1.030   1.643  -0.583  0.00  0.00    +0.001 A 
ATOM     14  C   UNL     1      -0.124   1.369  -1.598  0.00  0.00    +0.004 A 
ATOM     15  C   UNL     1       0.902   2.245  -1.881  0.00  0.00    +0.047 A 
ATOM     16  C   UNL     1       1.036   3.414  -1.143  0.00  0.00    +0.136 A 
ATOM     17  O   UNL     1       1.915   4.436  -1.185  0.00  0.00    -0.452 OA
ENDBRANCH   4   9
BRANCH   2  18
ATOM     18  C   UNL     1       4.488   8.653  -0.979  0.00  0.00    +0.015 A 
ATOM     19  C   UNL     1       3.798   9.813  -1.102  0.00  0.00    +0.013 A 
ATOM     20  C   UNL     1       3.799  10.468  -2.320  0.00  0.00    +0.008 A 
ATOM     21  C   UNL     1       4.489   9.930  -3.355  0.00  0.00    +0.045 A 
ATOM     22  S   UNL     1       5.175   8.457  -2.615  0.00  0.00    -0.099 S 
ENDBRANCH   2  18
BRANCH   4  23
ATOM     23  O   UNL     1       1.669   7.751   0.158  0.00  0.00    -0.503 OA
ATOM     24  H   UNL     1       0.687   7.583   0.064  0.00  0.00    +0.292 HD
ENDBRANCH   4  23
BRANCH   1  25
ATOM     25  C   UNL     1       7.224   8.042   0.414  0.00  0.00    +0.090 C 
BRANCH  25  26
ATOM     26  C   UNL     1       7.552   8.253   1.893  0.00  0.00    -0.060 C 
BRANCH  26  29
ATOM     27  C   UNL     1       8.556  10.421   1.507  0.00  0.00    -0.097 C 
ATOM     28  C   UNL     1       9.252   9.086   3.403  0.00  0.00    -0.097 C 
ATOM     29  N   UNL     1       8.793   9.048   1.998  0.00  0.00    +0.377 N 
ATOM     30  H   UNL     1       9.521   8.608   1.422  0.00  0.00    -0.083 HD
ENDBRANCH  26  29
ENDBRANCH  25  26
ENDBRANCH   1  25
TORSDOF 6
