REMARK  Name = ZINC15708703
REMARK  10 active torsions:
REMARK  status: ('A' for Active; 'I' for Inactive)
REMARK    1  A    between atoms: C_1  and  C_2
REMARK    2  A    between atoms: C_2  and  C_3
REMARK    3  A    between atoms: C_2  and  N_4
REMARK    4  A    between atoms: N_7  and  C_8
REMARK    5  A    between atoms: C_17  and  C_20
REMARK    6  A    between atoms: C_20  and  C_21
REMARK    7  A    between atoms: C_21  and  C_22
REMARK    8  A    between atoms: C_28  and  C_30
REMARK    9  A    between atoms: C_30  and  O_31
REMARK   10  A    between atoms: O_31  and  C_32
REMARK                            x       y       z     vdW  Elec       q    Type
REMARK                         _______ _______ _______ _____ _____    ______ ____
ROOT
ATOM      1  C   UNL     1       4.203   3.303  -2.979  0.00  0.00    +0.057 C 
ATOM      2  C   UNL     1       4.833   4.677  -2.626  0.00  0.00    +0.014 C 
ATOM      3  C   UNL     1       4.192   5.043  -1.287  0.00  0.00    +0.021 C 
ATOM      4  C   UNL     1       3.945   6.498  -1.061  0.00  0.00    +0.200 C 
ATOM      5  O   UNL     1       4.702   7.328  -1.518  0.00  0.00    -0.278 OA
ATOM      6  N   UNL     1       2.869   6.876  -0.344  0.00  0.00    -0.318 N 
ATOM      7  C   UNL     1       1.837   5.969   0.140  0.00  0.00    +0.089 C 
ATOM      8  C   UNL     1       2.228   4.496  -0.042  0.00  0.00    -0.050 C 
ATOM      9  C   UNL     1       3.180   3.029  -1.841  0.00  0.00    -0.055 C 
ATOM     10  H   UNL     1       2.776   7.819  -0.134  0.00  0.00    +0.149 HD
ATOM     11  N   UNL     1       2.911   4.401  -1.383  0.00  0.00    +0.391 N 
ATOM     12  H   UNL     1       2.326   4.877  -2.080  0.00  0.00    -0.080 HD
ENDROOT
BRANCH   1  16
ATOM     13  N   UNL     1       2.722   2.318  -6.197  0.00  0.00    -0.297 N 
ATOM     14  C   UNL     1       3.349   2.254  -5.006  0.00  0.00    +0.300 C 
ATOM     15  O   UNL     1       3.760   1.188  -4.592  0.00  0.00    -0.253 OA
ATOM     16  N   UNL     1       3.521   3.373  -4.274  0.00  0.00    -0.298 N 
ATOM     17  H   UNL     1       2.394   3.169  -6.528  0.00  0.00    +0.150 HD
ATOM     18  H   UNL     1       3.193   4.224  -4.604  0.00  0.00    +0.150 HD
BRANCH  13  20
ATOM     19  C   UNL     1       1.268   0.380  -6.530  0.00  0.00    +0.027 C 
ATOM     20  C   UNL     1       2.535   1.102  -6.993  0.00  0.00    +0.068 C 
ATOM     21  C   UNL     1       2.398   1.476  -8.470  0.00  0.00    +0.027 C 
ENDBRANCH  13  20
ENDBRANCH   1  16
BRANCH   8  22
ATOM     22  C   UNL     1       0.979   3.615   0.012  0.00  0.00    -0.005 C 
BRANCH  22  23
ATOM     23  C   UNL     1       0.363   3.688   1.411  0.00  0.00    +0.094 C 
BRANCH  23  24
ATOM     24  C   UNL     1      -0.794   2.727   1.501  0.00  0.00    +0.216 C 
ATOM     25  O   UNL     1      -1.094   2.047   0.543  0.00  0.00    -0.276 OA
ATOM     26  N   UNL     1      -1.493   2.620   2.649  0.00  0.00    -0.296 N 
ATOM     27  C   UNL     1      -1.231   3.374   3.888  0.00  0.00    +0.108 C 
ATOM     28  C   UNL     1      -2.588   3.384   4.639  0.00  0.00    +0.021 C 
ATOM     29  C   UNL     1      -3.129   1.965   4.318  0.00  0.00    +0.026 C 
ATOM     30  C   UNL     1      -2.639   1.727   2.874  0.00  0.00    +0.102 C 
BRANCH  30  31
ATOM     31  C   UNL     1      -2.205   0.270   2.702  0.00  0.00    +0.181 C 
BRANCH  31  32
ATOM     32  O   UNL     1      -1.261  -0.070   3.720  0.00  0.00    -0.381 OA
ATOM     33  C   UNL     1      -0.789  -1.416   3.650  0.00  0.00    +0.194 C 
ENDBRANCH  31  32
ENDBRANCH  30  31
ENDBRANCH  23  24
ENDBRANCH  22  23
ENDBRANCH   8  22
TORSDOF 7
