REMARK  Name = ZINC24215591
REMARK  9 active torsions:
REMARK  status: ('A' for Active; 'I' for Inactive)
REMARK    1  A    between atoms: C_1  and  C_2
REMARK    2  A    between atoms: C_3  and  C_14
REMARK    3  A    between atoms: C_4  and  C_13
REMARK    4  A    between atoms: N_5  and  C_7
REMARK    5  A    between atoms: N_21  and  C_22
REMARK    6  A    between atoms: C_22  and  C_23
REMARK    7  A    between atoms: N_25  and  C_26
REMARK    8  A    between atoms: C_26  and  C_27
REMARK    9  A    between atoms: C_27  and  C_28
REMARK                            x       y       z     vdW  Elec       q    Type
REMARK                         _______ _______ _______ _____ _____    ______ ____
ROOT
ATOM      1  C   UNL     1       3.574   0.750  -0.028  0.00  0.00    +0.054 C 
ATOM      2  C   UNL     1       4.061   0.399  -1.405  0.00  0.00    +0.204 C 
ATOM      3  O   UNL     1       3.503   0.892  -2.362  0.00  0.00    -0.277 OA
ATOM      4  N   UNL     1       5.085  -0.432  -1.622  0.00  0.00    -0.318 N 
ATOM      5  C   UNL     1       5.800  -1.107  -0.542  0.00  0.00    +0.085 C 
ATOM      6  C   UNL     1       5.530  -0.401   0.787  0.00  0.00    -0.058 C 
ATOM      7  N   UNL     1       4.077  -0.230   0.945  0.00  0.00    +0.397 N 
ATOM      8  H   UNL     1       5.383  -0.598  -2.667  0.00  0.00    +0.149 HD
ATOM      9  H   UNL     1       3.587  -1.195   0.751  0.00  0.00    -0.079 HD
ENDROOT
BRANCH   1  12
ATOM     10  C   UNL     1       1.727  -1.826  -0.024  0.00  0.00    +0.068 C 
ATOM     11  C   UNL     1       1.251  -0.396  -0.012  0.00  0.00    +0.063 A 
ATOM     12  C   UNL     1       2.067   0.740  -0.014  0.00  0.00    -0.009 A 
ATOM     13  C   UNL     1       1.264   1.830  -0.000  0.00  0.00    +0.044 A 
ATOM     14  N   UNL     1      -0.017   1.397   0.010  0.00  0.00    -0.237 N 
ATOM     15  N   UNL     1       0.002  -0.004   0.002  0.00  0.00    -0.171 NA
ATOM     16  C   UNL     1       1.717   3.267   0.003  0.00  0.00    +0.066 C 
BRANCH  14  17
ATOM     17  C   UNL     1      -1.161   2.206   0.020  0.00  0.00    +0.066 A 
ATOM     18  C   UNL     1      -1.159   3.405   0.720  0.00  0.00    +0.028 A 
ATOM     19  C   UNL     1      -2.286   4.203   0.724  0.00  0.00    +0.002 A 
ATOM     20  C   UNL     1      -3.420   3.804   0.040  0.00  0.00    +0.000 A 
ATOM     21  C   UNL     1      -3.427   2.607  -0.653  0.00  0.00    +0.002 A 
ATOM     22  C   UNL     1      -2.301   1.808  -0.665  0.00  0.00    +0.028 A 
ENDBRANCH  14  17
ENDBRANCH   1  12
BRANCH   7  23
ATOM     23  C   UNL     1       3.739   0.171   2.317  0.00  0.00    +0.020 C 
BRANCH  23  24
ATOM     24  C   UNL     1       4.048  -0.962   3.262  0.00  0.00    +0.197 C 
ATOM     25  O   UNL     1       4.504  -2.001   2.834  0.00  0.00    -0.278 OA
ATOM     26  N   UNL     1       3.818  -0.820   4.582  0.00  0.00    -0.317 N 
ATOM     27  H   UNL     1       3.404   0.122   4.970  0.00  0.00    +0.149 HD
BRANCH  26  28
ATOM     28  C   UNL     1       4.118  -1.922   5.500  0.00  0.00    +0.109 C 
BRANCH  28  29
ATOM     29  C   UNL     1       3.767  -1.504   6.930  0.00  0.00    +0.061 C 
BRANCH  29  30
ATOM     30  C   UNL     1       4.075  -2.637   7.874  0.00  0.00    -0.009 A 
ATOM     31  C   UNL     1       5.228  -2.908   8.535  0.00  0.00    +0.011 A 
ATOM     32  C   UNL     1       5.282  -4.014   9.362  0.00  0.00    +0.008 A 
ATOM     33  C   UNL     1       4.185  -4.801   9.480  0.00  0.00    +0.045 A 
ATOM     34  S   UNL     1       3.021  -3.976   8.407  0.00  0.00    -0.102 S 
ENDBRANCH  29  30
ENDBRANCH  28  29
ENDBRANCH  26  28
ENDBRANCH  23  24
ENDBRANCH   7  23
TORSDOF 7
