REMARK  Name = ZINC16021332
REMARK  4 active torsions:
REMARK  status: ('A' for Active; 'I' for Inactive)
REMARK    1  A    between atoms: C_4  and  C_7
REMARK    2  A    between atoms: C_7  and  N_8
REMARK    3  A    between atoms: C_13  and  C_31
REMARK    4  A    between atoms: C_31  and  C_32
REMARK                            x       y       z     vdW  Elec       q    Type
REMARK                         _______ _______ _______ _____ _____    ______ ____
ROOT
ATOM      1  N   UNL     1       4.152  -0.952   1.338  0.00  0.00    -0.237 N 
ATOM      2  C   UNL     1       4.914  -0.089   2.018  0.00  0.00    +0.227 C 
ATOM      3  O   UNL     1       5.324   0.970   1.593  0.00  0.00    -0.275 OA
ATOM      4  C   UNL     1       5.184  -0.638   3.401  0.00  0.00    +0.107 C 
ATOM      5  C   UNL     1       6.682  -0.984   3.529  0.00  0.00    +0.072 C 
ATOM      6  N   UNL     1       6.799  -2.372   3.008  0.00  0.00    -0.295 NA
ATOM      7  C   UNL     1       5.582  -3.045   3.499  0.00  0.00    +0.136 C 
ATOM      8  C   UNL     1       4.441  -2.003   3.396  0.00  0.00    +0.122 C 
ATOM      9  C   UNL     1       3.820  -2.056   2.018  0.00  0.00    +0.229 C 
ATOM     10  O   UNL     1       3.131  -2.959   1.595  0.00  0.00    -0.275 OA
ATOM     11  C   UNL     1       5.753  -3.529   4.911  0.00  0.00    +0.006 A 
ATOM     12  C   UNL     1       6.042  -2.899   6.101  0.00  0.00    +0.046 A 
ATOM     13  C   UNL     1       6.136  -3.635   7.271  0.00  0.00    +0.124 A 
ATOM     14  C   UNL     1       5.939  -5.005   7.239  0.00  0.00    +0.040 A 
ATOM     15  C   UNL     1       5.649  -5.639   6.048  0.00  0.00    +0.026 A 
ATOM     16  C   UNL     1       5.552  -4.906   4.869  0.00  0.00    +0.039 A 
ATOM     17  N   UNL     1       5.275  -5.313   3.561  0.00  0.00    -0.283 N 
ATOM     18  C   UNL     1       5.275  -4.280   2.696  0.00  0.00    +0.243 C 
ATOM     19  O   UNL     1       5.067  -4.334   1.503  0.00  0.00    -0.273 OA
ATOM     20  F   UNL     1       6.421  -3.018   8.439  0.00  0.00    -0.205 F 
ATOM     21  H   UNL     1       6.833  -2.378   1.999  0.00  0.00    +0.124 HD
ATOM     22  H   UNL     1       5.102  -6.232   3.305  0.00  0.00    +0.155 HD
ENDROOT
BRANCH   1  23
ATOM     23  C   UNL     1       3.711  -0.707  -0.038  0.00  0.00    +0.151 C 
BRANCH  23  27
ATOM     24  C   UNL     1      -0.017   1.378   0.010  0.00  0.00    +0.000 A 
ATOM     25  C   UNL     1       1.171   2.086   0.002  0.00  0.00    +0.000 A 
ATOM     26  C   UNL     1       2.377   1.411  -0.013  0.00  0.00    +0.005 A 
ATOM     27  C   UNL     1       2.396   0.029  -0.020  0.00  0.00    -0.030 A 
ATOM     28  C   UNL     1       1.208  -0.679  -0.012  0.00  0.00    +0.005 A 
ATOM     29  C   UNL     1       0.002  -0.004   0.002  0.00  0.00    +0.000 A 
ENDBRANCH  23  27
ENDBRANCH   1  23
BRANCH   5  30
ATOM     30  C   UNL     1       7.524  -0.024   2.686  0.00  0.00    +0.056 C 
BRANCH  30  31
ATOM     31  C   UNL     1       8.987  -0.301   2.920  0.00  0.00    -0.021 A 
ATOM     32  C   UNL     1       9.787   0.324   3.798  0.00  0.00    +0.087 A 
ATOM     33  N   UNL     1      11.051  -0.196   3.730  0.00  0.00    -0.360 N 
ATOM     34  H   UNL     1      11.803   0.095   4.269  0.00  0.00    +0.165 HD
ATOM     35  C   UNL     1      11.096  -1.194   2.782  0.00  0.00    +0.047 A 
ATOM     36  C   UNL     1       9.804  -1.308   2.238  0.00  0.00    +0.003 A 
ATOM     37  C   UNL     1       9.547  -2.256   1.246  0.00  0.00    +0.010 A 
ATOM     38  C   UNL     1      10.553  -3.071   0.810  0.00  0.00    +0.001 A 
ATOM     39  C   UNL     1      11.829  -2.965   1.347  0.00  0.00    +0.002 A 
ATOM     40  C   UNL     1      12.107  -2.031   2.320  0.00  0.00    +0.026 A 
ENDBRANCH  30  31
ENDBRANCH   5  30
TORSDOF 4
