REMARK  Name = ZINC41584853
REMARK  8 active torsions:
REMARK  status: ('A' for Active; 'I' for Inactive)
REMARK    1  A    between atoms: C_1  and  C_2
REMARK    2  A    between atoms: C_6  and  C_8
REMARK    3  A    between atoms: C_13  and  C_34
REMARK    4  A    between atoms: C_15  and  O_33
REMARK    5  A    between atoms: C_16  and  C_19
REMARK    6  A    between atoms: C_19  and  N_20
REMARK    7  A    between atoms: N_23  and  C_26
REMARK    8  A    between atoms: C_26  and  C_27
REMARK                            x       y       z     vdW  Elec       q    Type
REMARK                         _______ _______ _______ _____ _____    ______ ____
ROOT
ATOM      1  C   UNL     1       0.052  -2.845   2.448  0.00  0.00    +0.058 C 
ATOM      2  C   UNL     1      -0.032  -4.199   2.437  0.00  0.00    +0.176 C 
ATOM      3  C   UNL     1      -0.137  -5.073   3.616  0.00  0.00    +0.232 C 
ATOM      4  O   UNL     1      -0.168  -4.744   4.789  0.00  0.00    -0.283 OA
ATOM      5  C   UNL     1      -0.199  -6.437   3.060  0.00  0.00    +0.071 A 
ATOM      6  C   UNL     1      -0.303  -7.701   3.641  0.00  0.00    -0.033 A 
ATOM      7  C   UNL     1      -0.338  -8.814   2.850  0.00  0.00    +0.050 A 
ATOM      8  C   UNL     1      -0.270  -8.689   1.465  0.00  0.00    +0.122 A 
ATOM      9  C   UNL     1      -0.167  -7.441   0.874  0.00  0.00    +0.020 A 
ATOM     10  C   UNL     1      -0.130  -6.299   1.664  0.00  0.00    +0.145 A 
ATOM     11  O   UNL     1      -0.039  -4.991   1.339  0.00  0.00    -0.451 OA
ATOM     12  C   UNL     1      -0.376  -7.839   5.140  0.00  0.00    +0.045 C 
ENDROOT
BRANCH   1  18
ATOM     13  C   UNL     1      -0.076   1.502   0.012  0.00  0.00    +0.044 C 
ATOM     14  C   UNL     1      -0.030  -0.004   0.003  0.00  0.00    -0.050 A 
ATOM     15  C   UNL     1      -0.008  -0.687  -1.201  0.00  0.00    +0.003 A 
ATOM     16  C   UNL     1       0.035  -2.070  -1.220  0.00  0.00    +0.001 A 
ATOM     17  C   UNL     1       0.054  -2.780  -0.038  0.00  0.00    +0.008 A 
ATOM     18  C   UNL     1       0.032  -2.097   1.183  0.00  0.00    -0.021 A 
ATOM     19  C   UNL     1      -0.005  -0.698   1.194  0.00  0.00    +0.011 A 
ENDBRANCH   1  18
BRANCH   8  20
ATOM     20  O   UNL     1      -0.305  -9.801   0.687  0.00  0.00    -0.506 OA
ATOM     21  H   UNL     1      -1.196 -10.069   0.423  0.00  0.00    +0.292 HD
ENDBRANCH   8  20
BRANCH   9  22
ATOM     22  C   UNL     1      -0.093  -7.321  -0.627  0.00  0.00    -0.035 C 
BRANCH  22  23
ATOM     23  N   UNL     1      -1.451  -7.196  -1.175  0.00  0.00    +0.384 N 
ATOM     24  C   UNL     1      -2.198  -8.435  -0.918  0.00  0.00    -0.063 C 
ATOM     25  C   UNL     1      -3.617  -8.298  -1.472  0.00  0.00    +0.066 C 
ATOM     26  N   UNL     1      -3.553  -8.035  -2.917  0.00  0.00    -0.302 NA
ATOM     27  C   UNL     1      -2.787  -6.811  -3.191  0.00  0.00    +0.066 C 
ATOM     28  C   UNL     1      -1.374  -6.960  -2.623  0.00  0.00    -0.063 C 
ATOM     29  H   UNL     1      -1.922  -6.422  -0.732  0.00  0.00    -0.081 HD
BRANCH  26  30
ATOM     30  C   UNL     1      -4.900  -7.954  -3.498  0.00  0.00    +0.119 C 
BRANCH  30  31
ATOM     31  C   UNL     1      -4.798  -7.930  -5.001  0.00  0.00    -0.033 A 
ATOM     32  C   UNL     1      -4.684  -6.724  -5.667  0.00  0.00    +0.005 A 
ATOM     33  C   UNL     1      -4.591  -6.702  -7.046  0.00  0.00    +0.000 A 
ATOM     34  C   UNL     1      -4.611  -7.886  -7.759  0.00  0.00    +0.000 A 
ATOM     35  C   UNL     1      -4.725  -9.092  -7.093  0.00  0.00    +0.000 A 
ATOM     36  C   UNL     1      -4.814  -9.114  -5.714  0.00  0.00    +0.005 A 
ENDBRANCH  30  31
ENDBRANCH  26  30
ENDBRANCH  22  23
ENDBRANCH   9  22
TORSDOF 6
