REMARK  Name = ZINC39694078
REMARK  7 active torsions:
REMARK  status: ('A' for Active; 'I' for Inactive)
REMARK    1  A    between atoms: N_4  and  C_6
REMARK    2  A    between atoms: C_10  and  C_12
REMARK    3  A    between atoms: C_12  and  N_13
REMARK    4  A    between atoms: C_14  and  C_16
REMARK    5  A    between atoms: C_27  and  C_29
REMARK    6  A    between atoms: C_32  and  O_35
REMARK    7  A    between atoms: O_35  and  C_36
REMARK                            x       y       z     vdW  Elec       q    Type
REMARK                         _______ _______ _______ _____ _____    ______ ____
ROOT
ATOM      1  C   UNL     1      -0.844  -7.367   2.626  0.00  0.00    +0.100 C 
ATOM      2  C   UNL     1       0.268  -7.834   3.593  0.00  0.00    +0.121 C 
ATOM      3  N   UNL     1      -0.381  -8.858   4.444  0.00  0.00    -0.296 N 
ATOM      4  C   UNL     1      -1.253  -9.613   3.513  0.00  0.00    +0.115 C 
ATOM      5  C   UNL     1      -1.840  -8.538   2.576  0.00  0.00    -0.004 C 
ATOM      6  C   UNL     1      -1.946  -9.080   1.153  0.00  0.00    -0.010 C 
ATOM      7  C   UNL     1      -2.985 -10.204   1.117  0.00  0.00    -0.082 C 
ATOM      8  N   UNL     1      -4.285  -9.687   1.564  0.00  0.00    +0.379 N 
ATOM      9  C   UNL     1      -4.196  -9.254   2.963  0.00  0.00    -0.082 C 
ATOM     10  C   UNL     1      -3.208  -8.089   3.078  0.00  0.00    -0.010 C 
ATOM     11  C   UNL     1      -0.217  -9.058   5.767  0.00  0.00    +0.247 C 
ATOM     12  O   UNL     1       0.438  -8.272   6.424  0.00  0.00    -0.270 OA
ATOM     13  H   UNL     1      -4.550  -8.903   0.987  0.00  0.00    -0.086 HD
ATOM     14  H   UNL     1      -4.981 -10.413   1.481  0.00  0.00    -0.086 HD
ENDROOT
BRANCH  11  15
ATOM     15  C   UNL     1      -0.832 -10.231   6.418  0.00  0.00    +0.037 A 
ATOM     16  C   UNL     1      -1.200 -11.343   5.656  0.00  0.00    +0.016 A 
ATOM     17  C   UNL     1      -1.773 -12.436   6.267  0.00  0.00    +0.047 A 
ATOM     18  C   UNL     1      -1.987 -12.433   7.641  0.00  0.00    +0.130 A 
ATOM     19  C   UNL     1      -1.623 -11.329   8.402  0.00  0.00    +0.047 A 
ATOM     20  C   UNL     1      -1.043 -10.235   7.799  0.00  0.00    +0.016 A 
BRANCH  18  21
ATOM     21  O   UNL     1      -2.553 -13.512   8.239  0.00  0.00    -0.406 OA
BRANCH  21  22
ATOM     22  C   UNL     1      -2.744 -13.443   9.654  0.00  0.00    +0.575 C 
ATOM     23  F   UNL     1      -3.578 -12.362   9.960  0.00  0.00    -0.133 F 
ATOM     24  F   UNL     1      -3.333 -14.629  10.103  0.00  0.00    -0.133 F 
ATOM     25  F   UNL     1      -1.506 -13.270  10.283  0.00  0.00    -0.133 F 
ENDBRANCH  21  22
ENDBRANCH  18  21
ENDBRANCH  11  15
BRANCH   1  27
ATOM     26  N   UNL     1      -0.832  -6.173   0.460  0.00  0.00    -0.311 N 
ATOM     27  C   UNL     1      -0.272  -7.105   1.257  0.00  0.00    +0.218 C 
ATOM     28  O   UNL     1       0.691  -7.733   0.871  0.00  0.00    -0.275 OA
ATOM     29  H   UNL     1      -1.603  -5.671   0.768  0.00  0.00    +0.149 HD
BRANCH  26  30
ATOM     30  C   UNL     1      -0.277  -5.918  -0.871  0.00  0.00    +0.139 C 
BRANCH  30  35
ATOM     31  C   UNL     1      -2.910  -4.182  -2.953  0.00  0.00    +0.046 A 
ATOM     32  C   UNL     1      -2.546  -2.850  -2.800  0.00  0.00    +0.026 A 
ATOM     33  C   UNL     1      -1.452  -2.519  -2.025  0.00  0.00    +0.002 A 
ATOM     34  C   UNL     1      -0.719  -3.513  -1.401  0.00  0.00    +0.005 A 
ATOM     35  C   UNL     1      -1.079  -4.839  -1.552  0.00  0.00    -0.028 A 
ATOM     36  C   UNL     1      -2.175  -5.176  -2.321  0.00  0.00    +0.031 A 
BRANCH  31  40
ATOM     37  C   UNL     1      -5.561  -5.706  -4.765  0.00  0.00    +0.019 A 
ATOM     38  C   UNL     1      -5.777  -4.343  -5.049  0.00  0.00    +0.019 A 
ATOM     39  C   UNL     1      -4.821  -3.640  -4.409  0.00  0.00    +0.091 A 
ATOM     40  N   UNL     1      -4.020  -4.521  -3.739  0.00  0.00    -0.323 N 
ATOM     41  C   UNL     1      -4.481  -5.787  -3.962  0.00  0.00    +0.091 A 
ENDBRANCH  31  40
ENDBRANCH  30  35
ENDBRANCH  26  30
ENDBRANCH   1  27
TORSDOF 7
