REMARK  Name = ZINC63003196
REMARK  5 active torsions:
REMARK  status: ('A' for Active; 'I' for Inactive)
REMARK    1  A    between atoms: C_1  and  C_2
REMARK    2  A    between atoms: C_4  and  C_17
REMARK    3  A    between atoms: C_8  and  C_11
REMARK    4  A    between atoms: C_20  and  O_23
REMARK    5  A    between atoms: O_23  and  C_24
REMARK                            x       y       z     vdW  Elec       q    Type
REMARK                         _______ _______ _______ _____ _____    ______ ____
ROOT
ATOM      1  C   UNL     1      -0.019   1.526   0.010  0.00  0.00    +0.027 C 
ATOM      2  C   UNL     1       0.002  -0.004   0.002  0.00  0.00    +0.084 C 
ATOM      3  C   UNL     1      -1.434  -0.535   0.015  0.00  0.00    +0.165 C 
ATOM      4  O   UNL     1      -1.408  -1.963   0.083  0.00  0.00    -0.369 OA
ATOM      5  C   UNL     1      -0.727  -2.473   1.232  0.00  0.00    +0.184 C 
ATOM      6  C   UNL     1       0.717  -1.962   1.232  0.00  0.00    +0.110 C 
ATOM      7  N   UNL     1       0.711  -0.492   1.194  0.00  0.00    -0.302 NA
ATOM      8  H   UNL     1       1.650  -0.125   1.231  0.00  0.00    +0.123 HD
ENDROOT
BRANCH   6   9
ATOM      9  C   UNL     1       1.417  -2.431   2.480  0.00  0.00    -0.028 A 
ATOM     10  C   UNL     1       1.215  -1.770   3.677  0.00  0.00    +0.005 A 
ATOM     11  C   UNL     1       1.858  -2.200   4.822  0.00  0.00    +0.000 A 
ATOM     12  C   UNL     1       2.703  -3.293   4.771  0.00  0.00    +0.000 A 
ATOM     13  C   UNL     1       2.904  -3.955   3.575  0.00  0.00    +0.000 A 
ATOM     14  C   UNL     1       2.258  -3.527   2.430  0.00  0.00    +0.005 A 
ENDBRANCH   6   9
BRANCH   3  15
ATOM     15  C   UNL     1      -2.142  -0.103  -1.243  0.00  0.00    -0.017 A 
ATOM     16  C   UNL     1      -2.020  -0.855  -2.397  0.00  0.00    +0.010 A 
ATOM     17  C   UNL     1      -2.668  -0.461  -3.551  0.00  0.00    +0.046 A 
ATOM     18  C   UNL     1      -3.440   0.691  -3.553  0.00  0.00    +0.120 A 
ATOM     19  C   UNL     1      -3.561   1.444  -2.394  0.00  0.00    +0.046 A 
ATOM     20  C   UNL     1      -2.916   1.043  -1.241  0.00  0.00    +0.010 A 
BRANCH  18  21
ATOM     21  O   UNL     1      -4.078   1.081  -4.688  0.00  0.00    -0.495 OA
ATOM     22  C   UNL     1      -4.856   2.278  -4.617  0.00  0.00    +0.277 C 
ENDBRANCH  18  21
ENDBRANCH   3  15
TORSDOF 3
