REMARK  Name = ZINC43210904
REMARK  9 active torsions:
REMARK  status: ('A' for Active; 'I' for Inactive)
REMARK    1  A    between atoms: C_1  and  C_2
REMARK    2  A    between atoms: C_2  and  C_3
REMARK    3  A    between atoms: C_6  and  N_9
REMARK    4  A    between atoms: C_14  and  C_26
REMARK    5  A    between atoms: N_16  and  C_22
REMARK    6  A    between atoms: C_22  and  C_23
REMARK    7  A    between atoms: C_28  and  C_34
REMARK    8  A    between atoms: C_29  and  O_33
REMARK    9  A    between atoms: C_30  and  C_32
REMARK                            x       y       z     vdW  Elec       q    Type
REMARK                         _______ _______ _______ _____ _____    ______ ____
ROOT
ATOM      1  N   UNL     1       2.659  -1.835  -4.668  0.00  0.00    -0.208 N 
ATOM      2  C   UNL     1       4.007  -2.079  -4.728  0.00  0.00    +0.234 C 
ATOM      3  O   UNL     1       4.785  -2.162  -3.802  0.00  0.00    -0.274 OA
ATOM      4  C   UNL     1       4.296  -2.216  -6.136  0.00  0.00    +0.139 C 
ATOM      5  C   UNL     1       5.325  -2.809  -7.008  0.00  0.00    +0.130 C 
ATOM      6  N   UNL     1       4.587  -2.984  -8.305  0.00  0.00    -0.170 NA
ATOM      7  O   UNL     1       3.172  -2.576  -8.057  0.00  0.00    -0.282 OA
ATOM      8  C   UNL     1       2.980  -2.908  -6.669  0.00  0.00    +0.242 C 
ATOM      9  C   UNL     1       2.023  -2.085  -5.849  0.00  0.00    +0.258 C 
ATOM     10  O   UNL     1       0.915  -1.717  -6.174  0.00  0.00    -0.272 OA
ENDROOT
BRANCH   5  11
ATOM     11  C   UNL     1       5.786  -4.137  -6.466  0.00  0.00    -0.026 A 
ATOM     12  C   UNL     1       5.028  -5.273  -6.684  0.00  0.00    +0.012 A 
ATOM     13  C   UNL     1       5.448  -6.491  -6.187  0.00  0.00    -0.008 A 
ATOM     14  C   UNL     1       6.633  -6.575  -5.470  0.00  0.00    +0.123 A 
ATOM     15  C   UNL     1       7.392  -5.435  -5.253  0.00  0.00    -0.008 A 
ATOM     16  C   UNL     1       6.970  -4.219  -5.756  0.00  0.00    +0.012 A 
ATOM     17  C   UNL     1       8.679  -5.523  -4.474  0.00  0.00    +0.047 C 
ATOM     18  C   UNL     1       4.621  -7.728  -6.425  0.00  0.00    +0.047 C 
BRANCH  14  19
ATOM     19  O   UNL     1       7.048  -7.773  -4.980  0.00  0.00    -0.506 OA
ATOM     20  H   UNL     1       7.611  -8.272  -5.588  0.00  0.00    +0.292 HD
ENDBRANCH  14  19
ENDBRANCH   5  11
BRANCH   1  24
ATOM     21  C   UNL     1       0.707  -0.490  -1.238  0.00  0.00    -0.048 A 
ATOM     22  C   UNL     1      -0.012  -0.718  -2.397  0.00  0.00    +0.005 A 
ATOM     23  C   UNL     1       0.632  -1.163  -3.534  0.00  0.00    +0.024 A 
ATOM     24  C   UNL     1       2.002  -1.382  -3.514  0.00  0.00    +0.044 A 
ATOM     25  C   UNL     1       2.722  -1.152  -2.350  0.00  0.00    +0.024 A 
ATOM     26  C   UNL     1       2.074  -0.702  -1.216  0.00  0.00    +0.005 A 
BRANCH  21  28
ATOM     27  C   UNL     1      -0.019   1.526   0.010  0.00  0.00    +0.009 C 
ATOM     28  C   UNL     1       0.002  -0.004   0.002  0.00  0.00    +0.032 C 
ENDBRANCH  21  28
ENDBRANCH   1  24
BRANCH   6  29
ATOM     29  C   UNL     1       5.190  -2.170  -9.369  0.00  0.00    +0.210 C 
BRANCH  29  30
ATOM     30  C   UNL     1       4.503  -2.464 -10.677  0.00  0.00    +0.227 C 
ATOM     31  O   UNL     1       3.600  -3.272 -10.720  0.00  0.00    -0.275 OA
ATOM     32  N   UNL     1       4.893  -1.829 -11.800  0.00  0.00    -0.328 N 
ATOM     33  H   UNL     1       5.615  -1.182 -11.766  0.00  0.00    +0.145 HD
ATOM     34  H   UNL     1       4.450  -2.018 -12.643  0.00  0.00    +0.145 HD
ENDBRANCH  29  30
ENDBRANCH   6  29
TORSDOF 6
