REMARK  Name = ZINC37361218
REMARK  12 active torsions:
REMARK  status: ('A' for Active; 'I' for Inactive)
REMARK    1  A    between atoms: C_1  and  C_2
REMARK    2  A    between atoms: C_2  and  C_3
REMARK    3  A    between atoms: C_2  and  C_4
REMARK    4  A    between atoms: C_4  and  N_5
REMARK    5  A    between atoms: C_8  and  C_25
REMARK    6  A    between atoms: C_10  and  N_24
REMARK    7  A    between atoms: N_11  and  C_15
REMARK    8  A    between atoms: C_18  and  C_21
REMARK    9  A    between atoms: C_21  and  C_22
REMARK   10  A    between atoms: C_21  and  C_23
REMARK   11  A    between atoms: C_29  and  O_31
REMARK   12  A    between atoms: O_31  and  C_32
REMARK                            x       y       z     vdW  Elec       q    Type
REMARK                         _______ _______ _______ _____ _____    ______ ____
ROOT
ATOM      1  N   UNL     1      -1.548  -1.905  -0.926  0.00  0.00    -0.313 N 
ATOM      2  C   UNL     1      -2.675  -2.647  -0.622  0.00  0.00    +0.218 A 
ATOM      3  N   UNL     1      -2.619  -3.966  -0.776  0.00  0.00    -0.214 NA
ATOM      4  C   UNL     1      -3.653  -4.753  -0.507  0.00  0.00    +0.089 A 
ATOM      5  C   UNL     1      -4.846  -4.155  -0.043  0.00  0.00    +0.086 A 
ATOM      6  C   UNL     1      -6.104  -4.607   0.335  0.00  0.00    +0.131 A 
ATOM      7  N   UNL     1      -6.832  -3.530   0.691  0.00  0.00    -0.216 N 
ATOM      8  N   UNL     1      -6.063  -2.369   0.551  0.00  0.00    -0.144 NA
ATOM      9  C   UNL     1      -4.865  -2.689   0.114  0.00  0.00    +0.189 A 
ATOM     10  N   UNL     1      -3.743  -2.008  -0.190  0.00  0.00    -0.193 NA
ATOM     11  H   UNL     1      -0.747  -2.348  -1.247  0.00  0.00    +0.149 HD
ENDROOT
BRANCH   7  12
ATOM     12  C   UNL     1      -8.159  -3.567   1.135  0.00  0.00    +0.068 A 
ATOM     13  C   UNL     1      -9.043  -4.502   0.610  0.00  0.00    +0.028 A 
ATOM     14  C   UNL     1     -10.351  -4.536   1.049  0.00  0.00    +0.006 A 
ATOM     15  C   UNL     1     -10.783  -3.640   2.010  0.00  0.00    -0.045 A 
ATOM     16  C   UNL     1      -9.906  -2.708   2.535  0.00  0.00    +0.006 A 
ATOM     17  C   UNL     1      -8.595  -2.673   2.104  0.00  0.00    +0.028 A 
BRANCH  15  18
ATOM     18  C   UNL     1     -12.212  -3.679   2.487  0.00  0.00    +0.013 C 
ATOM     19  C   UNL     1     -12.241  -3.950   3.992  0.00  0.00    +0.012 C 
ATOM     20  C   UNL     1     -12.883  -2.335   2.198  0.00  0.00    +0.012 C 
ENDBRANCH  15  18
ENDBRANCH   7  12
BRANCH   4  21
ATOM     21  C   UNL     1      -3.560  -6.219  -0.690  0.00  0.00    +0.005 A 
ATOM     22  C   UNL     1      -4.581  -6.910  -1.344  0.00  0.00    +0.010 A 
ATOM     23  C   UNL     1      -4.491  -8.276  -1.512  0.00  0.00    +0.004 A 
ATOM     24  C   UNL     1      -3.392  -8.965  -1.035  0.00  0.00    +0.045 A 
ATOM     25  C   UNL     1      -2.371  -8.287  -0.383  0.00  0.00    +0.121 A 
ATOM     26  C   UNL     1      -2.449  -6.914  -0.214  0.00  0.00    +0.055 A 
BRANCH  25  27
ATOM     27  O   UNL     1      -1.293  -8.968   0.086  0.00  0.00    -0.495 OA
ATOM     28  C   UNL     1      -1.276 -10.381  -0.128  0.00  0.00    +0.277 C 
ENDBRANCH  25  27
ENDBRANCH   4  21
BRANCH   6  29
ATOM     29  N   UNL     1      -6.532  -5.921   0.344  0.00  0.00    -0.342 N 
ATOM     30  H   UNL     1      -5.893  -6.640   0.218  0.00  0.00    +0.144 HD
ATOM     31  H   UNL     1      -7.471  -6.125   0.477  0.00  0.00    +0.144 HD
ENDBRANCH   6  29
BRANCH   1  32
ATOM     32  C   UNL     1      -1.565  -0.449  -0.765  0.00  0.00    +0.107 C 
BRANCH  32  34
ATOM     33  C   UNL     1      -0.260   1.652  -1.119  0.00  0.00    +0.009 C 
ATOM     34  C   UNL     1      -0.204   0.124  -1.167  0.00  0.00    -0.000 C 
ATOM     35  C   UNL     1       0.868  -0.378  -0.198  0.00  0.00    +0.009 C 
ENDBRANCH  32  34
ENDBRANCH   1  32
TORSDOF 7
