REMARK  Name = ZINC06272801
REMARK  7 active torsions:
REMARK  status: ('A' for Active; 'I' for Inactive)
REMARK    1  A    between atoms: C_1  and  C_2
REMARK    2  A    between atoms: C_3  and  C_26
REMARK    3  A    between atoms: C_4  and  C_18
REMARK    4  A    between atoms: C_6  and  C_16
REMARK    5  A    between atoms: C_12  and  C_14
REMARK    6  A    between atoms: C_19  and  C_20
REMARK    7  A    between atoms: C_26  and  C_28
REMARK                            x       y       z     vdW  Elec       q    Type
REMARK                         _______ _______ _______ _____ _____    ______ ____
ROOT
ATOM      1  C   UNL     1       0.340   1.454  -0.198  0.00  0.00    +0.039 C 
ATOM      2  C   UNL     1       0.196  -0.042  -0.099  0.00  0.00    -0.064 C 
ATOM      3  C   UNL     1      -0.180  -0.695  -1.179  0.00  0.00    +0.003 C 
ATOM      4  C   UNL     1      -0.311  -2.185  -1.226  0.00  0.00    +0.076 C 
ATOM      5  C   UNL     1      -0.231  -2.838   0.113  0.00  0.00    +0.173 C 
ATOM      6  C   UNL     1      -1.506  -2.973   0.892  0.00  0.00    +0.271 C 
ATOM      7  O   UNL     1      -2.746  -3.073   0.381  0.00  0.00    -0.269 OA
ATOM      8  N   UNL     1      -1.186  -2.977   2.160  0.00  0.00    -0.195 NA
ATOM      9  C   UNL     1       0.122  -2.764   2.412  0.00  0.00    +0.148 C 
ATOM     10  N   UNL     1       0.746  -2.999   3.526  0.00  0.00    -0.284 NA
ATOM     11  C   UNL     1       0.730  -2.188   1.120  0.00  0.00    +0.147 C 
ATOM     12  C   UNL     1       0.494  -0.681   1.214  0.00  0.00    +0.062 C 
ATOM     13  H   UNL     1       0.264  -3.365   4.284  0.00  0.00    +0.188 HD
ENDROOT
BRANCH   3  14
ATOM     14  C   UNL     1      -0.482   0.071  -2.388  0.00  0.00    +0.157 C 
ATOM     15  O   UNL     1      -1.449   0.803  -2.417  0.00  0.00    -0.293 OA
ATOM     16  C   UNL     1       0.408  -0.050  -3.599  0.00  0.00    +0.091 C 
ENDBRANCH   3  14
BRANCH  11  17
ATOM     17  C   UNL     1       2.139  -2.557   0.908  0.00  0.00    +0.080 C 
ATOM     18  N   UNL     1       3.227  -2.842   0.745  0.00  0.00    -0.195 NA
ENDBRANCH  11  17
BRANCH   5  19
ATOM     19  C   UNL     1       0.257  -4.209  -0.106  0.00  0.00    +0.082 C 
ATOM     20  N   UNL     1       0.633  -5.267  -0.275  0.00  0.00    -0.195 NA
ENDBRANCH   5  19
BRANCH   4  21
ATOM     21  C   UNL     1      -1.639  -2.532  -1.848  0.00  0.00    -0.016 C 
ATOM     22  C   UNL     1      -1.690  -3.356  -2.885  0.00  0.00    +0.004 C 
BRANCH  22  23
ATOM     23  C   UNL     1      -2.993  -3.696  -3.495  0.00  0.00    -0.025 A 
ATOM     24  C   UNL     1      -4.170  -3.146  -2.986  0.00  0.00    +0.008 A 
ATOM     25  C   UNL     1      -5.383  -3.468  -3.561  0.00  0.00    +0.001 A 
ATOM     26  C   UNL     1      -5.433  -4.333  -4.639  0.00  0.00    +0.000 A 
ATOM     27  C   UNL     1      -4.270  -4.882  -5.148  0.00  0.00    +0.001 A 
ATOM     28  C   UNL     1      -3.050  -4.564  -4.587  0.00  0.00    +0.008 A 
ENDBRANCH  22  23
ENDBRANCH   4  21
TORSDOF 5
