REMARK  Name = ZINC25489099
REMARK  6 active torsions:
REMARK  status: ('A' for Active; 'I' for Inactive)
REMARK    1  A    between atoms: C_1  and  C_2
REMARK    2  A    between atoms: C_2  and  C_3
REMARK    3  A    between atoms: C_4  and  C_31
REMARK    4  A    between atoms: C_14  and  C_30
REMARK    5  A    between atoms: C_15  and  C_19
REMARK    6  A    between atoms: C_19  and  C_20
REMARK                            x       y       z     vdW  Elec       q    Type
REMARK                         _______ _______ _______ _____ _____    ______ ____
ROOT
ATOM      1  C   UNL     1      -7.267  -2.278   3.406  0.00  0.00    +0.038 A 
ATOM      2  C   UNL     1      -7.827  -2.582   2.199  0.00  0.00    +0.050 A 
ATOM      3  N   UNL     1      -7.114  -2.455   1.082  0.00  0.00    -0.221 NA
ATOM      4  C   UNL     1      -5.864  -2.039   1.109  0.00  0.00    +0.201 A 
ATOM      5  N   UNL     1      -5.253  -1.722   2.283  0.00  0.00    -0.295 N 
ATOM      6  H   UNL     1      -4.332  -1.417   2.285  0.00  0.00    +0.172 HD
ATOM      7  C   UNL     1      -5.936  -1.827   3.443  0.00  0.00    +0.256 A 
ATOM      8  O   UNL     1      -5.405  -1.542   4.504  0.00  0.00    -0.267 OA
ATOM      9  N   UNL     1      -5.166  -1.924  -0.066  0.00  0.00    -0.270 N 
ATOM     10  C   UNL     1      -5.739  -2.354  -1.261  0.00  0.00    +0.129 A 
ATOM     11  N   UNL     1      -6.998  -2.765  -1.275  0.00  0.00    -0.237 NA
ATOM     12  C   UNL     1      -7.582  -3.181  -2.383  0.00  0.00    +0.047 A 
ATOM     13  C   UNL     1      -6.896  -3.204  -3.579  0.00  0.00    +0.025 A 
ATOM     14  C   UNL     1      -5.568  -2.781  -3.611  0.00  0.00    +0.187 A 
ATOM     15  O   UNL     1      -4.863  -2.790  -4.771  0.00  0.00    -0.287 OA
ATOM     16  C   UNL     1      -4.985  -2.344  -2.427  0.00  0.00    +0.095 A 
ATOM     17  C   UNL     1      -9.017  -3.638  -2.341  0.00  0.00    +0.066 C 
ATOM     18  C   UNL     1      -9.254  -3.061   2.130  0.00  0.00    +0.066 C 
ATOM     19  H   UNL     1      -4.275  -1.542  -0.066  0.00  0.00    +0.156 HD
ENDROOT
BRANCH   1  21
ATOM     20  C   UNL     1      -7.781  -3.781   5.310  0.00  0.00    +0.009 C 
ATOM     21  C   UNL     1      -8.065  -2.418   4.677  0.00  0.00    +0.039 C 
ENDBRANCH   1  21
BRANCH  13  22
ATOM     22  C   UNL     1      -7.574  -3.682  -4.837  0.00  0.00    +0.076 C 
BRANCH  22  23
ATOM     23  C   UNL     1      -8.172  -2.505  -5.564  0.00  0.00    -0.035 A 
ATOM     24  C   UNL     1      -8.152  -1.268  -4.996  0.00  0.00    +0.004 A 
ATOM     25  C   UNL     1      -8.700  -0.168  -5.652  0.00  0.00    +0.001 A 
ATOM     26  C   UNL     1      -9.272  -0.299  -6.880  0.00  0.00    +0.008 A 
ATOM     27  C   UNL     1      -9.312  -1.560  -7.498  0.00  0.00    -0.018 A 
ATOM     28  C   UNL     1      -8.749  -2.678  -6.833  0.00  0.00    -0.014 A 
ATOM     29  C   UNL     1      -8.783  -3.938  -7.454  0.00  0.00    +0.009 A 
ATOM     30  C   UNL     1      -9.350  -4.067  -8.684  0.00  0.00    +0.001 A 
ATOM     31  C   UNL     1      -9.898  -2.967  -9.341  0.00  0.00    +0.001 A 
ATOM     32  C   UNL     1      -9.895  -1.734  -8.765  0.00  0.00    +0.008 A 
ENDBRANCH  22  23
ENDBRANCH  13  22
TORSDOF 3
