REMARK  Name = ZINC52953837
REMARK  7 active torsions:
REMARK  status: ('A' for Active; 'I' for Inactive)
REMARK    1  A    between atoms: C_1  and  C_2
REMARK    2  A    between atoms: C_2  and  N_3
REMARK    3  A    between atoms: C_11  and  C_12
REMARK    4  A    between atoms: C_12  and  N_13
REMARK    5  A    between atoms: C_14  and  C_16
REMARK    6  A    between atoms: C_16  and  N_17
REMARK    7  A    between atoms: C_23  and  C_26
REMARK                            x       y       z     vdW  Elec       q    Type
REMARK                         _______ _______ _______ _____ _____    ______ ____
ROOT
ATOM      1  N   UNL     1       3.158  -1.808   0.522  0.00  0.00    -0.307 N 
ATOM      2  C   UNL     1       4.015  -1.891   1.559  0.00  0.00    +0.231 C 
ATOM      3  O   UNL     1       4.685  -0.930   1.870  0.00  0.00    -0.274 OA
ATOM      4  H   UNL     1       2.621  -2.577   0.273  0.00  0.00    +0.149 HD
ENDROOT
BRANCH   1   5
ATOM      5  C   UNL     1       3.036  -0.556  -0.229  0.00  0.00    +0.178 C 
BRANCH   5  14
ATOM      6  N   UNL     1       0.688  -0.476  -1.203  0.00  0.00    -0.327 N 
ATOM      7  C   UNL     1       0.103  -0.745  -2.425  0.00  0.00    +0.069 A 
ATOM      8  C   UNL     1      -1.195  -0.677  -2.912  0.00  0.00    +0.028 A 
ATOM      9  C   UNL     1      -1.453  -1.026  -4.220  0.00  0.00    +0.002 A 
ATOM     10  C   UNL     1      -0.424  -1.444  -5.053  0.00  0.00    +0.002 A 
ATOM     11  C   UNL     1       0.859  -1.517  -4.591  0.00  0.00    +0.030 A 
ATOM     12  C   UNL     1       1.145  -1.168  -3.268  0.00  0.00    +0.089 A 
ATOM     13  N   UNL     1       2.286  -1.136  -2.534  0.00  0.00    -0.231 NA
ATOM     14  C   UNL     1       2.019  -0.726  -1.328  0.00  0.00    +0.128 A 
BRANCH   6  16
ATOM     15  C   UNL     1      -0.019   1.526   0.010  0.00  0.00    +0.027 C 
ATOM     16  C   UNL     1       0.002  -0.004   0.002  0.00  0.00    +0.120 C 
ENDBRANCH   6  16
ENDBRANCH   5  14
ENDBRANCH   1   5
BRANCH   2  17
ATOM     17  C   UNL     1       4.139  -3.179   2.332  0.00  0.00    +0.213 C 
BRANCH  17  18
ATOM     18  N   UNL     1       5.128  -3.014   3.400  0.00  0.00    -0.215 N 
ATOM     19  C   UNL     1       6.447  -3.261   3.258  0.00  0.00    +0.247 C 
ATOM     20  O   UNL     1       7.018  -3.648   2.261  0.00  0.00    -0.273 OA
ATOM     21  C   UNL     1       7.062  -2.954   4.604  0.00  0.00    +0.113 C 
ATOM     22  C   UNL     1       8.080  -1.826   4.478  0.00  0.00    +0.035 C 
ATOM     23  C   UNL     1       8.669  -1.511   5.856  0.00  0.00    +0.006 C 
ATOM     24  C   UNL     1       9.339  -2.765   6.422  0.00  0.00    -0.014 C 
ATOM     25  C   UNL     1       8.301  -3.880   6.564  0.00  0.00    +0.006 C 
ATOM     26  C   UNL     1       7.711  -4.204   5.189  0.00  0.00    +0.035 C 
ATOM     27  C   UNL     1       9.937  -2.447   7.794  0.00  0.00    +0.007 C 
ATOM     28  N   UNL     1       5.923  -2.531   5.429  0.00  0.00    -0.285 N 
ATOM     29  C   UNL     1       4.836  -2.593   4.637  0.00  0.00    +0.310 C 
ATOM     30  O   UNL     1       3.714  -2.303   5.005  0.00  0.00    -0.252 OA
ATOM     31  H   UNL     1       5.950  -2.257   6.359  0.00  0.00    +0.151 HD
ENDBRANCH  17  18
ENDBRANCH   2  17
TORSDOF 5
