REMARK  Name = ZINC64688050
REMARK  6 active torsions:
REMARK  status: ('A' for Active; 'I' for Inactive)
REMARK    1  A    between atoms: C_1  and  C_2
REMARK    2  A    between atoms: C_5  and  C_9
REMARK    3  A    between atoms: C_6  and  C_8
REMARK    4  A    between atoms: C_11  and  C_15
REMARK    5  A    between atoms: C_18  and  C_27
REMARK    6  A    between atoms: C_18  and  O_31
REMARK                            x       y       z     vdW  Elec       q    Type
REMARK                         _______ _______ _______ _____ _____    ______ ____
ROOT
ATOM      1  C   UNL     1      -0.693  -7.285   0.728  0.00  0.00    +0.268 C 
ATOM      2  O   UNL     1      -1.668  -7.397   0.014  0.00  0.00    -0.271 OA
ATOM      3  N   UNL     1      -0.647  -7.929   1.910  0.00  0.00    -0.150 N 
ATOM      4  C   UNL     1      -1.702  -8.804   2.455  0.00  0.00    +0.259 C 
ATOM      5  C   UNL     1      -1.067  -9.361   3.737  0.00  0.00    +0.096 C 
ATOM      6  C   UNL     1      -1.908  -9.027   4.971  0.00  0.00    +0.014 C 
ATOM      7  C   UNL     1      -1.073  -9.320   6.222  0.00  0.00    +0.001 C 
ATOM      8  C   UNL     1       0.139  -8.393   6.303  0.00  0.00    +0.006 C 
ATOM      9  C   UNL     1       1.081  -8.649   5.115  0.00  0.00    +0.053 C 
ATOM     10  C   UNL     1       0.241  -8.592   3.852  0.00  0.00    +0.045 C 
ATOM     11  N   UNL     1       0.411  -7.885   2.820  0.00  0.00    -0.183 NA
ENDROOT
BRANCH   1  14
ATOM     12  C   UNL     1       0.291  -4.199  -0.051  0.00  0.00    +0.092 C 
ATOM     13  C   UNL     1       0.411  -5.068   0.971  0.00  0.00    +0.041 C 
ATOM     14  C   UNL     1       0.465  -6.425   0.292  0.00  0.00    +0.240 C 
ATOM     15  N   UNL     1       0.359  -6.089  -1.138  0.00  0.00    -0.170 NA
ATOM     16  N   UNL     1       0.262  -4.864  -1.236  0.00  0.00    -0.153 NA
BRANCH  12  21
ATOM     17  C   UNL     1      -0.070   1.520   0.521  0.00  0.00    +0.044 C 
ATOM     18  C   UNL     1       0.024   0.023   0.371  0.00  0.00    -0.050 A 
ATOM     19  C   UNL     1      -0.885  -0.793   1.020  0.00  0.00    +0.004 A 
ATOM     20  C   UNL     1      -0.803  -2.164   0.887  0.00  0.00    +0.010 A 
ATOM     21  C   UNL     1       0.198  -2.726   0.096  0.00  0.00    +0.005 A 
ATOM     22  C   UNL     1       1.111  -1.899  -0.556  0.00  0.00    -0.041 A 
ATOM     23  C   UNL     1       1.016  -0.529  -0.419  0.00  0.00    +0.007 A 
ATOM     24  C   UNL     1       2.195  -2.499  -1.412  0.00  0.00    +0.044 C 
ENDBRANCH  12  21
ENDBRANCH   1  14
BRANCH   4  25
ATOM     25  C   UNL     1      -2.958  -7.995   2.782  0.00  0.00    +0.438 C 
ATOM     26  F   UNL     1      -3.524  -7.512   1.597  0.00  0.00    -0.166 F 
ATOM     27  F   UNL     1      -3.882  -8.814   3.440  0.00  0.00    -0.166 F 
ATOM     28  F   UNL     1      -2.618  -6.919   3.609  0.00  0.00    -0.166 F 
ENDBRANCH   4  25
BRANCH   4  29
ATOM     29  O   UNL     1      -2.003  -9.860   1.541  0.00  0.00    -0.363 OA
ATOM     30  H   UNL     1      -2.338  -9.557   0.686  0.00  0.00    +0.212 HD
ENDBRANCH   4  29
TORSDOF 4
