REMARK  Name = ZINC63340095
REMARK  8 active torsions:
REMARK  status: ('A' for Active; 'I' for Inactive)
REMARK    1  A    between atoms: C_1  and  C_2
REMARK    2  A    between atoms: C_4  and  N_18
REMARK    3  A    between atoms: C_6  and  C_17
REMARK    4  A    between atoms: N_8  and  C_10
REMARK    5  A    between atoms: C_10  and  C_11
REMARK    6  A    between atoms: C_19  and  C_21
REMARK    7  A    between atoms: C_21  and  S_22
REMARK    8  A    between atoms: S_22  and  C_23
REMARK                            x       y       z     vdW  Elec       q    Type
REMARK                         _______ _______ _______ _____ _____    ______ ____
ROOT
ATOM      1  N   UNL     1       1.684   0.493  -1.742  0.00  0.00    -0.309 N 
ATOM      2  C   UNL     1       1.242   1.415  -2.620  0.00  0.00    +0.223 C 
ATOM      3  O   UNL     1       0.086   1.397  -2.988  0.00  0.00    -0.275 OA
ATOM      4  H   UNL     1       2.608   0.507  -1.448  0.00  0.00    +0.149 HD
ENDROOT
BRANCH   1   7
ATOM      5  C   UNL     1      -0.019   1.526   0.010  0.00  0.00    +0.027 C 
ATOM      6  C   UNL     1       0.002  -0.004   0.002  0.00  0.00    +0.088 C 
ATOM      7  C   UNL     1       0.768  -0.531  -1.233  0.00  0.00    +0.109 C 
ATOM      8  C   UNL     1       1.556  -1.748  -0.707  0.00  0.00    +0.092 C 
ATOM      9  N   UNL     1       1.201  -1.869   0.725  0.00  0.00    -0.234 NA
ATOM     10  N   UNL     1       0.790  -0.523   1.151  0.00  0.00    -0.249 NA
ATOM     11  C   UNL     1       1.143  -3.012  -1.464  0.00  0.00    +0.027 C 
ATOM     12  H   UNL     1       1.594   0.059   1.331  0.00  0.00    +0.141 HD
BRANCH   9  13
ATOM     13  C   UNL     1       2.347  -2.345   1.513  0.00  0.00    +0.137 C 
BRANCH  13  14
ATOM     14  C   UNL     1       1.916  -2.572   2.939  0.00  0.00    -0.032 A 
ATOM     15  C   UNL     1       1.998  -1.544   3.859  0.00  0.00    +0.005 A 
ATOM     16  C   UNL     1       1.603  -1.752   5.167  0.00  0.00    +0.000 A 
ATOM     17  C   UNL     1       1.125  -2.990   5.555  0.00  0.00    +0.000 A 
ATOM     18  C   UNL     1       1.041  -4.018   4.635  0.00  0.00    +0.000 A 
ATOM     19  C   UNL     1       1.432  -3.808   3.326  0.00  0.00    +0.005 A 
ENDBRANCH  13  14
ENDBRANCH   9  13
ENDBRANCH   1   7
BRANCH   2  20
ATOM     20  C   UNL     1       2.183   2.469  -3.144  0.00  0.00    +0.168 C 
BRANCH  20  21
ATOM     21  S   UNL     1       1.297   3.553  -4.297  0.00  0.00    -0.106 S 
BRANCH  21  22
ATOM     22  C   UNL     1       2.553   4.748  -4.830  0.00  0.00    +0.236 C 
ATOM     23  N   UNL     1       3.692   4.046  -5.435  0.00  0.00    -0.355 N 
ATOM     24  C   UNL     1       4.745   4.323  -4.723  0.00  0.00    +0.061 A 
ATOM     25  C   UNL     1       6.156   3.923  -4.830  0.00  0.00    +0.030 A 
ATOM     26  C   UNL     1       7.046   4.377  -3.927  0.00  0.00    +0.040 A 
ATOM     27  C   UNL     1       6.683   5.232  -2.867  0.00  0.00    +0.125 A 
ATOM     28  C   UNL     1       5.415   5.659  -2.680  0.00  0.00    +0.065 A 
ATOM     29  C   UNL     1       4.361   5.227  -3.604  0.00  0.00    +0.064 A 
ATOM     30  N   UNL     1       3.083   5.474  -3.668  0.00  0.00    -0.355 N 
ATOM     31  F   UNL     1       7.640   5.641  -2.005  0.00  0.00    -0.205 F 
ATOM     32  H   UNL     1       3.664   3.479  -6.221  0.00  0.00    +0.162 HD
ATOM     33  H   UNL     1       2.574   6.034  -3.061  0.00  0.00    +0.162 HD
ENDBRANCH  21  22
ENDBRANCH  20  21
ENDBRANCH   2  20
TORSDOF 6
