REMARK  Name = ZINC39546026
REMARK  10 active torsions:
REMARK  status: ('A' for Active; 'I' for Inactive)
REMARK    1  A    between atoms: C_1  and  C_2
REMARK    2  A    between atoms: C_2  and  O_3
REMARK    3  A    between atoms: O_3  and  N_4
REMARK    4  A    between atoms: N_4  and  S_28
REMARK    5  A    between atoms: C_5  and  C_7
REMARK    6  A    between atoms: C_10  and  C_21
REMARK    7  A    between atoms: C_26  and  O_27
REMARK    8  A    between atoms: S_28  and  C_31
REMARK    9  A    between atoms: C_31  and  C_32
REMARK   10  A    between atoms: C_31  and  C_33
REMARK                            x       y       z     vdW  Elec       q    Type
REMARK                         _______ _______ _______ _____ _____    ______ ____
ROOT
ATOM      1  C   UNL     1      -1.402  -1.845   2.478  0.00  0.00    +0.152 C 
ATOM      2  C   UNL     1      -2.564  -0.839   2.580  0.00  0.00    +0.069 C 
ATOM      3  C   UNL     1      -3.367  -1.318   3.769  0.00  0.00    -0.000 C 
ATOM      4  C   UNL     1      -2.788  -2.394   4.281  0.00  0.00    +0.079 C 
ATOM      5  N   UNL     1      -3.253  -3.146   5.369  0.00  0.00    -0.303 N 
ATOM      6  C   UNL     1      -3.048  -4.532   5.261  0.00  0.00    +0.037 A 
ATOM      7  C   UNL     1      -3.571  -5.384   6.223  0.00  0.00    +0.023 A 
ATOM      8  C   UNL     1      -3.361  -6.745   6.122  0.00  0.00    +0.002 A 
ATOM      9  C   UNL     1      -2.632  -7.252   5.061  0.00  0.00    +0.000 A 
ATOM     10  C   UNL     1      -2.115  -6.404   4.101  0.00  0.00    +0.007 A 
ATOM     11  C   UNL     1      -2.324  -5.038   4.190  0.00  0.00    -0.010 A 
ATOM     12  C   UNL     1      -1.770  -4.141   3.115  0.00  0.00    +0.124 C 
ATOM     13  N   UNL     1      -1.615  -2.767   3.605  0.00  0.00    -0.369 NA
ATOM     14  H   UNL     1      -3.683  -2.740   6.138  0.00  0.00    +0.153 HD
ATOM     15  H   UNL     1      -0.828  -2.720   4.235  0.00  0.00    +0.128 HD
ENDROOT
BRANCH   3  16
ATOM     16  C   UNL     1      -4.599  -0.686   4.279  0.00  0.00    +0.023 A 
ATOM     17  C   UNL     1      -4.563   0.080   5.445  0.00  0.00    +0.012 A 
ATOM     18  C   UNL     1      -5.719   0.668   5.917  0.00  0.00    +0.001 A 
ATOM     19  C   UNL     1      -6.913   0.501   5.238  0.00  0.00    +0.004 A 
ATOM     20  C   UNL     1      -6.961  -0.256   4.082  0.00  0.00    +0.046 A 
ATOM     21  C   UNL     1      -5.809  -0.847   3.592  0.00  0.00    +0.124 A 
BRANCH  21  22
ATOM     22  O   UNL     1      -5.853  -1.586   2.452  0.00  0.00    -0.506 OA
ATOM     23  H   UNL     1      -6.040  -2.523   2.598  0.00  0.00    +0.292 HD
ENDBRANCH  21  22
ENDBRANCH   3  16
BRANCH   1  25
ATOM     24  N   UNL     1      -0.353  -2.727   0.419  0.00  0.00    -0.044 N 
ATOM     25  C   UNL     1      -1.464  -2.590   1.169  0.00  0.00    +0.278 C 
ATOM     26  O   UNL     1      -2.514  -3.067   0.792  0.00  0.00    -0.270 OA
BRANCH  24  27
ATOM     27  S   UNL     1      -0.421  -3.545  -1.019  0.00  0.00    +0.072 S 
ATOM     28  O   UNL     1       0.866  -4.130  -1.165  0.00  0.00    -0.153 OA
ATOM     29  O   UNL     1      -1.580  -4.361  -0.918  0.00  0.00    -0.153 OA
BRANCH  27  30
ATOM     30  C   UNL     1      -0.669  -2.261  -2.276  0.00  0.00    +0.148 C 
ATOM     31  C   UNL     1      -0.872  -2.917  -3.643  0.00  0.00    +0.033 C 
ATOM     32  C   UNL     1      -1.904  -1.431  -1.920  0.00  0.00    +0.033 C 
ENDBRANCH  27  30
ENDBRANCH  24  27
BRANCH  24  33
ATOM     33  O   UNL     1       0.872  -2.170   0.859  0.00  0.00    -0.257 OA
BRANCH  33  35
ATOM     34  C   UNL     1       2.951  -2.353   2.078  0.00  0.00    +0.036 C 
ATOM     35  C   UNL     1       1.657  -3.055   1.661  0.00  0.00    +0.189 C 
ENDBRANCH  33  35
ENDBRANCH  24  33
ENDBRANCH   1  25
TORSDOF 7
