REMARK  Name = ZINC03558310
REMARK  11 active torsions:
REMARK  status: ('A' for Active; 'I' for Inactive)
REMARK    1  A    between atoms: C_1  and  C_2
REMARK    2  A    between atoms: C_3  and  C_8
REMARK    3  A    between atoms: C_4  and  C_7
REMARK    4  A    between atoms: C_8  and  O_9
REMARK    5  A    between atoms: O_9  and  C_10
REMARK    6  A    between atoms: C_14  and  C_16
REMARK    7  A    between atoms: C_16  and  O_18
REMARK    8  A    between atoms: O_18  and  C_19
REMARK    9  A    between atoms: C_19  and  C_21
REMARK   10  A    between atoms: C_19  and  C_27
REMARK   11  A    between atoms: N_32  and  C_33
REMARK                            x       y       z     vdW  Elec       q    Type
REMARK                         _______ _______ _______ _____ _____    ______ ____
ROOT
ATOM      1  C   UNL     1      -4.573  -3.624  -4.319  0.00  0.00    +0.340 C 
ATOM      2  O   UNL     1      -4.009  -3.159  -5.289  0.00  0.00    -0.245 OA
ENDROOT
BRANCH   1   7
ATOM      3  C   UNL     1      -2.609  -2.082  -1.510  0.00  0.00    +0.122 A 
ATOM      4  C   UNL     1      -3.254  -2.622  -0.405  0.00  0.00    +0.046 A 
ATOM      5  C   UNL     1      -4.328  -3.476  -0.574  0.00  0.00    +0.004 A 
ATOM      6  C   UNL     1      -4.760  -3.806  -1.842  0.00  0.00    +0.015 A 
ATOM      7  C   UNL     1      -4.114  -3.273  -2.959  0.00  0.00    +0.062 A 
ATOM      8  C   UNL     1      -3.033  -2.407  -2.787  0.00  0.00    +0.060 A 
BRANCH   3   9
ATOM      9  O   UNL     1      -1.557  -1.239  -1.337  0.00  0.00    -0.487 OA
BRANCH   9  10
ATOM     10  C   UNL     1      -1.173  -0.948   0.008  0.00  0.00    +0.269 C 
BRANCH  10  13
ATOM     11  C   UNL     1       1.982  -1.708  -0.027  0.00  0.00    +0.069 C 
ATOM     12  C   UNL     1       1.378  -0.327  -0.013  0.00  0.00    +0.087 A 
ATOM     13  C   UNL     1       0.002  -0.004   0.002  0.00  0.00    +0.054 A 
ATOM     14  C   UNL     1      -0.016   1.350   0.009  0.00  0.00    +0.141 A 
ATOM     15  O   UNL     1       1.264   1.747  -0.001  0.00  0.00    -0.359 OA
ATOM     16  N   UNL     1       2.022   0.805  -0.013  0.00  0.00    -0.083 NA
ATOM     17  C   UNL     1      -1.236   2.236   0.020  0.00  0.00    +0.089 C 
ENDBRANCH  10  13
ENDBRANCH   9  10
ENDBRANCH   3   9
ENDBRANCH   1   7
BRANCH   1  18
ATOM     18  O   UNL     1      -5.616  -4.461  -4.483  0.00  0.00    -0.444 OA
BRANCH  18  19
ATOM     19  C   UNL     1      -6.012  -4.762  -5.847  0.00  0.00    +0.292 C 
BRANCH  19  20
ATOM     20  C   UNL     1      -7.492  -5.039  -5.891  0.00  0.00    +0.266 C 
ATOM     21  O   UNL     1      -8.149  -4.989  -4.873  0.00  0.00    -0.271 OA
ATOM     22  N   UNL     1      -8.087  -5.344  -7.061  0.00  0.00    -0.237 N 
ATOM     23  C   UNL     1      -9.411  -5.593  -7.101  0.00  0.00    +0.306 C 
ATOM     24  O   UNL     1     -10.069  -5.542  -6.080  0.00  0.00    -0.252 OA
ATOM     25  N   UNL     1     -10.005  -5.897  -8.271  0.00  0.00    -0.302 N 
ATOM     26  C   UNL     1     -11.444  -6.167  -8.314  0.00  0.00    +0.129 C 
ATOM     27  H   UNL     1      -7.561  -5.385  -7.876  0.00  0.00    +0.159 HD
ATOM     28  H   UNL     1      -9.479  -5.938  -9.086  0.00  0.00    +0.150 HD
ENDBRANCH  19  20
BRANCH  19  29
ATOM     29  C   UNL     1      -5.259  -5.973  -6.333  0.00  0.00    +0.002 A 
ATOM     30  C   UNL     1      -5.043  -7.041  -5.481  0.00  0.00    +0.008 A 
ATOM     31  C   UNL     1      -4.357  -8.154  -5.928  0.00  0.00    +0.000 A 
ATOM     32  C   UNL     1      -3.877  -8.196  -7.224  0.00  0.00    +0.000 A 
ATOM     33  C   UNL     1      -4.088  -7.127  -8.074  0.00  0.00    +0.000 A 
ATOM     34  C   UNL     1      -4.779  -6.015  -7.628  0.00  0.00    +0.008 A 
ENDBRANCH  19  29
ENDBRANCH  18  19
ENDBRANCH   1  18
TORSDOF 8
