REMARK  Name = ZINC11497705
REMARK  10 active torsions:
REMARK  status: ('A' for Active; 'I' for Inactive)
REMARK    1  A    between atoms: C_1  and  C_2
REMARK    2  A    between atoms: C_5  and  S_8
REMARK    3  A    between atoms: S_8  and  N_11
REMARK    4  A    between atoms: C_17  and  C_18
REMARK    5  A    between atoms: C_17  and  N_64
REMARK    6  A    between atoms: N_20  and  C_21
REMARK    7  A    between atoms: C_21  and  C_23
REMARK    8  A    between atoms: C_21  and  C_30
REMARK    9  A    between atoms: C_30  and  C_31
REMARK   10  A    between atoms: C_30  and  C_32
REMARK                            x       y       z     vdW  Elec       q    Type
REMARK                         _______ _______ _______ _____ _____    ______ ____
ROOT
ATOM      1  N   UNL     1       5.855   3.263  -0.621  0.00  0.00    -0.178 NA
ATOM      2  C   UNL     1       5.566   4.009   0.584  0.00  0.00    +0.107 C 
ATOM      3  C   UNL     1       4.958   3.060   1.648  0.00  0.00    -0.001 C 
ATOM      4  C   UNL     1       3.605   2.645   1.230  0.00  0.00    -0.077 C 
ATOM      5  C   UNL     1       3.464   2.784  -1.155  0.00  0.00    -0.061 C 
ATOM      6  C   UNL     1       4.871   3.082  -1.708  0.00  0.00    +0.091 C 
ATOM      7  N   UNL     1       3.589   1.877  -0.024  0.00  0.00    +0.386 N 
ATOM      8  H   UNL     1       4.469   1.356  -0.109  0.00  0.00    -0.081 HD
ENDROOT
BRANCH   1   9
ATOM      9  S   UNL     1       7.354   2.580  -0.789  0.00  0.00    +0.061 S 
ATOM     10  O   UNL     1       7.574   2.421  -2.184  0.00  0.00    -0.153 OA
ATOM     11  O   UNL     1       8.235   3.325   0.041  0.00  0.00    -0.153 OA
BRANCH   9  16
ATOM     12  C   UNL     1       7.061  -2.972   1.555  0.00  0.00    +0.044 C 
ATOM     13  C   UNL     1       7.135  -1.585   0.970  0.00  0.00    -0.050 A 
ATOM     14  C   UNL     1       6.850  -1.384  -0.368  0.00  0.00    +0.005 A 
ATOM     15  C   UNL     1       6.917  -0.112  -0.905  0.00  0.00    +0.029 A 
ATOM     16  C   UNL     1       7.268   0.959  -0.104  0.00  0.00    +0.105 A 
ATOM     17  C   UNL     1       7.558   0.757   1.232  0.00  0.00    +0.029 A 
ATOM     18  C   UNL     1       7.486  -0.514   1.770  0.00  0.00    +0.005 A 
ENDBRANCH   9  16
ENDBRANCH   1   9
BRANCH   7  19
ATOM     19  C   UNL     1       2.462   0.920  -0.017  0.00  0.00    +0.019 C 
BRANCH  19  20
ATOM     20  C   UNL     1       1.147   1.655   0.000  0.00  0.00    +0.197 C 
ATOM     21  O   UNL     1       1.130   2.868   0.007  0.00  0.00    -0.278 OA
ATOM     22  N   UNL     1      -0.011   0.966   0.007  0.00  0.00    -0.310 N 
ATOM     23  H   UNL     1       0.002  -0.004   0.002  0.00  0.00    +0.149 HD
BRANCH  22  24
ATOM     24  C   UNL     1      -1.290   1.681   0.017  0.00  0.00    +0.106 C 
BRANCH  24  25
ATOM     25  C   UNL     1      -2.360   0.806  -0.583  0.00  0.00    -0.027 A 
ATOM     26  C   UNL     1      -2.383  -0.548  -0.301  0.00  0.00    +0.008 A 
ATOM     27  C   UNL     1      -3.367  -1.350  -0.847  0.00  0.00    +0.038 A 
ATOM     28  C   UNL     1      -4.323  -0.801  -1.685  0.00  0.00    +0.123 A 
ATOM     29  C   UNL     1      -4.295   0.554  -1.970  0.00  0.00    +0.038 A 
ATOM     30  C   UNL     1      -3.313   1.356  -1.419  0.00  0.00    +0.008 A 
ATOM     31  F   UNL     1      -5.281  -1.586  -2.223  0.00  0.00    -0.205 F 
ENDBRANCH  24  25
BRANCH  24  32
ATOM     32  C   UNL     1      -1.667   2.032   1.458  0.00  0.00    +0.008 C 
ATOM     33  C   UNL     1      -1.673   0.760   2.308  0.00  0.00    +0.009 C 
ATOM     34  C   UNL     1      -0.646   3.020   2.026  0.00  0.00    +0.009 C 
ENDBRANCH  24  32
ENDBRANCH  22  24
ENDBRANCH  19  20
ENDBRANCH   7  19
TORSDOF 7
