REMARK  Name = ZINC03147588
REMARK  8 active torsions:
REMARK  status: ('A' for Active; 'I' for Inactive)
REMARK    1  A    between atoms: C_1  and  C_2
REMARK    2  A    between atoms: C_5  and  O_8
REMARK    3  A    between atoms: O_8  and  C_9
REMARK    4  A    between atoms: C_9  and  C_10
REMARK    5  A    between atoms: N_12  and  N_13
REMARK    6  A    between atoms: C_14  and  C_15
REMARK    7  A    between atoms: C_18  and  O_23
REMARK    8  A    between atoms: C_20  and  O_21
REMARK                            x       y       z     vdW  Elec       q    Type
REMARK                         _______ _______ _______ _____ _____    ______ ____
ROOT
ATOM      1  N   UNL     1      -1.316   3.413   0.027  0.00  0.00    -0.188 NA
ATOM      2  C   UNL     1      -1.301   2.115   0.020  0.00  0.00    +0.142 C 
ENDROOT
BRANCH   2   3
ATOM      3  C   UNL     1      -0.017   1.393   0.010  0.00  0.00    +0.038 A 
ATOM      4  C   UNL     1       0.002  -0.004   0.002  0.00  0.00    +0.032 A 
ATOM      5  C   UNL     1       1.206  -0.676  -0.013  0.00  0.00    +0.061 A 
ATOM      6  C   UNL     1       2.402   0.032  -0.021  0.00  0.00    +0.148 A 
ATOM      7  C   UNL     1       2.393   1.420  -0.014  0.00  0.00    +0.102 A 
ATOM      8  C   UNL     1       1.191   2.105   0.002  0.00  0.00    +0.143 A 
ATOM      9 BR   UNL     1       4.026   2.375  -0.026  0.00  0.00    -0.043 Br
ATOM     10 BR   UNL     1       1.229  -2.567  -0.024  0.00  0.00    -0.046 Br
BRANCH   8  11
ATOM     11  O   UNL     1       1.181   3.464   0.009  0.00  0.00    -0.505 OA
ATOM     12  H   UNL     1       1.186   3.853   0.894  0.00  0.00    +0.292 HD
ENDBRANCH   8  11
BRANCH   6  13
ATOM     13  O   UNL     1       3.584  -0.637  -0.036  0.00  0.00    -0.504 OA
ATOM     14  H   UNL     1       3.918  -0.826  -0.924  0.00  0.00    +0.292 HD
ENDBRANCH   6  13
ENDBRANCH   2   3
BRANCH   1  17
ATOM     15  C   UNL     1      -2.552   5.448   0.044  0.00  0.00    +0.270 C 
ATOM     16  O   UNL     1      -1.508   6.066   0.042  0.00  0.00    -0.270 OA
ATOM     17  N   UNL     1      -2.537   4.100   0.036  0.00  0.00    -0.204 N 
ATOM     18  H   UNL     1      -3.371   3.606   0.038  0.00  0.00    +0.177 HD
BRANCH  15  19
ATOM     19  C   UNL     1      -3.866   6.186   0.054  0.00  0.00    +0.326 C 
BRANCH  19  20
ATOM     20  O   UNL     1      -3.620   7.594   0.060  0.00  0.00    -0.483 OA
BRANCH  20  25
ATOM     21  C   UNL     1      -8.126  10.974   0.100  0.00  0.00    +0.044 C 
ATOM     22  C   UNL     1      -6.920  10.070   0.090  0.00  0.00    -0.050 A 
ATOM     23  C   UNL     1      -5.649  10.614   0.086  0.00  0.00    +0.007 A 
ATOM     24  C   UNL     1      -4.543   9.787   0.077  0.00  0.00    +0.046 A 
ATOM     25  C   UNL     1      -4.707   8.410   0.070  0.00  0.00    +0.121 A 
ATOM     26  C   UNL     1      -5.984   7.866   0.067  0.00  0.00    +0.046 A 
ATOM     27  C   UNL     1      -7.087   8.697   0.083  0.00  0.00    +0.007 A 
ENDBRANCH  20  25
ENDBRANCH  19  20
ENDBRANCH  15  19
ENDBRANCH   1  17
TORSDOF 7
