REMARK  Name = ZINC23340364
REMARK  6 active torsions:
REMARK  status: ('A' for Active; 'I' for Inactive)
REMARK    1  A    between atoms: C_11  and  C_30
REMARK    2  A    between atoms: N_13  and  C_16
REMARK    3  A    between atoms: C_16  and  C_17
REMARK    4  A    between atoms: C_20  and  O_23
REMARK    5  A    between atoms: O_23  and  C_24
REMARK    6  A    between atoms: C_34  and  O_36
REMARK                            x       y       z     vdW  Elec       q    Type
REMARK                         _______ _______ _______ _____ _____    ______ ____
ROOT
ATOM      1  C   UNL     1      -0.004  -0.036  -0.532  0.00  0.00    +0.001 A 
ATOM      2  C   UNL     1       1.203  -0.722  -0.502  0.00  0.00    +0.002 A 
ATOM      3  C   UNL     1       2.395  -0.039  -0.395  0.00  0.00    +0.026 A 
ATOM      4  C   UNL     1       2.393   1.349  -0.316  0.00  0.00    +0.047 A 
ATOM      5  C   UNL     1       1.166   2.041  -0.348  0.00  0.00    +0.003 A 
ATOM      6  C   UNL     1      -0.030   1.327  -0.457  0.00  0.00    +0.010 A 
ATOM      7  C   UNL     1       1.506   3.455  -0.249  0.00  0.00    -0.016 A 
ATOM      8  C   UNL     1       2.849   3.543  -0.167  0.00  0.00    +0.042 A 
ATOM      9  N   UNL     1       3.392   2.293  -0.205  0.00  0.00    -0.356 N 
ATOM     10  H   UNL     1       4.445   1.976  -0.160  0.00  0.00    +0.166 HD
ATOM     11  C   UNL     1       3.580   4.861  -0.052  0.00  0.00    +0.135 C 
ATOM     12  N   UNL     1       2.659   5.939  -0.450  0.00  0.00    -0.286 NA
ATOM     13  C   UNL     1       1.385   5.854   0.277  0.00  0.00    +0.090 C 
ATOM     14  C   UNL     1       0.584   4.648  -0.232  0.00  0.00    +0.053 C 
ENDROOT
BRANCH  11  15
ATOM     15  C   UNL     1       4.780   4.856  -0.964  0.00  0.00    -0.021 A 
ATOM     16  C   UNL     1       4.622   5.103  -2.315  0.00  0.00    +0.006 A 
ATOM     17  C   UNL     1       5.721   5.101  -3.154  0.00  0.00    +0.004 A 
ATOM     18  C   UNL     1       6.980   4.850  -2.643  0.00  0.00    +0.045 A 
ATOM     19  C   UNL     1       7.141   4.602  -1.288  0.00  0.00    +0.117 A 
ATOM     20  C   UNL     1       6.037   4.611  -0.448  0.00  0.00    +0.051 A 
BRANCH  19  21
ATOM     21  O   UNL     1       8.379   4.355  -0.784  0.00  0.00    -0.507 OA
ATOM     22  H   UNL     1       8.505   4.158   0.291  0.00  0.00    +0.292 HD
ENDBRANCH  19  21
ENDBRANCH  11  15
BRANCH  12  23
ATOM     23  C   UNL     1       3.282   7.257  -0.270  0.00  0.00    +0.120 C 
BRANCH  23  24
ATOM     24  C   UNL     1       2.243   8.333  -0.449  0.00  0.00    -0.033 A 
ATOM     25  C   UNL     1       2.017   8.873  -1.701  0.00  0.00    +0.008 A 
ATOM     26  C   UNL     1       1.061   9.856  -1.869  0.00  0.00    +0.047 A 
ATOM     27  C   UNL     1       0.334  10.308  -0.777  0.00  0.00    +0.132 A 
ATOM     28  C   UNL     1       0.566   9.768   0.480  0.00  0.00    +0.047 A 
ATOM     29  C   UNL     1       1.519   8.782   0.641  0.00  0.00    +0.008 A 
BRANCH  27  30
ATOM     30  O   UNL     1      -0.604  11.279  -0.939  0.00  0.00    -0.424 OA
BRANCH  30  31
ATOM     31  C   UNL     1      -0.352  12.500  -0.410  0.00  0.00    +0.323 A 
ATOM     32  N   UNL     1       0.829  12.735   0.141  0.00  0.00    -0.203 NA
ATOM     33  C   UNL     1       1.109  13.918   0.662  0.00  0.00    +0.118 A 
ATOM     34  C   UNL     1       0.146  14.913   0.635  0.00  0.00    +0.040 A 
ATOM     35  C   UNL     1      -1.081  14.632   0.056  0.00  0.00    +0.118 A 
ATOM     36  N   UNL     1      -1.294  13.429  -0.452  0.00  0.00    -0.203 NA
ENDBRANCH  30  31
ENDBRANCH  27  30
ENDBRANCH  23  24
ENDBRANCH  12  23
TORSDOF 6
