REMARK  Name = ZINC63994105
REMARK  16 active torsions:
REMARK  status: ('A' for Active; 'I' for Inactive)
REMARK    1  A    between atoms: C_1  and  C_2
REMARK    2  A    between atoms: C_2  and  C_3
REMARK    3  A    between atoms: C_3  and  C_4
REMARK    4  A    between atoms: C_3  and  N_6
REMARK    5  A    between atoms: C_4  and  C_5
REMARK    6  A    between atoms: N_6  and  C_7
REMARK    7  A    between atoms: N_13  and  C_28
REMARK    8  A    between atoms: C_14  and  C_24
REMARK    9  A    between atoms: C_16  and  N_18
REMARK   10  A    between atoms: C_19  and  C_21
REMARK   11  A    between atoms: C_21  and  O_22
REMARK   12  A    between atoms: O_22  and  C_23
REMARK   13  A    between atoms: C_24  and  O_26
REMARK   14  A    between atoms: O_26  and  C_27
REMARK   15  A    between atoms: C_28  and  C_29
REMARK   16  A    between atoms: C_29  and  C_30
REMARK                            x       y       z     vdW  Elec       q    Type
REMARK                         _______ _______ _______ _____ _____    ______ ____
ROOT
ATOM      1  C   UNL     1      -3.549   0.252   0.787  0.00  0.00    +0.044 A 
ATOM      2  C   UNL     1      -4.055   0.456   2.071  0.00  0.00    +0.033 A 
ATOM      3  C   UNL     1      -5.426   0.461   2.244  0.00  0.00    +0.015 A 
ATOM      4  C   UNL     1      -6.265   0.266   1.157  0.00  0.00    +0.105 A 
ATOM      5  N   UNL     1      -5.739   0.074  -0.053  0.00  0.00    -0.348 N 
ATOM      6  C   UNL     1      -4.439   0.069  -0.260  0.00  0.00    +0.107 A 
ATOM      7  N   UNL     1      -7.606   0.305   1.533  0.00  0.00    -0.301 N 
ATOM      8  C   UNL     1      -7.720   0.541   2.974  0.00  0.00    +0.208 C 
ATOM      9  C   UNL     1      -6.272   0.651   3.481  0.00  0.00    +0.138 C 
ATOM     10  H   UNL     1      -6.335  -0.061  -0.807  0.00  0.00    +0.167 HD
ENDROOT
BRANCH   9  11
ATOM     11  N   UNL     1      -6.034   1.972   4.067  0.00  0.00    -0.304 N 
ATOM     12  C   UNL     1      -5.021   2.151   4.938  0.00  0.00    +0.239 C 
ATOM     13  O   UNL     1      -4.307   1.217   5.237  0.00  0.00    -0.273 OA
ATOM     14  H   UNL     1      -6.605   2.719   3.827  0.00  0.00    +0.149 HD
BRANCH  12  15
ATOM     15  C   UNL     1      -4.775   3.510   5.540  0.00  0.00    +0.255 C 
BRANCH  15  16
ATOM     16  O   UNL     1      -3.655   3.443   6.425  0.00  0.00    -0.374 OA
ATOM     17  C   UNL     1      -3.336   4.687   7.053  0.00  0.00    +0.194 C 
ENDBRANCH  15  16
ENDBRANCH  12  15
ENDBRANCH   9  11
BRANCH   1  18
ATOM     18  N   UNL     1      -2.167   0.239   0.559  0.00  0.00    -0.340 N 
ATOM     19  H   UNL     1      -1.552   0.368   1.299  0.00  0.00    +0.146 HD
BRANCH  18  20
ATOM     20  C   UNL     1      -1.650   0.029  -0.795  0.00  0.00    +0.070 C 
BRANCH  20  22
ATOM     21  C   UNL     1      -0.361   2.169  -0.748  0.00  0.00    +0.006 C 
ATOM     22  C   UNL     1      -0.257   0.652  -0.911  0.00  0.00    +0.019 C 
ENDBRANCH  20  22
BRANCH  20  23
ATOM     23  C   UNL     1      -1.564  -1.471  -1.082  0.00  0.00    +0.019 C 
ATOM     24  C   UNL     1      -2.972  -2.070  -1.089  0.00  0.00    +0.006 C 
ENDBRANCH  20  23
ENDBRANCH  18  20
ENDBRANCH   1  18
BRANCH   8  25
ATOM     25  C   UNL     1      -8.423  -0.614   3.640  0.00  0.00    +0.330 C 
ATOM     26  O   UNL     1      -8.383  -1.714   3.142  0.00  0.00    -0.249 OA
BRANCH  25  27
ATOM     27  O   UNL     1      -9.094  -0.420   4.786  0.00  0.00    -0.467 OA
ATOM     28  C   UNL     1      -9.737  -1.560   5.362  0.00  0.00    +0.280 C 
ENDBRANCH  25  27
ENDBRANCH   8  25
BRANCH   7  29
ATOM     29  C   UNL     1      -8.738   0.134   0.619  0.00  0.00    +0.112 C 
BRANCH  29  30
ATOM     30  C   UNL     1      -9.117   1.489   0.019  0.00  0.00    +0.052 C 
BRANCH  30  31
ATOM     31  C   UNL     1     -10.316   1.323  -0.880  0.00  0.00    -0.040 C 
ATOM     32  C   UNL     1     -11.613   1.518  -0.550  0.00  0.00    -0.001 A 
ATOM     33  C   UNL     1     -12.271   1.927   0.696  0.00  0.00    +0.010 A 
ATOM     34  C   UNL     1     -13.619   2.038   0.720  0.00  0.00    +0.001 A 
ATOM     35  C   UNL     1     -14.401   1.772  -0.412  0.00  0.00    +0.002 A 
ATOM     36  C   UNL     1     -13.868   1.391  -1.593  0.00  0.00    +0.026 A 
ATOM     37  C   UNL     1     -12.461   1.243  -1.732  0.00  0.00    +0.043 A 
ATOM     38  N   UNL     1     -11.717   0.892  -2.753  0.00  0.00    -0.380 N 
ATOM     39  C   UNL     1     -10.311   0.909  -2.335  0.00  0.00    +0.144 C 
ATOM     40  H   UNL     1     -12.042   0.662  -3.638  0.00  0.00    +0.160 HD
ENDBRANCH  30  31
ENDBRANCH  29  30
ENDBRANCH   7  29
TORSDOF 12
