REMARK  Name = ZINC39578340
REMARK  8 active torsions:
REMARK  status: ('A' for Active; 'I' for Inactive)
REMARK    1  A    between atoms: C_1  and  C_2
REMARK    2  A    between atoms: C_5  and  C_28
REMARK    3  A    between atoms: C_10  and  C_12
REMARK    4  A    between atoms: C_12  and  C_14
REMARK    5  A    between atoms: C_12  and  S_15
REMARK    6  A    between atoms: S_15  and  C_16
REMARK    7  A    between atoms: C_19  and  C_22
REMARK    8  A    between atoms: N_20  and  N_21
REMARK                            x       y       z     vdW  Elec       q    Type
REMARK                         _______ _______ _______ _____ _____    ______ ____
ROOT
ATOM      1  C   UNL     1       1.486   3.014   5.287  0.00  0.00    +0.209 A 
ATOM      2  N   UNL     1       0.393   2.372   5.629  0.00  0.00    -0.121 NA
ATOM      3  N   UNL     1      -0.196   2.994   6.587  0.00  0.00    -0.132 NA
ATOM      4  C   UNL     1       0.480   4.060   6.911  0.00  0.00    +0.154 A 
ATOM      5  N   UNL     1       1.579   4.107   6.099  0.00  0.00    -0.228 N 
ENDROOT
BRANCH   4   6
ATOM      6  C   UNL     1       0.120   5.052   7.987  0.00  0.00    +0.059 C 
ATOM      7  C   UNL     1       0.059   4.339   9.339  0.00  0.00    +0.011 C 
ATOM      8  C   UNL     1      -0.306   5.347  10.431  0.00  0.00    +0.001 C 
ATOM      9  C   UNL     1      -1.670   5.966  10.118  0.00  0.00    +0.000 C 
ATOM     10  C   UNL     1      -1.609   6.679   8.766  0.00  0.00    +0.001 C 
ATOM     11  C   UNL     1      -1.244   5.671   7.674  0.00  0.00    +0.011 C 
ENDBRANCH   4   6
BRANCH   5  12
ATOM     12  N   UNL     1       2.563   5.055   6.098  0.00  0.00    -0.295 N 
ATOM     13  H   UNL     1       2.335   5.812   5.471  0.00  0.00    +0.163 HD
ATOM     14  H   UNL     1       2.736   5.397   7.031  0.00  0.00    +0.163 HD
ENDBRANCH   5  12
BRANCH   1  15
ATOM     15  S   UNL     1       2.623   2.547   4.024  0.00  0.00    -0.072 S 
BRANCH  15  16
ATOM     16  C   UNL     1       1.919   1.022   3.341  0.00  0.00    +0.137 C 
ATOM     17  C   UNL     1       1.933  -0.071   4.411  0.00  0.00    +0.029 C 
BRANCH  16  25
ATOM     18  C   UNL     1       3.648  -2.712   0.948  0.00  0.00    +0.009 C 
ATOM     19  C   UNL     1       2.893  -2.045  -0.203  0.00  0.00    +0.004 C 
ATOM     20  C   UNL     1       1.439  -2.524  -0.205  0.00  0.00    +0.009 C 
ATOM     21  C   UNL     1       0.786  -2.183   1.137  0.00  0.00    +0.004 C 
ATOM     22  C   UNL     1       0.794  -0.664   1.333  0.00  0.00    +0.111 C 
ATOM     23  N   UNL     1       2.173  -0.176   1.192  0.00  0.00    -0.300 N 
ATOM     24  C   UNL     1       2.926  -0.524  -0.022  0.00  0.00    +0.111 C 
ATOM     25  C   UNL     1       2.738   0.577   2.157  0.00  0.00    +0.229 C 
ATOM     26  O   UNL     1       3.905   0.895   2.072  0.00  0.00    -0.274 OA
ATOM     27  C   UNL     1      -0.657  -2.692   1.146  0.00  0.00    +0.009 C 
ENDBRANCH  16  25
ENDBRANCH  15  16
ENDBRANCH   1  15
TORSDOF 5
