REMARK  Name = ZINC38575941
REMARK  14 active torsions:
REMARK  status: ('A' for Active; 'I' for Inactive)
REMARK    1  A    between atoms: C_1  and  C_2
REMARK    2  A    between atoms: C_2  and  C_3
REMARK    3  A    between atoms: C_3  and  C_5
REMARK    4  A    between atoms: C_3  and  C_6
REMARK    5  A    between atoms: C_6  and  C_8
REMARK    6  A    between atoms: C_6  and  N_18
REMARK    7  A    between atoms: C_8  and  N_10
REMARK    8  A    between atoms: C_14  and  C_17
REMARK    9  A    between atoms: C_19  and  C_21
REMARK   10  A    between atoms: C_21  and  N_22
REMARK   11  A    between atoms: C_27  and  O_35
REMARK   12  A    between atoms: C_28  and  O_33
REMARK   13  A    between atoms: O_33  and  C_34
REMARK   14  A    between atoms: O_35  and  C_36
REMARK                            x       y       z     vdW  Elec       q    Type
REMARK                         _______ _______ _______ _____ _____    ______ ____
ROOT
ATOM      1  N   UNL     1       3.135  -0.892   2.180  0.00  0.00    -0.302 N 
ATOM      2  C   UNL     1       3.514  -2.172   1.990  0.00  0.00    +0.231 C 
ATOM      3  O   UNL     1       3.200  -2.753   0.973  0.00  0.00    -0.274 OA
ATOM      4  H   UNL     1       3.386  -0.428   2.993  0.00  0.00    +0.150 HD
ENDROOT
BRANCH   1   5
ATOM      5  C   UNL     1       2.342  -0.204   1.158  0.00  0.00    +0.164 C 
BRANCH   5   6
ATOM      6  C   UNL     1       0.859  -0.521   1.364  0.00  0.00    +0.015 C 
ATOM      7  C   UNL     1       0.462  -0.190   2.804  0.00  0.00    +0.010 C 
BRANCH   6   9
ATOM      8  C   UNL     1       0.897  -2.313  -0.376  0.00  0.00    +0.004 C 
ATOM      9  C   UNL     1       0.613  -2.007   1.095  0.00  0.00    +0.002 C 
ENDBRANCH   6   9
ENDBRANCH   5   6
BRANCH   5  10
ATOM     10  C   UNL     1       2.559   1.283   1.271  0.00  0.00    +0.259 C 
ATOM     11  O   UNL     1       3.192   1.736   2.206  0.00  0.00    -0.272 OA
BRANCH  10  12
ATOM     12  N   UNL     1       2.058   2.098   0.352  0.00  0.00    -0.155 NA
ATOM     13  C   UNL     1       2.329   3.404   0.400  0.00  0.00    +0.163 A 
ATOM     14  N   UNL     1       3.093   4.076   1.302  0.00  0.00    -0.340 N 
ATOM     15  H   UNL     1       3.527   3.604   2.030  0.00  0.00    +0.167 HD
ATOM     16  C   UNL     1       3.240   5.421   1.165  0.00  0.00    +0.021 A 
ATOM     17  C   UNL     1       2.613   6.005   0.138  0.00  0.00    +0.069 A 
ATOM     18  S   UNL     1       1.812   4.617  -0.644  0.00  0.00    -0.060 S 
ATOM     19  C   UNL     1       4.073   6.222   2.132  0.00  0.00    +0.064 C 
ENDBRANCH  10  12
ENDBRANCH   5  10
ENDBRANCH   1   5
BRANCH   2  20
ATOM     20  C   UNL     1       4.330  -2.880   3.041  0.00  0.00    +0.205 C 
BRANCH  20  21
ATOM     21  N   UNL     1       4.611  -4.248   2.601  0.00  0.00    -0.273 N 
ATOM     22  C   UNL     1       3.675  -5.319   2.941  0.00  0.00    +0.214 C 
ATOM     23  N   UNL     1       3.651  -6.331   1.878  0.00  0.00    -0.328 N 
ATOM     24  C   UNL     1       4.858  -6.742   1.318  0.00  0.00    +0.044 A 
ATOM     25  C   UNL     1       5.020  -8.011   0.794  0.00  0.00    +0.073 A 
ATOM     26  C   UNL     1       6.234  -8.372   0.231  0.00  0.00    +0.163 A 
ATOM     27  C   UNL     1       7.293  -7.463   0.191  0.00  0.00    +0.162 A 
ATOM     28  C   UNL     1       7.143  -6.196   0.717  0.00  0.00    +0.064 A 
ATOM     29  C   UNL     1       5.925  -5.827   1.292  0.00  0.00    +0.061 A 
ATOM     30  C   UNL     1       5.726  -4.496   1.886  0.00  0.00    +0.250 C 
ATOM     31  O   UNL     1       6.564  -3.627   1.735  0.00  0.00    -0.270 OA
ATOM     32  H   UNL     1       2.810  -6.706   1.572  0.00  0.00    +0.148 HD
BRANCH  27  33
ATOM     33  O   UNL     1       8.477  -7.827  -0.371  0.00  0.00    -0.491 OA
ATOM     34  C   UNL     1       9.519  -6.849  -0.380  0.00  0.00    +0.277 C 
ENDBRANCH  27  33
BRANCH  26  35
ATOM     35  O   UNL     1       6.396  -9.619  -0.283  0.00  0.00    -0.491 OA
ATOM     36  C   UNL     1       5.274 -10.501  -0.210  0.00  0.00    +0.277 C 
ENDBRANCH  26  35
ENDBRANCH  20  21
ENDBRANCH   2  20
TORSDOF 9
