REMARK  Name = ZINC14129662
REMARK  10 active torsions:
REMARK  status: ('A' for Active; 'I' for Inactive)
REMARK    1  A    between atoms: C_1  and  C_2
REMARK    2  A    between atoms: C_9  and  N_13
REMARK    3  A    between atoms: C_10  and  C_11
REMARK    4  A    between atoms: C_14  and  C_16
REMARK    5  A    between atoms: C_16  and  N_17
REMARK    6  A    between atoms: N_17  and  C_18
REMARK    7  A    between atoms: C_18  and  C_20
REMARK    8  A    between atoms: C_18  and  C_21
REMARK    9  A    between atoms: C_24  and  S_27
REMARK   10  A    between atoms: S_27  and  N_30
REMARK                            x       y       z     vdW  Elec       q    Type
REMARK                         _______ _______ _______ _____ _____    ______ ____
ROOT
ATOM      1  C   UNL     1       1.900  -7.501   3.824  0.00  0.00    +0.178 C 
ENDROOT
BRANCH   1   3
ATOM      2  N   UNL     1       0.696  -5.849   2.431  0.00  0.00    -0.278 N 
ATOM      3  C   UNL     1       1.678  -6.098   3.319  0.00  0.00    +0.231 C 
ATOM      4  O   UNL     1       2.384  -5.194   3.713  0.00  0.00    -0.274 OA
ATOM      5  H   UNL     1       0.132  -6.573   2.116  0.00  0.00    +0.155 HD
BRANCH   2  13
ATOM      6  C   UNL     1      -0.019   1.526   0.010  0.00  0.00    +0.008 C 
ATOM      7  C   UNL     1       0.002  -0.004   0.002  0.00  0.00    -0.009 C 
ATOM      8  C   UNL     1      -1.434  -0.537   0.019  0.00  0.00    +0.008 C 
ATOM      9  C   UNL     1      -1.433  -2.045  -0.237  0.00  0.00    +0.037 C 
ATOM     10  C   UNL     1      -0.464  -2.704   0.734  0.00  0.00    -0.018 A 
ATOM     11  C   UNL     1       0.485  -1.986   1.374  0.00  0.00    -0.004 A 
ATOM     12  S   UNL     1       1.344  -3.168   2.371  0.00  0.00    -0.077 S 
ATOM     13  C   UNL     1       0.493  -4.558   1.966  0.00  0.00    +0.090 A 
ATOM     14  C   UNL     1      -0.459  -4.119   1.059  0.00  0.00    +0.084 A 
ATOM     15  C   UNL     1       0.739  -0.515   1.248  0.00  0.00    +0.046 C 
BRANCH  14  16
ATOM     16  C   UNL     1      -1.399  -5.024   0.469  0.00  0.00    +0.102 C 
ATOM     17  N   UNL     1      -2.144  -5.741   0.000  0.00  0.00    -0.191 NA
ENDBRANCH  14  16
ENDBRANCH   2  13
ENDBRANCH   1   3
BRANCH   1  18
ATOM     18  N   UNL     1       3.019  -7.508   4.775  0.00  0.00    -0.302 NA
ATOM     19  H   UNL     1       3.853  -7.125   4.355  0.00  0.00    +0.123 HD
BRANCH  18  20
ATOM     20  C   UNL     1       3.265  -8.862   5.289  0.00  0.00    +0.081 C 
ATOM     21  C   UNL     1       2.340  -9.132   6.478  0.00  0.00    +0.029 C 
BRANCH  20  22
ATOM     22  C   UNL     1       4.700  -8.979   5.734  0.00  0.00    -0.031 A 
ATOM     23  C   UNL     1       5.303  -7.931   6.403  0.00  0.00    +0.007 A 
ATOM     24  C   UNL     1       6.620  -8.037   6.811  0.00  0.00    +0.029 A 
ATOM     25  C   UNL     1       7.333  -9.192   6.549  0.00  0.00    +0.105 A 
ATOM     26  C   UNL     1       6.729 -10.241   5.880  0.00  0.00    +0.029 A 
ATOM     27  C   UNL     1       5.412 -10.136   5.476  0.00  0.00    +0.007 A 
BRANCH  25  28
ATOM     28  S   UNL     1       9.012  -9.328   7.067  0.00  0.00    +0.056 S 
ATOM     29  O   UNL     1       9.621 -10.294   6.221  0.00  0.00    -0.153 OA
ATOM     30  O   UNL     1       9.507  -8.002   7.189  0.00  0.00    -0.153 OA
BRANCH  28  31
ATOM     31  N   UNL     1       9.003  -9.972   8.592  0.00  0.00    -0.204 NA
ATOM     32  H   UNL     1       8.161 -10.194   9.020  0.00  0.00    +0.144 HD
ATOM     33  H   UNL     1       9.839 -10.127   9.058  0.00  0.00    +0.144 HD
ENDBRANCH  28  31
ENDBRANCH  25  28
ENDBRANCH  20  22
ENDBRANCH  18  20
ENDBRANCH   1  18
TORSDOF 8
