REMARK  Name = ZINC14883545
REMARK  9 active torsions:
REMARK  status: ('A' for Active; 'I' for Inactive)
REMARK    1  A    between atoms: C_1  and  C_2
REMARK    2  A    between atoms: C_2  and  C_3
REMARK    3  A    between atoms: C_3  and  C_4
REMARK    4  A    between atoms: C_4  and  C_18
REMARK    5  A    between atoms: N_7  and  C_11
REMARK    6  A    between atoms: C_11  and  C_12
REMARK    7  A    between atoms: C_23  and  C_24
REMARK    8  A    between atoms: C_23  and  N_63
REMARK    9  A    between atoms: C_27  and  O_31
REMARK                            x       y       z     vdW  Elec       q    Type
REMARK                         _______ _______ _______ _____ _____    ______ ____
ROOT
ATOM      1  C   UNL     1      -5.135  -6.499  -0.887  0.00  0.00    +0.115 C 
ATOM      2  C   UNL     1      -5.233  -8.003  -1.047  0.00  0.00    +0.247 C 
ATOM      3  O   UNL     1      -4.974  -8.652  -2.038  0.00  0.00    -0.273 OA
ATOM      4  N   UNL     1      -5.669  -8.468   0.140  0.00  0.00    -0.222 N 
ATOM      5  C   UNL     1      -5.858  -7.478   1.019  0.00  0.00    +0.309 C 
ATOM      6  O   UNL     1      -6.249  -7.650   2.157  0.00  0.00    -0.252 OA
ATOM      7  N   UNL     1      -5.569  -6.266   0.502  0.00  0.00    -0.285 N 
ATOM      8  H   UNL     1      -5.632  -5.410   0.954  0.00  0.00    +0.151 HD
ENDROOT
BRANCH   1   9
ATOM      9  C   UNL     1      -3.692  -6.029  -1.085  0.00  0.00    +0.018 C 
ATOM     10  C   UNL     1      -2.778  -6.752  -0.092  0.00  0.00    -0.013 C 
ATOM     11  C   UNL     1      -1.347  -6.234  -0.254  0.00  0.00    -0.078 C 
ATOM     12  C   UNL     1      -2.152  -4.067  -0.981  0.00  0.00    -0.078 C 
ATOM     13  C   UNL     1      -3.607  -4.520  -0.841  0.00  0.00    -0.013 C 
ATOM     14  N   UNL     1      -1.328  -4.781   0.018  0.00  0.00    +0.382 N 
ATOM     15  H   UNL     1      -1.718  -4.613   0.953  0.00  0.00    -0.081 HD
BRANCH  14  16
ATOM     16  C   UNL     1       0.060  -4.278  -0.020  0.00  0.00    -0.043 C 
BRANCH  16  17
ATOM     17  C   UNL     1       0.040  -2.771  -0.013  0.00  0.00    -0.062 A 
ATOM     18  C   UNL     1       0.042  -2.087   1.189  0.00  0.00    +0.005 A 
ATOM     19  C   UNL     1       0.023  -0.705   1.199  0.00  0.00    +0.047 A 
ATOM     20  C   UNL     1       0.002  -0.004   0.002  0.00  0.00    +0.135 A 
ATOM     21  C   UNL     1      -0.006  -0.693  -1.203  0.00  0.00    +0.082 A 
ATOM     22  C   UNL     1       0.018  -2.075  -1.208  0.00  0.00    +0.025 A 
ATOM     23 CL   UNL     1      -0.040   0.180  -2.703  0.00  0.00    -0.080 Cl
BRANCH  20  24
ATOM     24  O   UNL     1      -0.016   1.355   0.009  0.00  0.00    -0.505 OA
ATOM     25  H   UNL     1       0.862   1.760   0.003  0.00  0.00    +0.292 HD
ENDBRANCH  20  24
ENDBRANCH  16  17
ENDBRANCH  14  16
ENDBRANCH   1   9
BRANCH   1  26
ATOM     26  C   UNL     1      -6.070  -5.790  -1.869  0.00  0.00    +0.035 C 
BRANCH  26  28
ATOM     27  C   UNL     1      -8.453  -5.473  -2.550  0.00  0.00    +0.004 C 
ATOM     28  C   UNL     1      -7.518  -6.182  -1.567  0.00  0.00    -0.001 C 
ENDBRANCH  26  28
ENDBRANCH   1  26
BRANCH   4  29
ATOM     29  C   UNL     1      -5.906  -9.884   0.432  0.00  0.00    +0.149 C 
BRANCH  29  30
ATOM     30  C   UNL     1      -4.625 -10.513   0.981  0.00  0.00    +0.136 C 
ATOM     31  C   UNL     1      -4.861 -12.005   1.284  0.00  0.00    +0.035 C 
ATOM     32  C   UNL     1      -3.815 -12.741   0.412  0.00  0.00    +0.031 C 
ATOM     33  C   UNL     1      -2.773 -11.625   0.145  0.00  0.00    +0.160 C 
ATOM     34  O   UNL     1      -3.580 -10.435  -0.004  0.00  0.00    -0.375 OA
ENDBRANCH  29  30
ENDBRANCH   4  29
TORSDOF 8
