REMARK  Name = ZINC05517882
REMARK  11 active torsions:
REMARK  status: ('A' for Active; 'I' for Inactive)
REMARK    1  A    between atoms: C_4  and  C_11
REMARK    2  A    between atoms: N_12  and  C_13
REMARK    3  A    between atoms: C_13  and  C_14
REMARK    4  A    between atoms: C_14  and  O_15
REMARK    5  A    between atoms: O_15  and  C_16
REMARK    6  A    between atoms: C_16  and  C_17
REMARK    7  A    between atoms: C_17  and  O_18
REMARK    8  A    between atoms: O_18  and  C_19
REMARK    9  A    between atoms: C_19  and  C_20
REMARK   10  A    between atoms: C_20  and  N_21
REMARK   11  A    between atoms: C_22  and  C_23
REMARK                            x       y       z     vdW  Elec       q    Type
REMARK                         _______ _______ _______ _____ _____    ______ ____
ROOT
ATOM      1  C   UNL     1      -6.057  10.207   4.300  0.00  0.00    +0.188 C 
ENDROOT
BRANCH   1   2
ATOM      2  O   UNL     1      -5.143   9.796   5.319  0.00  0.00    -0.376 OA
BRANCH   2   3
ATOM      3  C   UNL     1      -5.543   8.615   6.016  0.00  0.00    +0.180 C 
BRANCH   3   4
ATOM      4  C   UNL     1      -4.496   8.271   7.078  0.00  0.00    +0.140 C 
BRANCH   4   6
ATOM      5  C   UNL     1      -4.419   9.018   9.351  0.00  0.00    +0.088 C 
ATOM      6  N   UNL     1      -4.464   9.328   8.092  0.00  0.00    -0.387 N 
ATOM      7  H   UNL     1      -4.475  10.260   7.822  0.00  0.00    +0.159 HD
BRANCH   5  11
ATOM      8  C   UNL     1      -5.262   6.557  13.246  0.00  0.00    +0.001 A 
ATOM      9  C   UNL     1      -5.106   7.425  12.187  0.00  0.00    +0.010 A 
ATOM     10  C   UNL     1      -4.439   7.001  11.041  0.00  0.00    +0.008 A 
ATOM     11  C   UNL     1      -4.099   7.643   9.758  0.00  0.00    +0.016 A 
ATOM     12  C   UNL     1      -3.430   6.710   9.023  0.00  0.00    +0.093 A 
ATOM     13  N   UNL     1      -3.327   5.557   9.732  0.00  0.00    -0.360 N 
ATOM     14  H   UNL     1      -2.890   4.750   9.416  0.00  0.00    +0.165 HD
ATOM     15  C   UNL     1      -3.928   5.695  10.965  0.00  0.00    +0.047 A 
ATOM     16  C   UNL     1      -4.097   4.834  12.044  0.00  0.00    +0.026 A 
ATOM     17  C   UNL     1      -4.759   5.266  13.173  0.00  0.00    +0.002 A 
ENDBRANCH   5  11
ENDBRANCH   4   6
ENDBRANCH   3   4
ENDBRANCH   2   3
ENDBRANCH   1   2
BRANCH   1  18
ATOM     18  C   UNL     1      -5.531  11.474   3.623  0.00  0.00    +0.188 C 
BRANCH  18  19
ATOM     19  O   UNL     1      -4.311  11.178   2.940  0.00  0.00    -0.376 OA
BRANCH  19  20
ATOM     20  C   UNL     1      -3.733  12.300   2.270  0.00  0.00    +0.180 C 
BRANCH  20  21
ATOM     21  C   UNL     1      -2.438  11.869   1.578  0.00  0.00    +0.140 C 
BRANCH  21  22
ATOM     22  N   UNL     1      -2.748  10.904   0.520  0.00  0.00    -0.387 N 
ATOM     23  C   UNL     1      -2.507  11.200  -0.720  0.00  0.00    +0.088 C 
ATOM     24  H   UNL     1      -3.134  10.043   0.746  0.00  0.00    +0.159 HD
BRANCH  23  25
ATOM     25  C   UNL     1      -2.015  12.539  -1.072  0.00  0.00    +0.016 A 
ATOM     26  C   UNL     1      -2.756  13.808  -0.964  0.00  0.00    +0.008 A 
ATOM     27  C   UNL     1      -1.878  14.807  -1.413  0.00  0.00    +0.047 A 
ATOM     28  N   UNL     1      -0.696  14.190  -1.767  0.00  0.00    -0.360 N 
ATOM     29  H   UNL     1       0.087  14.649  -2.111  0.00  0.00    +0.165 HD
ATOM     30  C   UNL     1      -0.781  12.852  -1.558  0.00  0.00    +0.093 A 
ATOM     31  C   UNL     1      -2.301  16.132  -1.428  0.00  0.00    +0.026 A 
ATOM     32  C   UNL     1      -3.573  16.452  -1.003  0.00  0.00    +0.002 A 
ATOM     33  C   UNL     1      -4.439  15.464  -0.559  0.00  0.00    +0.001 A 
ATOM     34  C   UNL     1      -4.038  14.146  -0.537  0.00  0.00    +0.010 A 
ENDBRANCH  23  25
ENDBRANCH  21  22
ENDBRANCH  20  21
ENDBRANCH  19  20
ENDBRANCH  18  19
ENDBRANCH   1  18
TORSDOF 11
