REMARK  Name = ZINC55597529
REMARK  6 active torsions:
REMARK  status: ('A' for Active; 'I' for Inactive)
REMARK    1  A    between atoms: C_1  and  C_2
REMARK    2  A    between atoms: C_5  and  C_8
REMARK    3  A    between atoms: C_9  and  S_10
REMARK    4  A    between atoms: S_10  and  N_13
REMARK    5  A    between atoms: N_13  and  C_14
REMARK    6  A    between atoms: C_18  and  N_20
REMARK                            x       y       z     vdW  Elec       q    Type
REMARK                         _______ _______ _______ _____ _____    ______ ____
ROOT
ATOM      1  N   UNL     1       1.529  -7.156   1.799  0.00  0.00    -0.098 NA
ENDROOT
BRANCH   1   2
ATOM      2  C   UNL     1       1.834  -8.515   1.907  0.00  0.00    +0.076 A 
ATOM      3  C   UNL     1       0.930  -9.470   1.457  0.00  0.00    +0.027 A 
ATOM      4  C   UNL     1       1.232 -10.813   1.563  0.00  0.00    +0.004 A 
ATOM      5  C   UNL     1       2.433 -11.213   2.117  0.00  0.00    +0.024 A 
ATOM      6  C   UNL     1       3.341 -10.264   2.569  0.00  0.00    +0.040 A 
ATOM      7  C   UNL     1       3.044  -8.913   2.459  0.00  0.00    +0.050 A 
BRANCH   6   8
ATOM      8  N   UNL     1       4.557 -10.670   3.131  0.00  0.00    -0.254 N 
ATOM      9  C   UNL     1       4.948 -12.061   3.403  0.00  0.00    +0.134 C 
ATOM     10  C   UNL     1       6.358 -11.936   4.011  0.00  0.00    +0.125 C 
ATOM     11  N   UNL     1       6.613 -10.488   4.017  0.00  0.00    -0.297 N 
ATOM     12  C   UNL     1       5.552  -9.853   3.500  0.00  0.00    +0.307 C 
ATOM     13  O   UNL     1       5.497  -8.644   3.381  0.00  0.00    -0.252 OA
ATOM     14  H   UNL     1       7.421 -10.061   4.339  0.00  0.00    +0.150 HD
ENDBRANCH   6   8
ENDBRANCH   1   2
BRANCH   1  15
ATOM     15  S   UNL     1       0.085  -6.682   1.141  0.00  0.00    +0.085 S 
ATOM     16  O   UNL     1      -0.931  -7.122   2.031  0.00  0.00    -0.149 OA
ATOM     17  O   UNL     1       0.117  -7.066  -0.227  0.00  0.00    -0.149 OA
BRANCH  15  19
ATOM     18  C   UNL     1       0.038  -4.239   0.033  0.00  0.00    +0.028 C 
ATOM     19  C   UNL     1       0.053  -4.921   1.170  0.00  0.00    +0.159 C 
BRANCH  18  24
ATOM     20  C   UNL     1      -0.069   1.513   0.127  0.00  0.00    +0.044 C 
ATOM     21  C   UNL     1      -0.041   0.006   0.102  0.00  0.00    -0.050 A 
ATOM     22  C   UNL     1      -0.029  -0.662  -1.109  0.00  0.00    +0.004 A 
ATOM     23  C   UNL     1      -0.004  -2.042  -1.138  0.00  0.00    +0.008 A 
ATOM     24  C   UNL     1       0.011  -2.762   0.057  0.00  0.00    -0.024 A 
ATOM     25  C   UNL     1       0.000  -2.081   1.275  0.00  0.00    +0.008 A 
ATOM     26  C   UNL     1      -0.021  -0.702   1.291  0.00  0.00    +0.004 A 
ENDBRANCH  18  24
ENDBRANCH  15  19
ENDBRANCH   1  15
TORSDOF 5
