REMARK  Name = ZINC20758178
REMARK  6 active torsions:
REMARK  status: ('A' for Active; 'I' for Inactive)
REMARK    1  A    between atoms: C_1  and  C_2
REMARK    2  A    between atoms: C_2  and  N_3
REMARK    3  A    between atoms: C_16  and  C_18
REMARK    4  A    between atoms: N_22  and  C_25
REMARK    5  A    between atoms: C_28  and  O_31
REMARK    6  A    between atoms: O_31  and  C_32
REMARK                            x       y       z     vdW  Elec       q    Type
REMARK                         _______ _______ _______ _____ _____    ______ ____
ROOT
ATOM      1  C   UNL     1      -0.275  -1.959   1.584  0.00  0.00    +0.074 A 
ATOM      2  C   UNL     1       0.231  -3.225   1.583  0.00  0.00    +0.260 A 
ATOM      3  N   UNL     1       0.148  -3.987   2.721  0.00  0.00    -0.274 N 
ATOM      4  C   UNL     1      -0.428  -3.492   3.832  0.00  0.00    +0.337 A 
ATOM      5  N   UNL     1      -0.933  -2.245   3.853  0.00  0.00    -0.229 N 
ATOM      6  C   UNL     1      -0.868  -1.462   2.758  0.00  0.00    +0.267 A 
ATOM      7  O   UNL     1      -1.323  -0.331   2.785  0.00  0.00    -0.267 OA
ATOM      8  O   UNL     1      -0.493  -4.182   4.831  0.00  0.00    -0.246 OA
ATOM      9  O   UNL     1       0.809  -3.725   0.470  0.00  0.00    -0.267 OA
ATOM     10  H   UNL     1       0.506  -4.888   2.724  0.00  0.00    +0.173 HD
ENDROOT
BRANCH   1  24
ATOM     11  N   UNL     1       0.474   0.167   0.667  0.00  0.00    +0.388 N 
ATOM     12  C   UNL     1       0.403   1.082  -0.479  0.00  0.00    -0.073 C 
ATOM     13  C   UNL     1      -1.032   1.608  -0.626  0.00  0.00    +0.019 C 
ATOM     14  C   UNL     1      -1.964   0.423  -0.587  0.00  0.00    -0.022 A 
ATOM     15  C   UNL     1      -3.353   0.332  -0.975  0.00  0.00    +0.003 A 
ATOM     16  C   UNL     1      -4.260   1.264  -1.491  0.00  0.00    +0.010 A 
ATOM     17  C   UNL     1      -5.532   0.815  -1.750  0.00  0.00    +0.001 A 
ATOM     18  C   UNL     1      -5.912  -0.496  -1.515  0.00  0.00    +0.002 A 
ATOM     19  C   UNL     1      -5.036  -1.439  -1.005  0.00  0.00    +0.026 A 
ATOM     20  C   UNL     1      -3.738  -1.012  -0.733  0.00  0.00    +0.047 A 
ATOM     21  N   UNL     1      -2.646  -1.666  -0.237  0.00  0.00    -0.359 N 
ATOM     22  H   UNL     1      -2.623  -2.602   0.017  0.00  0.00    +0.166 HD
ATOM     23  C   UNL     1      -1.589  -0.801  -0.151  0.00  0.00    +0.011 A 
ATOM     24  C   UNL     1      -0.196  -1.103   0.347  0.00  0.00    +0.021 C 
ATOM     25  H   UNL     1       0.020   0.593   1.462  0.00  0.00    -0.080 HD
BRANCH  11  27
ATOM     26  C   UNL     1       2.550   1.205   1.448  0.00  0.00    -0.017 C 
ATOM     27  C   UNL     1       1.882  -0.095   0.994  0.00  0.00    -0.081 C 
ENDBRANCH  11  27
ENDBRANCH   1  24
BRANCH   5  28
ATOM     28  C   UNL     1      -1.528  -1.755   5.025  0.00  0.00    +0.055 A 
ATOM     29  C   UNL     1      -0.758  -1.087   5.968  0.00  0.00    +0.030 A 
ATOM     30  C   UNL     1      -1.345  -0.605   7.121  0.00  0.00    +0.047 A 
ATOM     31  C   UNL     1      -2.702  -0.788   7.338  0.00  0.00    +0.120 A 
ATOM     32  C   UNL     1      -3.472  -1.455   6.397  0.00  0.00    +0.047 A 
ATOM     33  C   UNL     1      -2.888  -1.933   5.240  0.00  0.00    +0.030 A 
BRANCH  31  34
ATOM     34  O   UNL     1      -3.279  -0.313   8.474  0.00  0.00    -0.495 OA
ATOM     35  C   UNL     1      -4.681  -0.537   8.633  0.00  0.00    +0.277 C 
ENDBRANCH  31  34
ENDBRANCH   5  28
TORSDOF 4
