REMARK  Name = ZINC07275658
REMARK  4 active torsions:
REMARK  status: ('A' for Active; 'I' for Inactive)
REMARK    1  A    between atoms: C_1  and  O_2
REMARK    2  A    between atoms: O_2  and  C_3
REMARK    3  A    between atoms: C_6  and  N_9
REMARK    4  A    between atoms: C_15  and  C_16
REMARK                            x       y       z     vdW  Elec       q    Type
REMARK                         _______ _______ _______ _____ _____    ______ ____
ROOT
ATOM      1  N   UNL     1       2.146   0.247  -1.052  0.00  0.00    -0.226 NA
ATOM      2  C   UNL     1       3.168   0.858  -1.606  0.00  0.00    +0.166 C 
ATOM      3  N   UNL     1       4.494   0.480  -1.609  0.00  0.00    -0.260 N 
ATOM      4  C   UNL     1       5.404   1.219  -2.221  0.00  0.00    +0.256 C 
ATOM      5  O   UNL     1       6.578   0.901  -2.233  0.00  0.00    -0.269 OA
ATOM      6  C   UNL     1       4.929   2.448  -2.890  0.00  0.00    +0.078 C 
ATOM      7  C   UNL     1       5.633   3.377  -3.582  0.00  0.00    +0.028 C 
ATOM      8  S   UNL     1       3.177   2.377  -2.545  0.00  0.00    -0.049 S 
ATOM      9  H   UNL     1       4.803  -0.443  -1.098  0.00  0.00    +0.157 HD
ENDROOT
BRANCH   7  10
ATOM     10  C   UNL     1       4.926   4.439  -4.314  0.00  0.00    -0.021 A 
ATOM     11  C   UNL     1       5.643   5.503  -4.874  0.00  0.00    +0.008 A 
ATOM     12  C   UNL     1       4.975   6.493  -5.563  0.00  0.00    +0.003 A 
ATOM     13  C   UNL     1       3.598   6.443  -5.693  0.00  0.00    +0.038 A 
ATOM     14  C   UNL     1       2.879   5.396  -5.137  0.00  0.00    +0.124 A 
ATOM     15  C   UNL     1       3.535   4.394  -4.449  0.00  0.00    +0.046 A 
ATOM     16  F   UNL     1       1.535   5.356  -5.269  0.00  0.00    -0.205 F 
ENDBRANCH   7  10
BRANCH   1  20
ATOM     17  C   UNL     1      -1.654   1.862  -1.370  0.00  0.00    +0.120 A 
ATOM     18  C   UNL     1      -1.458   0.506  -1.588  0.00  0.00    +0.048 A 
ATOM     19  C   UNL     1      -0.196  -0.038  -1.478  0.00  0.00    +0.031 A 
ATOM     20  C   UNL     1       0.889   0.781  -1.158  0.00  0.00    +0.067 A 
ATOM     21  C   UNL     1       0.689   2.147  -0.944  0.00  0.00    +0.031 A 
ATOM     22  C   UNL     1      -0.579   2.680  -1.051  0.00  0.00    +0.048 A 
BRANCH  17  24
ATOM     23  C   UNL     1      -3.963   1.495  -1.805  0.00  0.00    +0.277 C 
ATOM     24  O   UNL     1      -2.902   2.393  -1.474  0.00  0.00    -0.495 OA
ENDBRANCH  17  24
ENDBRANCH   1  20
TORSDOF 3
