REMARK  Name = ZINC20900191
REMARK  7 active torsions:
REMARK  status: ('A' for Active; 'I' for Inactive)
REMARK    1  A    between atoms: C_1  and  C_2
REMARK    2  A    between atoms: C_2  and  C_3
REMARK    3  A    between atoms: C_3  and  C_4
REMARK    4  A    between atoms: C_9  and  C_25
REMARK    5  A    between atoms: N_16  and  C_17
REMARK    6  A    between atoms: C_19  and  C_24
REMARK    7  A    between atoms: C_21  and  C_23
REMARK                            x       y       z     vdW  Elec       q    Type
REMARK                         _______ _______ _______ _____ _____    ______ ____
ROOT
ATOM      1  C   UNL     1      -1.231   2.123  -0.428  0.00  0.00    +0.124 C 
ATOM      2  C   UNL     1      -1.252   3.242   0.594  0.00  0.00    +0.040 A 
ATOM      3  C   UNL     1      -2.272   4.063   0.888  0.00  0.00    +0.025 A 
ATOM      4  C   UNL     1      -1.820   4.951   1.886  0.00  0.00    +0.023 A 
ATOM      5  C   UNL     1      -0.538   4.633   2.162  0.00  0.00    +0.016 A 
ATOM      6  N   UNL     1      -0.181   3.581   1.375  0.00  0.00    -0.345 N 
ATOM      7  C   UNL     1       1.119   2.902   1.348  0.00  0.00    +0.141 C 
ATOM      8  C   UNL     1       1.250   2.115   0.040  0.00  0.00    +0.131 C 
ATOM      9  N   UNL     1       0.011   1.361  -0.200  0.00  0.00    -0.275 N 
ATOM     10  C   UNL     1       0.011   0.014  -0.217  0.00  0.00    +0.307 C 
ATOM     11  O   UNL     1      -1.037  -0.593  -0.325  0.00  0.00    -0.252 OA
ATOM     12  N   UNL     1       1.173  -0.661  -0.114  0.00  0.00    -0.269 N 
ATOM     13  C   UNL     1       0.347   5.323   3.168  0.00  0.00    +0.063 C 
ATOM     14  H   UNL     1       2.112  -0.116   0.058  0.00  0.00    +0.156 HD
ENDROOT
BRANCH  12  15
ATOM     15  C   UNL     1       1.184  -2.056  -0.228  0.00  0.00    +0.035 A 
ATOM     16  C   UNL     1       2.247  -2.695  -0.852  0.00  0.00    +0.026 A 
ATOM     17  C   UNL     1       2.257  -4.072  -0.958  0.00  0.00    -0.048 A 
ATOM     18  C   UNL     1       1.205  -4.814  -0.452  0.00  0.00    +0.006 A 
ATOM     19  C   UNL     1       0.143  -4.180   0.166  0.00  0.00    -0.048 A 
ATOM     20  C   UNL     1       0.129  -2.804   0.280  0.00  0.00    +0.026 A 
ATOM     21  C   UNL     1      -1.001  -4.992   0.717  0.00  0.00    +0.044 C 
ATOM     22  C   UNL     1       3.413  -4.767  -1.631  0.00  0.00    +0.044 C 
ENDBRANCH  12  15
BRANCH   1  23
ATOM     23  C   UNL     1      -1.235   2.704  -1.844  0.00  0.00    +0.028 C 
BRANCH  23  25
ATOM     24  C   UNL     1      -1.278   2.144  -4.278  0.00  0.00    +0.004 C 
ATOM     25  C   UNL     1      -1.274   1.563  -2.863  0.00  0.00    -0.001 C 
ENDBRANCH  23  25
ENDBRANCH   1  23
TORSDOF 3
