REMARK  Name = ZINC66643318
REMARK  5 active torsions:
REMARK  status: ('A' for Active; 'I' for Inactive)
REMARK    1  A    between atoms: C_1  and  N_2
REMARK    2  A    between atoms: N_2  and  C_3
REMARK    3  A    between atoms: C_3  and  C_4
REMARK    4  A    between atoms: C_15  and  C_18
REMARK    5  A    between atoms: N_20  and  C_21
REMARK                            x       y       z     vdW  Elec       q    Type
REMARK                         _______ _______ _______ _____ _____    ______ ____
ROOT
ATOM      1  C   UNL     1      -0.423   0.927   0.106  0.00  0.00    +0.134 C 
ATOM      2  N   UNL     1      -0.100  -0.494  -0.039  0.00  0.00    -0.284 N 
ATOM      3  C   UNL     1      -0.033  -1.048  -1.266  0.00  0.00    +0.305 C 
ATOM      4  O   UNL     1       0.031  -2.256  -1.385  0.00  0.00    -0.252 OA
ATOM      5  N   UNL     1      -0.036  -0.263  -2.361  0.00  0.00    -0.285 N 
ATOM      6  C   UNL     1       0.296   1.165  -2.260  0.00  0.00    +0.110 C 
ATOM      7  C   UNL     1       1.416   1.482  -3.256  0.00  0.00    +0.032 C 
ATOM      8  C   UNL     1       0.990   1.034  -4.656  0.00  0.00    +0.078 C 
ATOM      9  C   UNL     1       0.754  -0.478  -4.660  0.00  0.00    +0.032 C 
ATOM     10  C   UNL     1      -0.367  -0.819  -3.680  0.00  0.00    +0.110 C 
ENDROOT
BRANCH   8  11
ATOM     11  C   UNL     1       2.075   1.376  -5.645  0.00  0.00    +0.221 C 
ATOM     12  O   UNL     1       3.089   1.923  -5.267  0.00  0.00    -0.275 OA
ATOM     13  N   UNL     1       1.918   1.072  -6.948  0.00  0.00    -0.281 N 
ATOM     14  H   UNL     1       1.139   0.574  -7.240  0.00  0.00    +0.155 HD
BRANCH  13  15
ATOM     15  C   UNL     1       2.881   1.477  -7.883  0.00  0.00    +0.099 A 
ATOM     16  C   UNL     1       3.520   0.553  -8.663  0.00  0.00    +0.030 A 
ATOM     17  C   UNL     1       4.480   0.985  -9.589  0.00  0.00    +0.019 A 
ATOM     18  C   UNL     1       4.765   2.302  -9.704  0.00  0.00    +0.086 A 
ATOM     19  N   UNL     1       4.131   3.222  -8.930  0.00  0.00    -0.328 N 
ATOM     20  C   UNL     1       3.200   2.844  -8.034  0.00  0.00    +0.270 A 
ATOM     21  O   UNL     1       2.636   3.682  -7.349  0.00  0.00    -0.266 OA
ATOM     22  H   UNL     1       4.350   4.162  -9.027  0.00  0.00    +0.168 HD
ENDBRANCH  13  15
ENDBRANCH   8  11
BRANCH   2  23
ATOM     23  C   UNL     1       0.152  -1.313   1.149  0.00  0.00    +0.144 C 
BRANCH  23  24
ATOM     24  C   UNL     1      -1.144  -1.916   1.627  0.00  0.00    -0.030 A 
ATOM     25  C   UNL     1      -1.928  -1.235   2.539  0.00  0.00    +0.005 A 
ATOM     26  C   UNL     1      -3.117  -1.788   2.977  0.00  0.00    +0.000 A 
ATOM     27  C   UNL     1      -3.522  -3.022   2.503  0.00  0.00    +0.000 A 
ATOM     28  C   UNL     1      -2.738  -3.702   1.590  0.00  0.00    +0.000 A 
ATOM     29  C   UNL     1      -1.551  -3.147   1.148  0.00  0.00    +0.005 A 
ENDBRANCH  23  24
ENDBRANCH   2  23
TORSDOF 4
