REMARK  Name = ZINC11854857
REMARK  11 active torsions:
REMARK  status: ('A' for Active; 'I' for Inactive)
REMARK    1  A    between atoms: C_1  and  C_2
REMARK    2  A    between atoms: C_2  and  C_3
REMARK    3  A    between atoms: C_3  and  C_4
REMARK    4  A    between atoms: C_13  and  N_22
REMARK    5  A    between atoms: C_15  and  C_17
REMARK    6  A    between atoms: C_23  and  C_25
REMARK    7  A    between atoms: C_25  and  C_26
REMARK    8  A    between atoms: C_26  and  C_27
REMARK    9  A    between atoms: C_27  and  O_29
REMARK   10  A    between atoms: O_29  and  C_30
REMARK   11  A    between atoms: C_30  and  C_31
REMARK                            x       y       z     vdW  Elec       q    Type
REMARK                         _______ _______ _______ _____ _____    ______ ____
ROOT
ATOM      1  C   UNL     1      -3.933  -0.022   0.020  0.00  0.00    +0.050 A 
ATOM      2  C   UNL     1      -4.988   0.842   0.029  0.00  0.00    +0.093 A 
ATOM      3  C   UNL     1      -4.732   2.226   0.035  0.00  0.00    +0.253 A 
ATOM      4  O   UNL     1      -5.652   3.029   0.044  0.00  0.00    -0.268 OA
ATOM      5  N   UNL     1      -3.450   2.649   0.037  0.00  0.00    -0.291 N 
ATOM      6  H   UNL     1      -3.250   3.598   0.044  0.00  0.00    +0.172 HD
ATOM      7  C   UNL     1      -2.440   1.739   0.022  0.00  0.00    +0.234 A 
ATOM      8  N   UNL     1      -2.686   0.447   0.017  0.00  0.00    -0.217 NA
ATOM      9  N   UNL     1      -1.131   2.180   0.019  0.00  0.00    -0.185 N 
ATOM     10  C   UNL     1      -0.017   1.389   0.010  0.00  0.00    +0.132 A 
ATOM     11  C   UNL     1       1.068   2.204   0.004  0.00  0.00    +0.074 A 
ATOM     12  C   UNL     1       0.606   3.538   0.015  0.00  0.00    +0.102 A 
ATOM     13  N   UNL     1      -0.712   3.517   0.027  0.00  0.00    -0.162 NA
ENDROOT
BRANCH  12  14
ATOM     14  C   UNL     1       1.453   4.749   0.012  0.00  0.00    +0.039 A 
ATOM     15  C   UNL     1       1.077   6.065   0.022  0.00  0.00    +0.018 A 
ATOM     16  C   UNL     1       2.056   7.034   0.017  0.00  0.00    +0.008 A 
ATOM     17  C   UNL     1       3.360   6.656   0.003  0.00  0.00    +0.046 A 
ATOM     18  S   UNL     1       3.234   4.876   0.003  0.00  0.00    -0.095 S 
ENDBRANCH  12  14
BRANCH  10  19
ATOM     19  N   UNL     1       0.002  -0.004   0.002  0.00  0.00    -0.270 N 
ATOM     20  C   UNL     1       1.178  -0.662  -0.012  0.00  0.00    +0.219 C 
ATOM     21  O   UNL     1       2.220  -0.041  -0.018  0.00  0.00    -0.275 OA
ATOM     22  H   UNL     1      -0.831  -0.500   0.007  0.00  0.00    +0.156 HD
BRANCH  20  23
ATOM     23  C   UNL     1       1.199  -2.169  -0.021  0.00  0.00    +0.107 C 
BRANCH  23  24
ATOM     24  C   UNL     1       2.648  -2.659  -0.036  0.00  0.00    +0.130 C 
BRANCH  24  25
ATOM     25  C   UNL     1       2.668  -4.166  -0.045  0.00  0.00    +0.308 C 
ATOM     26  O   UNL     1       1.630  -4.784  -0.038  0.00  0.00    -0.251 OA
BRANCH  25  27
ATOM     27  O   UNL     1       3.840  -4.821  -0.059  0.00  0.00    -0.465 OA
BRANCH  27  28
ATOM     28  C   UNL     1       3.783  -6.272  -0.066  0.00  0.00    +0.229 C 
ATOM     29  C   UNL     1       5.205  -6.838  -0.082  0.00  0.00    +0.048 C 
ENDBRANCH  27  28
ENDBRANCH  25  27
ENDBRANCH  24  25
ENDBRANCH  23  24
ENDBRANCH  20  23
ENDBRANCH  10  19
BRANCH   1  30
ATOM     30  C   UNL     1      -4.177  -1.509   0.014  0.00  0.00    +0.055 C 
BRANCH  30  32
ATOM     31  C   UNL     1      -4.391  -3.535  -1.432  0.00  0.00    +0.004 C 
ATOM     32  C   UNL     1      -4.143  -2.026  -1.426  0.00  0.00    +0.003 C 
ENDBRANCH  30  32
ENDBRANCH   1  30
TORSDOF 9
