REMARK  Name = ZINC15045540
REMARK  7 active torsions:
REMARK  status: ('A' for Active; 'I' for Inactive)
REMARK    1  A    between atoms: C_1  and  C_2
REMARK    2  A    between atoms: C_7  and  N_8
REMARK    3  A    between atoms: C_9  and  C_11
REMARK    4  A    between atoms: C_11  and  C_13
REMARK    5  A    between atoms: C_11  and  N_14
REMARK    6  A    between atoms: C_18  and  C_19
REMARK    7  A    between atoms: C_24  and  O_25
REMARK                            x       y       z     vdW  Elec       q    Type
REMARK                         _______ _______ _______ _____ _____    ______ ____
ROOT
ATOM      1  N   UNL     1      -3.399  -2.491  -0.321  0.00  0.00    -0.244 N 
ATOM      2  C   UNL     1      -3.818  -3.153  -1.386  0.00  0.00    +0.259 C 
ATOM      3  O   UNL     1      -4.426  -2.601  -2.284  0.00  0.00    -0.269 OA
ATOM      4  C   UNL     1      -3.507  -4.596  -1.432  0.00  0.00    +0.077 C 
ATOM      5  C   UNL     1      -3.803  -5.515  -2.387  0.00  0.00    +0.031 C 
ATOM      6  S   UNL     1      -2.640  -4.801   0.117  0.00  0.00    -0.061 S 
ATOM      7  C   UNL     1      -2.731  -3.108   0.675  0.00  0.00    +0.121 C 
ATOM      8  S   UNL     1      -2.118  -2.430   2.123  0.00  0.00    -0.027 S 
ENDROOT
BRANCH   5   9
ATOM      9  C   UNL     1      -3.484  -6.930  -2.167  0.00  0.00    +0.018 A 
ATOM     10  C   UNL     1      -2.339  -7.291  -1.446  0.00  0.00    +0.011 A 
ATOM     11  C   UNL     1      -2.047  -8.622  -1.244  0.00  0.00    +0.001 A 
ATOM     12  C   UNL     1      -2.880  -9.606  -1.750  0.00  0.00    +0.004 A 
ATOM     13  C   UNL     1      -4.014  -9.265  -2.463  0.00  0.00    +0.046 A 
ATOM     14  C   UNL     1      -4.328  -7.932  -2.673  0.00  0.00    +0.124 A 
BRANCH  14  15
ATOM     15  O   UNL     1      -5.444  -7.597  -3.369  0.00  0.00    -0.506 OA
ATOM     16  H   UNL     1      -5.303  -7.511  -4.322  0.00  0.00    +0.292 HD
ENDBRANCH  14  15
ENDBRANCH   5   9
BRANCH   1  17
ATOM     17  C   UNL     1      -3.673  -1.055  -0.218  0.00  0.00    +0.166 C 
ATOM     18  C   UNL     1      -4.515  -0.785   1.030  0.00  0.00    +0.038 C 
BRANCH  17  20
ATOM     19  N   UNL     1      -2.376   1.042  -0.014  0.00  0.00    -0.284 N 
ATOM     20  C   UNL     1      -2.371  -0.302  -0.118  0.00  0.00    +0.238 C 
ATOM     21  O   UNL     1      -1.319  -0.905  -0.132  0.00  0.00    -0.273 OA
ATOM     22  H   UNL     1      -3.216   1.518   0.082  0.00  0.00    +0.155 HD
BRANCH  19  29
ATOM     23  C   UNL     1      -2.285   3.592   1.246  0.00  0.00    +0.045 C 
ATOM     24  C   UNL     1      -1.082   2.999   0.559  0.00  0.00    -0.029 A 
ATOM     25  C   UNL     1       0.108   3.698   0.524  0.00  0.00    +0.005 A 
ATOM     26  C   UNL     1       1.213   3.155  -0.105  0.00  0.00    +0.000 A 
ATOM     27  C   UNL     1       1.131   1.909  -0.700  0.00  0.00    +0.002 A 
ATOM     28  C   UNL     1      -0.057   1.204  -0.668  0.00  0.00    +0.023 A 
ATOM     29  C   UNL     1      -1.170   1.750  -0.042  0.00  0.00    +0.036 A 
ENDBRANCH  19  29
ENDBRANCH  17  20
ENDBRANCH   1  17
TORSDOF 5
