REMARK  Name = ZINC64352685
REMARK  7 active torsions:
REMARK  status: ('A' for Active; 'I' for Inactive)
REMARK    1  A    between atoms: C_1  and  C_2
REMARK    2  A    between atoms: C_7  and  N_12
REMARK    3  A    between atoms: C_13  and  C_15
REMARK    4  A    between atoms: C_15  and  C_17
REMARK    5  A    between atoms: C_15  and  N_27
REMARK    6  A    between atoms: C_17  and  C_18
REMARK    7  A    between atoms: C_28  and  C_30
REMARK                            x       y       z     vdW  Elec       q    Type
REMARK                         _______ _______ _______ _____ _____    ______ ____
ROOT
ATOM      1  C   UNL     1       6.959  -4.475  -1.459  0.00  0.00    +0.163 C 
ENDROOT
BRANCH   1   3
ATOM      2  N   UNL     1       4.799  -3.270  -1.392  0.00  0.00    -0.284 N 
ATOM      3  C   UNL     1       5.819  -3.832  -0.712  0.00  0.00    +0.238 C 
ATOM      4  O   UNL     1       5.818  -3.820   0.501  0.00  0.00    -0.273 OA
ATOM      5  H   UNL     1       4.760  -3.346  -2.358  0.00  0.00    +0.155 HD
BRANCH   2  11
ATOM      6  C   UNL     1       1.285  -0.450   3.888  0.00  0.00    +0.074 C 
ATOM      7  C   UNL     1       1.793   0.066   2.539  0.00  0.00    +0.257 C 
ATOM      8  N   UNL     1       3.162  -0.409   2.300  0.00  0.00    -0.307 N 
ATOM      9  C   UNL     1       3.110  -1.184   1.132  0.00  0.00    +0.074 A 
ATOM     10  C   UNL     1       4.105  -1.871   0.450  0.00  0.00    +0.050 A 
ATOM     11  C   UNL     1       3.796  -2.576  -0.703  0.00  0.00    +0.035 A 
ATOM     12  C   UNL     1       2.490  -2.594  -1.174  0.00  0.00    +0.027 A 
ATOM     13  C   UNL     1       1.499  -1.911  -0.496  0.00  0.00    +0.049 A 
ATOM     14  C   UNL     1       1.802  -1.202   0.660  0.00  0.00    +0.144 A 
ATOM     15  O   UNL     1       0.997  -0.467   1.477  0.00  0.00    -0.469 OA
ATOM     16  H   UNL     1       3.945  -0.224   2.841  0.00  0.00    +0.150 HD
ENDBRANCH   2  11
ENDBRANCH   1   3
BRANCH   1  17
ATOM     17  N   UNL     1       8.125  -4.575  -0.578  0.00  0.00    -0.299 N 
ATOM     18  C   UNL     1       8.045  -5.282   0.567  0.00  0.00    +0.251 C 
ATOM     19  O   UNL     1       7.005  -5.837   0.869  0.00  0.00    -0.270 OA
ATOM     20  H   UNL     1       8.954  -4.133  -0.818  0.00  0.00    +0.150 HD
BRANCH  18  21
ATOM     21  C   UNL     1       9.212  -5.383   1.449  0.00  0.00    +0.074 A 
ATOM     22  C   UNL     1       9.341  -6.057   2.654  0.00  0.00    +0.021 A 
ATOM     23  C   UNL     1      10.572  -5.968   3.258  0.00  0.00    +0.008 A 
ATOM     24  C   UNL     1      11.551  -5.248   2.657  0.00  0.00    +0.046 A 
ATOM     25  S   UNL     1      10.836  -4.677   1.248  0.00  0.00    -0.092 S 
ENDBRANCH  18  21
ENDBRANCH   1  17
BRANCH   1  26
ATOM     26  C   UNL     1       6.543  -5.874  -1.917  0.00  0.00    +0.065 C 
BRANCH  26  27
ATOM     27  C   UNL     1       7.636  -6.469  -2.768  0.00  0.00    -0.039 C 
ATOM     28  C   UNL     1       8.626  -7.295  -2.359  0.00  0.00    -0.001 A 
ATOM     29  C   UNL     1       8.969  -7.865  -1.050  0.00  0.00    +0.010 A 
ATOM     30  C   UNL     1      10.045  -8.679  -0.951  0.00  0.00    +0.001 A 
ATOM     31  C   UNL     1      10.838  -8.990  -2.063  0.00  0.00    +0.002 A 
ATOM     32  C   UNL     1      10.587  -8.506  -3.297  0.00  0.00    +0.026 A 
ATOM     33  C   UNL     1       9.480  -7.641  -3.518  0.00  0.00    +0.043 A 
ATOM     34  N   UNL     1       9.035  -7.050  -4.601  0.00  0.00    -0.380 N 
ATOM     35  C   UNL     1       7.844  -6.268  -4.252  0.00  0.00    +0.144 C 
ATOM     36  H   UNL     1       9.426  -7.122  -5.486  0.00  0.00    +0.160 HD
ENDBRANCH  26  27
ENDBRANCH   1  26
TORSDOF 6
