REMARK  Name = ZINC02130319
REMARK  7 active torsions:
REMARK  status: ('A' for Active; 'I' for Inactive)
REMARK    1  A    between atoms: C_1  and  C_2
REMARK    2  A    between atoms: C_2  and  C_3
REMARK    3  A    between atoms: C_2  and  N_4
REMARK    4  A    between atoms: C_10  and  C_26
REMARK    5  A    between atoms: C_22  and  C_25
REMARK    6  A    between atoms: C_31  and  O_32
REMARK    7  A    between atoms: O_32  and  C_33
REMARK                            x       y       z     vdW  Elec       q    Type
REMARK                         _______ _______ _______ _____ _____    ______ ____
ROOT
ATOM      1  N   UNL     1       1.103  -0.731  -0.190  0.00  0.00    -0.288 N 
ATOM      2  C   UNL     1       2.420  -0.156  -0.412  0.00  0.00    +0.204 C 
ATOM      3  C   UNL     1       2.418   1.331  -0.263  0.00  0.00    +0.234 C 
ATOM      4  O   UNL     1       3.473   1.915  -0.388  0.00  0.00    -0.274 OA
ATOM      5  N   UNL     1       1.329   2.058   0.000  0.00  0.00    -0.280 N 
ATOM      6  C   UNL     1       1.479   3.492   0.314  0.00  0.00    +0.122 C 
ATOM      7  C   UNL     1       1.037   3.730   1.762  0.00  0.00    +0.072 C 
ATOM      8  C   UNL     1      -0.260   3.002   2.008  0.00  0.00    -0.008 A 
ATOM      9  C   UNL     1      -1.221   3.210   3.072  0.00  0.00    +0.004 A 
ATOM     10  C   UNL     1      -1.261   4.097   4.152  0.00  0.00    +0.010 A 
ATOM     11  C   UNL     1      -2.350   4.012   4.984  0.00  0.00    +0.001 A 
ATOM     12  C   UNL     1      -3.367   3.095   4.774  0.00  0.00    +0.002 A 
ATOM     13  C   UNL     1      -3.353   2.206   3.713  0.00  0.00    +0.026 A 
ATOM     14  C   UNL     1      -2.259   2.269   2.852  0.00  0.00    +0.047 A 
ATOM     15  N   UNL     1      -1.932   1.557   1.734  0.00  0.00    -0.356 N 
ATOM     16  H   UNL     1      -2.466   0.843   1.351  0.00  0.00    +0.166 HD
ATOM     17  C   UNL     1      -0.738   2.002   1.235  0.00  0.00    +0.054 A 
ATOM     18  C   UNL     1      -0.018   1.489   0.010  0.00  0.00    +0.151 C 
ATOM     19  C   UNL     1       0.002  -0.004   0.002  0.00  0.00    +0.246 C 
ATOM     20  O   UNL     1      -1.045  -0.590   0.180  0.00  0.00    -0.273 OA
ATOM     21  C   UNL     1      -0.772   1.980  -1.228  0.00  0.00    +0.048 C 
ENDROOT
BRANCH   7  22
ATOM     22  C   UNL     1       2.093   3.210   2.704  0.00  0.00    +0.003 A 
ATOM     23  C   UNL     1       2.443   1.874   2.679  0.00  0.00    +0.008 A 
ATOM     24  C   UNL     1       3.412   1.396   3.542  0.00  0.00    +0.001 A 
ATOM     25  C   UNL     1       4.032   2.253   4.432  0.00  0.00    +0.004 A 
ATOM     26  C   UNL     1       3.685   3.590   4.461  0.00  0.00    +0.046 A 
ATOM     27  C   UNL     1       2.717   4.073   3.592  0.00  0.00    +0.124 A 
BRANCH  27  28
ATOM     28  O   UNL     1       2.378   5.389   3.614  0.00  0.00    -0.495 OA
ATOM     29  C   UNL     1       3.062   6.219   4.555  0.00  0.00    +0.277 C 
ENDBRANCH  27  28
ENDBRANCH   7  22
BRANCH   1  31
ATOM     30  C   UNL     1       1.434  -2.755  -1.522  0.00  0.00    +0.028 C 
ATOM     31  C   UNL     1       0.980  -2.190  -0.174  0.00  0.00    +0.070 C 
ATOM     32  C   UNL     1       1.856  -2.764   0.941  0.00  0.00    +0.028 C 
ENDBRANCH   1  31
TORSDOF 3
