REMARK  Name = ZINC39533640
REMARK  9 active torsions:
REMARK  status: ('A' for Active; 'I' for Inactive)
REMARK    1  A    between atoms: C_4  and  C_7
REMARK    2  A    between atoms: C_7  and  N_8
REMARK    3  A    between atoms: N_8  and  C_9
REMARK    4  A    between atoms: C_9  and  C_10
REMARK    5  A    between atoms: C_10  and  C_12
REMARK    6  A    between atoms: C_10  and  N_24
REMARK    7  A    between atoms: C_15  and  C_18
REMARK    8  A    between atoms: C_28  and  C_31
REMARK    9  A    between atoms: C_36  and  O_37
REMARK                            x       y       z     vdW  Elec       q    Type
REMARK                         _______ _______ _______ _____ _____    ______ ____
ROOT
ATOM      1  C   UNL     1       6.469  -1.362   2.666  0.00  0.00    -0.024 C 
ENDROOT
BRANCH   1   2
ATOM      2  N   UNL     1       5.602  -1.034   3.806  0.00  0.00    +0.383 N 
ATOM      3  C   UNL     1       5.987   0.273   4.354  0.00  0.00    -0.097 C 
ATOM      4  C   UNL     1       5.084   0.615   5.541  0.00  0.00    -0.101 C 
ATOM      5  N   UNL     1       5.229  -0.414   6.579  0.00  0.00    +0.381 N 
ATOM      6  C   UNL     1       4.844  -1.721   6.030  0.00  0.00    -0.054 C 
ATOM      7  C   UNL     1       5.747  -2.063   4.844  0.00  0.00    -0.089 C 
ATOM      8  H   UNL     1       6.190  -0.448   6.886  0.00  0.00    -0.085 HD
ATOM      9  H   UNL     1       4.641  -0.999   3.498  0.00  0.00    -0.081 HD
ATOM     10  H   UNL     1       4.633  -0.189   7.362  0.00  0.00    -0.085 HD
BRANCH   6  11
ATOM     11  C   UNL     1       4.993  -2.776   7.096  0.00  0.00    -0.022 A 
ATOM     12  C   UNL     1       5.907  -2.604   8.117  0.00  0.00    +0.005 A 
ATOM     13  C   UNL     1       6.045  -3.572   9.094  0.00  0.00    +0.000 A 
ATOM     14  C   UNL     1       5.267  -4.715   9.052  0.00  0.00    +0.004 A 
ATOM     15  C   UNL     1       4.351  -4.892   8.034  0.00  0.00    +0.045 A 
ATOM     16  C   UNL     1       4.207  -3.919   7.055  0.00  0.00    +0.118 A 
BRANCH  16  17
ATOM     17  O   UNL     1       3.303  -4.088   6.055  0.00  0.00    -0.507 OA
ATOM     18  H   UNL     1       3.630  -4.615   5.313  0.00  0.00    +0.292 HD
ENDBRANCH  16  17
ENDBRANCH   6  11
ENDBRANCH   1   2
BRANCH   1  19
ATOM     19  C   UNL     1       7.781  -1.903   3.174  0.00  0.00    -0.060 A 
ATOM     20  C   UNL     1       8.766  -1.032   3.604  0.00  0.00    +0.002 A 
ATOM     21  C   UNL     1       9.969  -1.522   4.070  0.00  0.00    +0.009 A 
ATOM     22  C   UNL     1      10.191  -2.897   4.105  0.00  0.00    -0.018 A 
ATOM     23  C   UNL     1       9.196  -3.770   3.670  0.00  0.00    +0.009 A 
ATOM     24  C   UNL     1       7.995  -3.269   3.212  0.00  0.00    +0.002 A 
BRANCH  22  25
ATOM     25  C   UNL     1      11.483  -3.430   4.604  0.00  0.00    -0.018 A 
ATOM     26  C   UNL     1      12.476  -2.558   5.044  0.00  0.00    +0.008 A 
ATOM     27  C   UNL     1      13.676  -3.059   5.508  0.00  0.00    +0.001 A 
ATOM     28  C   UNL     1      13.893  -4.425   5.535  0.00  0.00    +0.000 A 
ATOM     29  C   UNL     1      12.911  -5.295   5.099  0.00  0.00    +0.001 A 
ATOM     30  C   UNL     1      11.706  -4.805   4.639  0.00  0.00    +0.008 A 
ENDBRANCH  22  25
ENDBRANCH   1  19
BRANCH   1  31
ATOM     31  C   UNL     1       6.724  -0.100   1.839  0.00  0.00    +0.070 C 
BRANCH  31  32
ATOM     32  N   UNL     1       5.447   0.417   1.330  0.00  0.00    -0.313 NA
ATOM     33  H   UNL     1       4.771   0.509   2.074  0.00  0.00    +0.122 HD
BRANCH  32  34
ATOM     34  C   UNL     1       5.638   1.696   0.632  0.00  0.00    +0.116 C 
BRANCH  34  38
ATOM     35  C   UNL     1       1.869   3.123  -0.785  0.00  0.00    +0.000 A 
ATOM     36  C   UNL     1       2.287   3.430   0.496  0.00  0.00    +0.000 A 
ATOM     37  C   UNL     1       3.506   2.968   0.955  0.00  0.00    +0.005 A 
ATOM     38  C   UNL     1       4.308   2.199   0.133  0.00  0.00    -0.034 A 
ATOM     39  C   UNL     1       3.889   1.891  -1.149  0.00  0.00    +0.005 A 
ATOM     40  C   UNL     1       2.671   2.354  -1.608  0.00  0.00    +0.000 A 
ENDBRANCH  34  38
ENDBRANCH  32  34
ENDBRANCH  31  32
ENDBRANCH   1  31
TORSDOF 9
