REMARK  Name = ZINC40156591
REMARK  17 active torsions:
REMARK  status: ('A' for Active; 'I' for Inactive)
REMARK    1  A    between atoms: C_1  and  C_2
REMARK    2  A    between atoms: C_7  and  O_8
REMARK    3  A    between atoms: O_8  and  C_9
REMARK    4  A    between atoms: C_9  and  C_10
REMARK    5  A    between atoms: C_10  and  C_12
REMARK    6  A    between atoms: C_10  and  O_40
REMARK    7  A    between atoms: C_12  and  N_13
REMARK    8  A    between atoms: N_13  and  C_14
REMARK    9  A    between atoms: N_13  and  C_27
REMARK   10  A    between atoms: C_14  and  C_15
REMARK   11  A    between atoms: C_15  and  C_17
REMARK   12  A    between atoms: C_15  and  O_26
REMARK   13  A    between atoms: C_20  and  N_23
REMARK   14  A    between atoms: C_27  and  C_28
REMARK   15  A    between atoms: C_28  and  C_30
REMARK   16  A    between atoms: C_28  and  O_39
REMARK   17  A    between atoms: C_33  and  N_36
REMARK                            x       y       z     vdW  Elec       q    Type
REMARK                         _______ _______ _______ _____ _____    ______ ____
ROOT
ATOM      1  N   UNL     1       0.336   0.211   7.411  0.00  0.00    +0.385 N 
ATOM      2  H   UNL     1       0.908   0.726   6.759  0.00  0.00    -0.081 HD
ENDROOT
BRANCH   1   3
ATOM      3  C   UNL     1      -0.669   1.109   7.996  0.00  0.00    -0.042 C 
BRANCH   3   4
ATOM      4  C   UNL     1      -1.637   0.297   8.858  0.00  0.00    +0.128 C 
BRANCH   4   5
ATOM      5  C   UNL     1      -2.763   1.186   9.322  0.00  0.00    -0.021 A 
ATOM      6  C   UNL     1      -2.572   2.041  10.392  0.00  0.00    +0.008 A 
ATOM      7  C   UNL     1      -3.605   2.856  10.817  0.00  0.00    +0.033 A 
ATOM      8  C   UNL     1      -4.827   2.816  10.172  0.00  0.00    +0.126 A 
ATOM      9  C   UNL     1      -5.017   1.962   9.102  0.00  0.00    +0.033 A 
ATOM     10  C   UNL     1      -3.983   1.150   8.674  0.00  0.00    +0.008 A 
BRANCH   8  11
ATOM     11  N   UNL     1      -5.933   3.688  10.629  0.00  0.00    +0.056 N 
ATOM     12  O   UNL     1      -5.767   4.435  11.565  0.00  0.00    -0.126 OA
ATOM     13  O   UNL     1      -7.002   3.654  10.065  0.00  0.00    -0.126 OA
ENDBRANCH   8  11
ENDBRANCH   4   5
BRANCH   4  14
ATOM     14  O   UNL     1      -0.943  -0.223   9.994  0.00  0.00    -0.389 OA
ATOM     15  H   UNL     1      -0.554   0.456  10.562  0.00  0.00    +0.210 HD
ENDBRANCH   4  14
ENDBRANCH   3   4
ENDBRANCH   1   3
BRANCH   1  16
ATOM     16  C   UNL     1       1.182  -0.339   8.478  0.00  0.00    -0.042 C 
BRANCH  16  17
ATOM     17  C   UNL     1       1.900   0.804   9.199  0.00  0.00    +0.128 C 
BRANCH  17  18
ATOM     18  C   UNL     1       2.752   0.241  10.308  0.00  0.00    -0.021 A 
ATOM     19  C   UNL     1       4.031  -0.207  10.037  0.00  0.00    +0.008 A 
ATOM     20  C   UNL     1       4.813  -0.723  11.053  0.00  0.00    +0.033 A 
ATOM     21  C   UNL     1       4.316  -0.790  12.341  0.00  0.00    +0.126 A 
ATOM     22  C   UNL     1       3.037  -0.340  12.613  0.00  0.00    +0.033 A 
ATOM     23  C   UNL     1       2.257   0.180  11.597  0.00  0.00    +0.008 A 
BRANCH  21  24
ATOM     24  N   UNL     1       5.152  -1.343  13.430  0.00  0.00    +0.056 N 
ATOM     25  O   UNL     1       6.270  -1.736  13.193  0.00  0.00    -0.126 OA
ATOM     26  O   UNL     1       4.717  -1.401  14.557  0.00  0.00    -0.126 OA
ENDBRANCH  21  24
ENDBRANCH  17  18
BRANCH  17  27
ATOM     27  O   UNL     1       2.729   1.506   8.271  0.00  0.00    -0.389 OA
ATOM     28  H   UNL     1       3.410   0.957   7.857  0.00  0.00    +0.210 HD
ENDBRANCH  17  27
ENDBRANCH  16  17
ENDBRANCH   1  16
BRANCH   1  29
ATOM     29  C   UNL     1      -0.340  -0.888   6.707  0.00  0.00    -0.043 C 
BRANCH  29  30
ATOM     30  C   UNL     1      -1.113  -0.328   5.511  0.00  0.00    +0.135 C 
BRANCH  30  31
ATOM     31  O   UNL     1      -2.205   0.467   5.980  0.00  0.00    -0.390 OA
ATOM     32  H   UNL     1      -2.837  -0.018   6.527  0.00  0.00    +0.210 HD
ENDBRANCH  30  31
BRANCH  30  33
ATOM     33  C   UNL     1      -1.650  -1.484   4.665  0.00  0.00    +0.258 C 
BRANCH  33  34
ATOM     34  O   UNL     1      -2.271  -0.964   3.488  0.00  0.00    -0.489 OA
BRANCH  34  41
ATOM     35  C   UNL     1      -3.505   0.044   1.155  0.00  0.00    +0.047 C 
ATOM     36  C   UNL     1      -3.422  -1.430   1.459  0.00  0.00    -0.009 A 
ATOM     37  C   UNL     1      -3.958  -2.349   0.577  0.00  0.00    +0.007 A 
ATOM     38  C   UNL     1      -3.883  -3.701   0.855  0.00  0.00    +0.000 A 
ATOM     39  C   UNL     1      -3.272  -4.137   2.016  0.00  0.00    +0.004 A 
ATOM     40  C   UNL     1      -2.735  -3.223   2.901  0.00  0.00    +0.046 A 
ATOM     41  C   UNL     1      -2.804  -1.865   2.621  0.00  0.00    +0.124 A 
ENDBRANCH  34  41
ENDBRANCH  33  34
ENDBRANCH  30  33
ENDBRANCH  29  30
ENDBRANCH   1  29
TORSDOF 16
