REMARK  Name = ZINC12445338
REMARK  7 active torsions:
REMARK  status: ('A' for Active; 'I' for Inactive)
REMARK    1  A    between atoms: C_1  and  C_2
REMARK    2  A    between atoms: C_4  and  C_29
REMARK    3  A    between atoms: C_6  and  N_28
REMARK    4  A    between atoms: C_7  and  C_11
REMARK    5  A    between atoms: C_18  and  N_66
REMARK    6  A    between atoms: C_29  and  O_30
REMARK    7  A    between atoms: O_30  and  C_31
REMARK                            x       y       z     vdW  Elec       q    Type
REMARK                         _______ _______ _______ _____ _____    ______ ____
ROOT
ATOM      1  C   UNL     1       0.063  -5.989  -2.034  0.00  0.00    +0.255 C 
ATOM      2  O   UNL     1      -0.025  -4.843  -1.633  0.00  0.00    -0.269 OA
ATOM      3  N   UNL     1       0.155  -6.234  -3.356  0.00  0.00    -0.301 N 
ATOM      4  C   UNL     1       0.237  -5.131  -4.325  0.00  0.00    +0.089 C 
ATOM      5  C   UNL     1       1.441  -5.385  -5.245  0.00  0.00    -0.059 C 
ATOM      6  C   UNL     1       1.373  -7.769  -4.807  0.00  0.00    -0.059 C 
ATOM      7  C   UNL     1       0.172  -7.613  -3.869  0.00  0.00    +0.089 C 
ATOM      8  N   UNL     1       1.298  -6.726  -5.853  0.00  0.00    +0.385 N 
ATOM      9  H   UNL     1       0.384  -6.785  -6.316  0.00  0.00    -0.081 HD
ENDROOT
BRANCH   1  16
ATOM     10  C   UNL     1      -0.278 -12.136   2.700  0.00  0.00    +0.065 C 
ATOM     11  C   UNL     1       0.044 -10.815   2.049  0.00  0.00    +0.040 A 
ATOM     12  C   UNL     1       0.950  -9.953   2.651  0.00  0.00    +0.029 A 
ATOM     13  C   UNL     1       1.253  -8.745   2.068  0.00  0.00    -0.009 A 
ATOM     14  C   UNL     1       0.626  -8.396   0.846  0.00  0.00    +0.034 A 
ATOM     15  C   UNL     1       0.790  -7.185   0.055  0.00  0.00    +0.054 A 
ATOM     16  C   UNL     1       0.068  -7.065  -1.111  0.00  0.00    +0.097 A 
ATOM     17  S   UNL     1      -0.859  -8.585  -1.182  0.00  0.00    -0.062 S 
ATOM     18  C   UNL     1      -0.280  -9.341   0.316  0.00  0.00    +0.111 A 
ATOM     19  N   UNL     1      -0.533 -10.488   0.910  0.00  0.00    -0.245 NA
BRANCH  15  20
ATOM     20  N   UNL     1       1.651  -6.178   0.466  0.00  0.00    -0.356 N 
ATOM     21  H   UNL     1       2.154  -6.276   1.290  0.00  0.00    +0.142 HD
ATOM     22  H   UNL     1       1.751  -5.376  -0.071  0.00  0.00    +0.142 HD
ENDBRANCH  15  20
BRANCH  13  23
ATOM     23  C   UNL     1       2.237  -7.808   2.719  0.00  0.00    +0.195 C 
BRANCH  23  24
ATOM     24  O   UNL     1       2.721  -8.391   3.930  0.00  0.00    -0.378 OA
ATOM     25  C   UNL     1       3.666  -7.579   4.630  0.00  0.00    +0.194 C 
ENDBRANCH  23  24
ENDBRANCH  13  23
ENDBRANCH   1  16
BRANCH   8  26
ATOM     26  C   UNL     1       2.360  -6.941  -6.857  0.00  0.00    -0.065 C 
ATOM     27  C   UNL     1       3.740  -6.914  -6.196  0.00  0.00    -0.009 C 
ATOM     28  C   UNL     1       4.818  -7.140  -7.257  0.00  0.00    -0.012 C 
ATOM     29  C   UNL     1       4.736  -6.034  -8.311  0.00  0.00    +0.007 C 
ATOM     30  C   UNL     1       3.356  -6.061  -8.972  0.00  0.00    -0.012 C 
ATOM     31  C   UNL     1       2.278  -5.835  -7.911  0.00  0.00    -0.009 C 
ATOM     32  C   UNL     1       3.138  -7.419  -9.641  0.00  0.00    +0.007 C 
ATOM     33  C   UNL     1       3.220  -8.525  -8.587  0.00  0.00    -0.012 C 
ATOM     34  C   UNL     1       4.599  -8.498  -7.926  0.00  0.00    +0.007 C 
ATOM     35  C   UNL     1       2.141  -8.300  -7.525  0.00  0.00    -0.009 C 
ENDBRANCH   8  26
TORSDOF 5
