REMARK  Name = ZINC12316971
REMARK  7 active torsions:
REMARK  status: ('A' for Active; 'I' for Inactive)
REMARK    1  A    between atoms: C_1  and  N_2
REMARK    2  A    between atoms: C_4  and  C_7
REMARK    3  A    between atoms: C_7  and  N_43
REMARK    4  A    between atoms: C_8  and  N_43
REMARK    5  A    between atoms: C_9  and  C_10
REMARK    6  A    between atoms: C_9  and  N_43
REMARK    7  A    between atoms: C_15  and  C_16
REMARK                            x       y       z     vdW  Elec       q    Type
REMARK                         _______ _______ _______ _____ _____    ______ ____
ROOT
ATOM      1  C   UNL     1      -4.611   0.325   2.958  0.00  0.00    -0.019 A 
ATOM      2  C   UNL     1      -5.611   0.919   3.647  0.00  0.00    +0.107 A 
ATOM      3  N   UNL     1      -5.661   0.358   4.874  0.00  0.00    -0.284 N 
ATOM      4  H   UNL     1      -6.303   0.598   5.602  0.00  0.00    +0.188 HD
ATOM      5  N   UNL     1      -4.658  -0.617   4.950  0.00  0.00    -0.174 NA
ATOM      6  C   UNL     1      -4.027  -0.645   3.796  0.00  0.00    +0.094 A 
ENDROOT
BRANCH   6   7
ATOM      7  C   UNL     1      -2.895  -1.538   3.441  0.00  0.00    +0.006 A 
ATOM      8  C   UNL     1      -2.866  -2.166   2.198  0.00  0.00    +0.014 A 
ATOM      9  C   UNL     1      -1.814  -2.997   1.869  0.00  0.00    +0.050 A 
ATOM     10  C   UNL     1      -0.784  -3.209   2.772  0.00  0.00    +0.166 A 
ATOM     11  C   UNL     1      -0.808  -2.582   4.017  0.00  0.00    +0.167 A 
ATOM     12  C   UNL     1      -1.858  -1.744   4.348  0.00  0.00    +0.059 A 
ATOM     13  O   UNL     1       0.307  -2.950   4.712  0.00  0.00    -0.453 OA
ATOM     14  C   UNL     1       1.215  -3.481   3.729  0.00  0.00    +0.466 C 
ATOM     15  O   UNL     1       0.347  -3.969   2.690  0.00  0.00    -0.453 OA
ENDBRANCH   6   7
BRANCH   1  16
ATOM     16  C   UNL     1      -4.199   0.641   1.544  0.00  0.00    -0.039 C 
BRANCH  16  18
ATOM     17  C   UNL     1      -3.147   2.764   2.044  0.00  0.00    -0.095 C 
ATOM     18  N   UNL     1      -2.919   1.380   1.575  0.00  0.00    +0.383 N 
ATOM     19  H   UNL     1      -2.278   0.910   2.225  0.00  0.00    -0.081 HD
BRANCH  18  20
ATOM     20  C   UNL     1      -2.312   1.397   0.228  0.00  0.00    -0.040 C 
BRANCH  20  24
ATOM     21  C   UNL     1       2.654   1.773   0.796  0.00  0.00    +0.172 C 
ATOM     22  N   UNL     1       1.246   2.116   0.579  0.00  0.00    -0.274 N 
ATOM     23  C   UNL     1       0.211   1.250   0.567  0.00  0.00    +0.109 A 
ATOM     24  C   UNL     1      -0.917   1.958   0.331  0.00  0.00    -0.026 A 
ATOM     25  C   UNL     1      -0.560   3.305   0.202  0.00  0.00    +0.136 A 
ATOM     26  N   UNL     1       0.737   3.400   0.348  0.00  0.00    -0.180 NA
ENDBRANCH  20  24
ENDBRANCH  18  20
ENDBRANCH  16  18
ENDBRANCH   1  16
TORSDOF 5
