REMARK  Name = ZINC50551480
REMARK  7 active torsions:
REMARK  status: ('A' for Active; 'I' for Inactive)
REMARK    1  A    between atoms: C_6  and  N_7
REMARK    2  A    between atoms: C_8  and  C_10
REMARK    3  A    between atoms: C_10  and  N_11
REMARK    4  A    between atoms: C_12  and  C_14
REMARK    5  A    between atoms: C_14  and  N_15
REMARK    6  A    between atoms: N_18  and  C_19
REMARK    7  A    between atoms: C_19  and  C_20
REMARK                            x       y       z     vdW  Elec       q    Type
REMARK                         _______ _______ _______ _____ _____    ______ ____
ROOT
ATOM      1  N   UNL     1      -4.785   0.085   0.362  0.00  0.00    -0.305 N 
ATOM      2  C   UNL     1      -6.042  -0.387   0.483  0.00  0.00    +0.231 C 
ATOM      3  O   UNL     1      -6.241  -1.583   0.497  0.00  0.00    -0.274 OA
ATOM      4  H   UNL     1      -4.625   1.042   0.350  0.00  0.00    +0.149 HD
ENDROOT
BRANCH   1   5
ATOM      5  C   UNL     1      -3.660  -0.846   0.249  0.00  0.00    +0.200 C 
BRANCH   5   7
ATOM      6  N   UNL     1      -1.201  -0.722   0.010  0.00  0.00    -0.282 N 
ATOM      7  C   UNL     1      -2.375  -0.070   0.127  0.00  0.00    +0.234 C 
ATOM      8  O   UNL     1      -2.396   1.143   0.134  0.00  0.00    -0.274 OA
ATOM      9  H   UNL     1      -1.190  -1.688  -0.076  0.00  0.00    +0.155 HD
BRANCH   6  15
ATOM     10  C   UNL     1       0.069   1.238   0.627  0.00  0.00    +0.029 A 
ATOM     11  C   UNL     1       1.257   1.944   0.630  0.00  0.00    +0.043 A 
ATOM     12  C   UNL     1       2.382   1.415   0.021  0.00  0.00    +0.161 A 
ATOM     13  C   UNL     1       2.320   0.173  -0.593  0.00  0.00    +0.195 A 
ATOM     14  C   UNL     1       1.132  -0.538  -0.598  0.00  0.00    +0.182 A 
ATOM     15  C   UNL     1       0.003  -0.005   0.013  0.00  0.00    +0.072 A 
ATOM     16  F   UNL     1       1.070  -1.748  -1.196  0.00  0.00    -0.200 F 
ATOM     17  F   UNL     1       3.418  -0.343  -1.187  0.00  0.00    -0.199 F 
ATOM     18  F   UNL     1       3.541   2.108   0.026  0.00  0.00    -0.202 F 
ENDBRANCH   6  15
ENDBRANCH   5   7
ENDBRANCH   1   5
BRANCH   2  19
ATOM     19  C   UNL     1      -7.199   0.572   0.599  0.00  0.00    +0.201 C 
BRANCH  19  20
ATOM     20  N   UNL     1      -8.448  -0.184   0.718  0.00  0.00    -0.291 N 
ATOM     21  C   UNL     1      -9.622   0.469   0.835  0.00  0.00    +0.300 C 
ATOM     22  O   UNL     1      -9.643   1.685   0.842  0.00  0.00    -0.253 OA
ATOM     23  N   UNL     1     -10.771  -0.226   0.944  0.00  0.00    -0.299 N 
ATOM     24  H   UNL     1      -8.431  -1.154   0.712  0.00  0.00    +0.151 HD
ATOM     25  H   UNL     1     -10.755  -1.196   0.938  0.00  0.00    +0.150 HD
BRANCH  23  26
ATOM     26  C   UNL     1     -12.047   0.483   1.071  0.00  0.00    +0.109 C 
BRANCH  26  27
ATOM     27  C   UNL     1     -13.187  -0.532   1.178  0.00  0.00    +0.006 C 
ATOM     28  C   UNL     1     -13.350  -1.286  -0.158  0.00  0.00    +0.005 C 
ATOM     29  C   UNL     1     -14.880  -1.475  -0.303  0.00  0.00    +0.000 C 
ATOM     30  C   UNL     1     -15.443  -0.142   0.250  0.00  0.00    +0.000 C 
ATOM     31  C   UNL     1     -14.518   0.196   1.437  0.00  0.00    +0.005 C 
ENDBRANCH  26  27
ENDBRANCH  23  26
ENDBRANCH  19  20
ENDBRANCH   2  19
TORSDOF 7
