REMARK  Name = ZINC39444610
REMARK  6 active torsions:
REMARK  status: ('A' for Active; 'I' for Inactive)
REMARK    1  A    between atoms: C_1  and  C_2
REMARK    2  A    between atoms: C_11  and  C_16
REMARK    3  A    between atoms: C_13  and  C_15
REMARK    4  A    between atoms: C_16  and  C_17
REMARK    5  A    between atoms: C_17  and  C_18
REMARK    6  A    between atoms: C_18  and  N_20
REMARK                            x       y       z     vdW  Elec       q    Type
REMARK                         _______ _______ _______ _____ _____    ______ ____
ROOT
ATOM      1  C   UNL     1      -2.393  -5.386   2.673  0.00  0.00    +0.099 C 
ENDROOT
BRANCH   1   2
ATOM      2  C   UNL     1      -3.892  -5.272   2.771  0.00  0.00    +0.239 C 
ATOM      3  O   UNL     1      -4.517  -4.708   1.894  0.00  0.00    -0.274 OA
BRANCH   2   4
ATOM      4  N   UNL     1      -4.532  -5.787   3.817  0.00  0.00    -0.147 NA
ATOM      5  C   UNL     1      -5.841  -5.596   3.956  0.00  0.00    +0.198 A 
ATOM      6  N   UNL     1      -6.650  -4.996   3.045  0.00  0.00    -0.326 N 
ATOM      7  H   UNL     1      -6.372  -4.636   2.188  0.00  0.00    +0.169 HD
ATOM      8  C   UNL     1      -7.946  -4.985   3.551  0.00  0.00    +0.065 A 
ATOM      9  C   UNL     1      -9.152  -4.508   3.058  0.00  0.00    +0.028 A 
ATOM     10  C   UNL     1     -10.303  -4.643   3.808  0.00  0.00    +0.002 A 
ATOM     11  C   UNL     1     -10.259  -5.252   5.051  0.00  0.00    +0.002 A 
ATOM     12  C   UNL     1      -9.065  -5.730   5.551  0.00  0.00    +0.028 A 
ATOM     13  C   UNL     1      -7.902  -5.599   4.805  0.00  0.00    +0.065 A 
ATOM     14  N   UNL     1      -6.582  -5.976   5.030  0.00  0.00    -0.326 N 
ATOM     15  H   UNL     1      -6.247  -6.429   5.820  0.00  0.00    +0.169 HD
ENDBRANCH   2   4
ENDBRANCH   1   2
BRANCH   1  16
ATOM     16  C   UNL     1      -1.913  -4.716   1.384  0.00  0.00    +0.024 C 
BRANCH  16  27
ATOM     17  C   UNL     1      -0.021   1.550   0.099  0.00  0.00    +0.044 C 
ATOM     18  C   UNL     1       0.003   0.043   0.075  0.00  0.00    -0.047 A 
ATOM     19  C   UNL     1       0.012  -0.631  -1.132  0.00  0.00    +0.004 A 
ATOM     20  C   UNL     1       0.038  -2.011  -1.153  0.00  0.00    +0.008 A 
ATOM     21  C   UNL     1       0.053  -2.729   0.033  0.00  0.00    -0.001 A 
ATOM     22  C   UNL     1       0.037  -2.057   1.241  0.00  0.00    +0.135 A 
ATOM     23  C   UNL     1       0.021  -0.666   1.259  0.00  0.00    +0.050 A 
ATOM     24  O   UNL     1       0.029  -2.718   2.431  0.00  0.00    -0.425 OA
ATOM     25  C   UNL     1       0.259  -4.046   2.406  0.00  0.00    +0.316 C 
ATOM     26  O   UNL     1       0.951  -4.584   3.238  0.00  0.00    -0.250 OA
ATOM     27  C   UNL     1      -0.391  -4.832   1.285  0.00  0.00    +0.106 C 
ATOM     28  C   UNL     1       0.092  -4.235  -0.040  0.00  0.00    +0.033 C 
ATOM     29  C   UNL     1      -0.816  -4.713  -1.175  0.00  0.00    +0.013 C 
ENDBRANCH  16  27
ENDBRANCH   1  16
TORSDOF 4
