REMARK  Name = ZINC15835211
REMARK  11 active torsions:
REMARK  status: ('A' for Active; 'I' for Inactive)
REMARK    1  A    between atoms: C_1  and  C_2
REMARK    2  A    between atoms: C_4  and  C_32
REMARK    3  A    between atoms: C_5  and  C_31
REMARK    4  A    between atoms: C_6  and  S_9
REMARK    5  A    between atoms: C_7  and  C_8
REMARK    6  A    between atoms: S_9  and  N_12
REMARK    7  A    between atoms: C_15  and  C_18
REMARK    8  A    between atoms: N_20  and  N_21
REMARK    9  A    between atoms: C_22  and  C_24
REMARK   10  A    between atoms: C_26  and  C_30
REMARK   11  A    between atoms: C_28  and  C_29
REMARK                            x       y       z     vdW  Elec       q    Type
REMARK                         _______ _______ _______ _____ _____    ______ ____
ROOT
ATOM      1  N   UNL     1       6.411   8.393  -1.128  0.00  0.00    -0.177 NA
ATOM      2  C   UNL     1       7.169   8.147   0.106  0.00  0.00    +0.110 C 
ATOM      3  C   UNL     1       7.324   6.635   0.297  0.00  0.00    +0.030 C 
ATOM      4  C   UNL     1       5.942   5.978   0.267  0.00  0.00    +0.079 C 
ATOM      5  C   UNL     1       5.286   6.228  -1.093  0.00  0.00    +0.030 C 
ATOM      6  C   UNL     1       5.108   7.735  -1.300  0.00  0.00    +0.110 C 
ENDROOT
BRANCH   4   7
ATOM      7  C   UNL     1       6.087   4.494   0.489  0.00  0.00    +0.232 C 
ATOM      8  O   UNL     1       7.187   4.010   0.655  0.00  0.00    -0.274 OA
ATOM      9  N   UNL     1       4.995   3.705   0.503  0.00  0.00    -0.234 N 
ATOM     10  H   UNL     1       4.115   4.092   0.370  0.00  0.00    +0.173 HD
BRANCH   9  11
ATOM     11  N   UNL     1       5.129   2.326   0.709  0.00  0.00    -0.230 N 
ATOM     12  C   UNL     1       4.037   1.536   0.724  0.00  0.00    +0.263 C 
ATOM     13  O   UNL     1       2.934   2.022   0.557  0.00  0.00    -0.269 OA
ATOM     14  H   UNL     1       6.009   1.939   0.842  0.00  0.00    +0.173 HD
BRANCH  12  15
ATOM     15  C   UNL     1       4.179   0.086   0.941  0.00  0.00    +0.079 A 
ATOM     16  C   UNL     1       5.425  -0.663   1.157  0.00  0.00    +0.057 A 
ATOM     17  C   UNL     1       5.064  -1.946   1.306  0.00  0.00    +0.103 A 
ATOM     18  O   UNL     1       3.729  -2.042   1.200  0.00  0.00    -0.464 OA
ATOM     19  C   UNL     1       3.181  -0.843   0.983  0.00  0.00    +0.114 A 
ATOM     20  C   UNL     1       1.710  -0.566   0.807  0.00  0.00    +0.087 C 
ATOM     21  C   UNL     1       6.006  -3.097   1.552  0.00  0.00    +0.086 C 
ENDBRANCH  12  15
ENDBRANCH   9  11
ENDBRANCH   4   7
BRANCH   1  22
ATOM     22  S   UNL     1       7.013   9.392  -2.304  0.00  0.00    +0.061 S 
ATOM     23  O   UNL     1       5.893   9.944  -2.981  0.00  0.00    -0.153 OA
ATOM     24  O   UNL     1       8.002  10.201  -1.682  0.00  0.00    -0.153 OA
BRANCH  22  30
ATOM     25  C   UNL     1       7.247   6.894  -6.889  0.00  0.00    +0.044 C 
ATOM     26  C   UNL     1       7.909   7.250  -5.583  0.00  0.00    -0.045 A 
ATOM     27  C   UNL     1       9.178   6.779  -5.300  0.00  0.00    +0.007 A 
ATOM     28  C   UNL     1       9.785   7.106  -4.102  0.00  0.00    -0.045 A 
ATOM     29  C   UNL     1       9.124   7.904  -3.187  0.00  0.00    -0.021 A 
ATOM     30  C   UNL     1       7.856   8.375  -3.470  0.00  0.00    +0.112 A 
ATOM     31  C   UNL     1       7.247   8.044  -4.666  0.00  0.00    -0.021 A 
ATOM     32  C   UNL     1       5.862   8.553  -4.972  0.00  0.00    +0.046 C 
ATOM     33  C   UNL     1       9.786   8.259  -1.881  0.00  0.00    +0.046 C 
ATOM     34  C   UNL     1      11.168   6.592  -3.794  0.00  0.00    +0.044 C 
ENDBRANCH  22  30
ENDBRANCH   1  22
TORSDOF 5
