REMARK  Name = ZINC39040659
REMARK  11 active torsions:
REMARK  status: ('A' for Active; 'I' for Inactive)
REMARK    1  A    between atoms: C_1  and  C_2
REMARK    2  A    between atoms: C_4  and  C_9
REMARK    3  A    between atoms: C_5  and  C_8
REMARK    4  A    between atoms: C_9  and  C_10
REMARK    5  A    between atoms: C_11  and  C_25
REMARK    6  A    between atoms: N_13  and  C_18
REMARK    7  A    between atoms: C_21  and  C_24
REMARK    8  A    between atoms: C_29  and  O_31
REMARK    9  A    between atoms: O_31  and  C_32
REMARK   10  A    between atoms: C_32  and  C_33
REMARK   11  A    between atoms: C_32  and  C_34
REMARK                            x       y       z     vdW  Elec       q    Type
REMARK                         _______ _______ _______ _____ _____    ______ ____
ROOT
ATOM      1  C   UNL     1      -1.324   1.055  -3.083  0.00  0.00    +0.076 C 
ATOM      2  C   UNL     1       0.088   1.593  -3.087  0.00  0.00    +0.147 C 
ATOM      3  N   UNL     1       0.152   2.565  -4.184  0.00  0.00    -0.261 N 
ATOM      4  C   UNL     1      -1.059   2.611  -4.768  0.00  0.00    +0.289 C 
ATOM      5  O   UNL     1      -1.351   3.316  -5.714  0.00  0.00    -0.266 OA
ATOM      6  C   UNL     1      -1.980   1.672  -4.094  0.00  0.00    +0.249 C 
ATOM      7  O   UNL     1      -3.274   1.465  -4.431  0.00  0.00    -0.282 OA
ENDROOT
BRANCH   3   8
ATOM      8  C   UNL     1       1.327   3.348  -4.574  0.00  0.00    +0.208 C 
ATOM      9  C   UNL     1       1.159   4.803  -4.182  0.00  0.00    +0.057 C 
ATOM     10  C   UNL     1       0.839   5.480  -5.264  0.00  0.00    +0.121 C 
ATOM     11  O   UNL     1       0.752   4.688  -6.359  0.00  0.00    -0.409 OA
ATOM     12  N   UNL     1       1.446   3.418  -6.054  0.00  0.00    -0.131 NA
ATOM     13  C   UNL     1       0.595   6.967  -5.282  0.00  0.00    +0.088 C 
ATOM     14  H   UNL     1       2.414   3.457  -6.338  0.00  0.00    +0.170 HD
ENDBRANCH   3   8
BRANCH   2  15
ATOM     15  C   UNL     1       0.388   2.271  -1.774  0.00  0.00    -0.019 A 
ATOM     16  C   UNL     1      -0.124   3.529  -1.513  0.00  0.00    +0.006 A 
ATOM     17  C   UNL     1       0.149   4.153  -0.310  0.00  0.00    +0.004 A 
ATOM     18  C   UNL     1       0.935   3.521   0.634  0.00  0.00    +0.045 A 
ATOM     19  C   UNL     1       1.449   2.259   0.375  0.00  0.00    +0.121 A 
ATOM     20  C   UNL     1       1.169   1.632  -0.831  0.00  0.00    +0.051 A 
BRANCH  19  21
ATOM     21  O   UNL     1       2.223   1.636   1.302  0.00  0.00    -0.489 OA
BRANCH  21  22
ATOM     22  C   UNL     1       2.684   0.321   0.985  0.00  0.00    +0.167 C 
ATOM     23  C   UNL     1       3.936   0.418   0.111  0.00  0.00    +0.051 C 
ATOM     24  C   UNL     1       3.020  -0.427   2.276  0.00  0.00    +0.051 C 
ENDBRANCH  21  22
ENDBRANCH  19  21
ENDBRANCH   2  15
BRANCH   1  25
ATOM     25  C   UNL     1      -1.875   0.052  -2.165  0.00  0.00    +0.193 C 
ATOM     26  O   UNL     1      -2.140   0.359  -1.017  0.00  0.00    -0.287 OA
BRANCH  25  29
ATOM     27  C   UNL     1      -0.236  -1.832  -4.203  0.00  0.00    +0.035 C 
ATOM     28  C   UNL     1      -1.749  -1.902  -3.983  0.00  0.00    +0.110 C 
ATOM     29  C   UNL     1      -2.108  -1.322  -2.632  0.00  0.00    +0.026 C 
ATOM     30  C   UNL     1      -2.688  -2.330  -1.944  0.00  0.00    -0.026 C 
ATOM     31  C   UNL     1      -2.719  -3.528  -2.785  0.00  0.00    +0.082 C 
ATOM     32  N   UNL     1      -2.191  -3.301  -3.942  0.00  0.00    -0.383 N 
ATOM     33  C   UNL     1      -3.217  -2.236  -0.537  0.00  0.00    +0.046 C 
ATOM     34  H   UNL     1      -2.102  -3.945  -4.662  0.00  0.00    +0.160 HD
ENDBRANCH  25  29
ENDBRANCH   1  25
TORSDOF 6
