REMARK  Name = ZINC47154068
REMARK  6 active torsions:
REMARK  status: ('A' for Active; 'I' for Inactive)
REMARK    1  A    between atoms: C_3  and  N_27
REMARK    2  A    between atoms: C_6  and  N_7
REMARK    3  A    between atoms: C_8  and  C_10
REMARK    4  A    between atoms: C_10  and  N_11
REMARK    5  A    between atoms: C_15  and  C_16
REMARK    6  A    between atoms: C_21  and  O_22
REMARK                            x       y       z     vdW  Elec       q    Type
REMARK                         _______ _______ _______ _____ _____    ______ ____
ROOT
ATOM      1  N   UNL     1      -1.871  -4.222  -0.281  0.00  0.00    -0.212 N 
ATOM      2  C   UNL     1      -1.670  -4.889  -1.436  0.00  0.00    +0.269 C 
ATOM      3  O   UNL     1      -1.521  -4.406  -2.543  0.00  0.00    -0.268 OA
ATOM      4  C   UNL     1      -1.667  -6.319  -1.088  0.00  0.00    +0.098 C 
ATOM      5  C   UNL     1      -1.499  -7.371  -1.928  0.00  0.00    +0.040 C 
ATOM      6  N   UNL     1      -1.875  -6.360   0.298  0.00  0.00    -0.265 N 
ATOM      7  C   UNL     1      -1.985  -5.092   0.734  0.00  0.00    +0.314 C 
ATOM      8  O   UNL     1      -2.167  -4.777   1.894  0.00  0.00    -0.252 OA
ATOM      9  H   UNL     1      -1.927  -7.159   0.845  0.00  0.00    +0.157 HD
ENDROOT
BRANCH   5  10
ATOM     10  C   UNL     1      -1.376  -8.730  -1.386  0.00  0.00    +0.019 A 
ATOM     11  C   UNL     1      -0.796  -8.938  -0.129  0.00  0.00    +0.027 A 
ATOM     12  C   UNL     1      -0.685 -10.216   0.373  0.00  0.00    +0.019 A 
ATOM     13  C   UNL     1      -1.144 -11.299  -0.362  0.00  0.00    +0.019 A 
ATOM     14  C   UNL     1      -1.718 -11.108  -1.604  0.00  0.00    +0.047 A 
ATOM     15  C   UNL     1      -1.845  -9.830  -2.123  0.00  0.00    +0.124 A 
ATOM     16 BR   UNL     1       0.100 -10.496   2.071  0.00  0.00    -0.050 Br
BRANCH  15  17
ATOM     17  O   UNL     1      -2.413  -9.642  -3.341  0.00  0.00    -0.506 OA
ATOM     18  H   UNL     1      -1.786  -9.668  -4.077  0.00  0.00    +0.292 HD
ENDBRANCH  15  17
ENDBRANCH   5  10
BRANCH   1  19
ATOM     19  C   UNL     1      -1.948  -2.765  -0.154  0.00  0.00    +0.214 C 
BRANCH  19  21
ATOM     20  N   UNL     1      -0.395  -0.882   0.247  0.00  0.00    -0.284 N 
ATOM     21  C   UNL     1      -0.569  -2.210   0.096  0.00  0.00    +0.235 C 
ATOM     22  O   UNL     1       0.383  -2.958   0.161  0.00  0.00    -0.274 OA
ATOM     23  H   UNL     1      -1.164  -0.291   0.267  0.00  0.00    +0.155 HD
BRANCH  20  29
ATOM     24  C   UNL     1       1.941  -0.887  -0.369  0.00  0.00    +0.025 A 
ATOM     25  C   UNL     1       3.213  -0.365  -0.240  0.00  0.00    +0.034 A 
ATOM     26  C   UNL     1       3.446   0.685   0.628  0.00  0.00    +0.126 A 
ATOM     27  C   UNL     1       2.408   1.216   1.371  0.00  0.00    +0.034 A 
ATOM     28  C   UNL     1       1.133   0.699   1.247  0.00  0.00    +0.025 A 
ATOM     29  C   UNL     1       0.895  -0.356   0.375  0.00  0.00    +0.034 A 
BRANCH  26  30
ATOM     30  N   UNL     1       4.811   1.242   0.763  0.00  0.00    +0.056 N 
ATOM     31  O   UNL     1       5.720   0.778   0.115  0.00  0.00    -0.126 OA
ATOM     32  O   UNL     1       5.017   2.160   1.522  0.00  0.00    -0.126 OA
ENDBRANCH  26  30
ENDBRANCH  20  29
ENDBRANCH  19  21
ENDBRANCH   1  19
TORSDOF 6
