REMARK  Name = ZINC67095746
REMARK  7 active torsions:
REMARK  status: ('A' for Active; 'I' for Inactive)
REMARK    1  A    between atoms: C_1  and  C_2
REMARK    2  A    between atoms: C_5  and  N_13
REMARK    3  A    between atoms: N_13  and  C_14
REMARK    4  A    between atoms: C_17  and  S_24
REMARK    5  A    between atoms: C_19  and  S_20
REMARK    6  A    between atoms: S_20  and  C_23
REMARK    7  A    between atoms: S_24  and  N_27
REMARK                            x       y       z     vdW  Elec       q    Type
REMARK                         _______ _______ _______ _____ _____    ______ ____
ROOT
ATOM      1  C   UNL     1      -1.369  -4.279   0.469  0.00  0.00    +0.053 A 
ATOM      2  C   UNL     1      -1.927  -4.459   1.729  0.00  0.00    +0.027 A 
ATOM      3  C   UNL     1      -2.255  -5.728   2.162  0.00  0.00    +0.030 A 
ATOM      4  C   UNL     1      -2.027  -6.820   1.344  0.00  0.00    +0.107 A 
ATOM      5  C   UNL     1      -1.471  -6.645   0.090  0.00  0.00    +0.057 A 
ATOM      6  C   UNL     1      -1.147  -5.377  -0.352  0.00  0.00    +0.110 A 
ENDROOT
BRANCH   6   7
ATOM      7  S   UNL     1      -0.446  -5.154  -1.953  0.00  0.00    -0.004 S 
ATOM      8  O   UNL     1       0.717  -4.366  -1.733  0.00  0.00    -0.170 OA
ATOM      9  O   UNL     1      -0.341  -6.465  -2.489  0.00  0.00    -0.170 OA
ATOM     10  C   UNL     1      -1.682  -4.199  -2.874  0.00  0.00    +0.200 C 
ENDBRANCH   6   7
BRANCH   4  11
ATOM     11  S   UNL     1      -2.445  -8.438   1.902  0.00  0.00    +0.056 S 
ATOM     12  O   UNL     1      -1.631  -9.344   1.169  0.00  0.00    -0.153 OA
ATOM     13  O   UNL     1      -2.445  -8.392   3.322  0.00  0.00    -0.153 OA
BRANCH  11  14
ATOM     14  N   UNL     1      -4.009  -8.727   1.438  0.00  0.00    -0.204 NA
ATOM     15  H   UNL     1      -4.503  -8.049   0.951  0.00  0.00    +0.144 HD
ATOM     16  H   UNL     1      -4.430  -9.574   1.653  0.00  0.00    +0.144 HD
ENDBRANCH  11  14
ENDBRANCH   4  11
BRANCH   1  17
ATOM     17  N   UNL     1      -1.037  -2.996   0.027  0.00  0.00    -0.336 N 
ATOM     18  H   UNL     1      -0.651  -2.871  -0.854  0.00  0.00    +0.147 HD
BRANCH  17  22
ATOM     19  C   UNL     1      -0.019   1.526   0.010  0.00  0.00    +0.012 C 
ATOM     20  C   UNL     1       0.002  -0.004   0.002  0.00  0.00    +0.018 C 
ATOM     21  C   UNL     1      -1.437  -0.559   0.048  0.00  0.00    +0.035 C 
ATOM     22  C   UNL     1      -1.272  -1.839   0.895  0.00  0.00    +0.101 C 
ATOM     23  C   UNL     1      -0.064  -1.582   1.770  0.00  0.00    -0.024 A 
ATOM     24  C   UNL     1       0.671  -0.527   1.255  0.00  0.00    -0.040 A 
ATOM     25  C   UNL     1       1.827  -0.114   1.895  0.00  0.00    +0.004 A 
ATOM     26  C   UNL     1       2.252  -0.752   3.044  0.00  0.00    +0.000 A 
ATOM     27  C   UNL     1       1.521  -1.806   3.558  0.00  0.00    +0.000 A 
ATOM     28  C   UNL     1       0.361  -2.219   2.923  0.00  0.00    +0.006 A 
ENDBRANCH  17  22
ENDBRANCH   1  17
TORSDOF 5
