REMARK  Name = ZINC36207527
REMARK  15 active torsions:
REMARK  status: ('A' for Active; 'I' for Inactive)
REMARK    1  A    between atoms: C_1  and  C_2
REMARK    2  A    between atoms: C_7  and  O_8
REMARK    3  A    between atoms: O_8  and  C_9
REMARK    4  A    between atoms: C_9  and  C_10
REMARK    5  A    between atoms: C_10  and  C_12
REMARK    6  A    between atoms: C_10  and  O_38
REMARK    7  A    between atoms: C_12  and  N_13
REMARK    8  A    between atoms: N_13  and  C_14
REMARK    9  A    between atoms: N_13  and  C_21
REMARK   10  A    between atoms: C_14  and  C_15
REMARK   11  A    between atoms: C_21  and  C_22
REMARK   12  A    between atoms: C_28  and  C_37
REMARK   13  A    between atoms: C_29  and  C_33
REMARK   14  A    between atoms: C_33  and  O_35
REMARK   15  A    between atoms: O_35  and  C_36
REMARK                            x       y       z     vdW  Elec       q    Type
REMARK                         _______ _______ _______ _____ _____    ______ ____
ROOT
ATOM      1  N   UNL     1      -0.018   0.268   6.994  0.00  0.00    +0.389 N 
ATOM      2  H   UNL     1      -0.849   0.834   6.914  0.00  0.00    -0.081 HD
ENDROOT
BRANCH   1   3
ATOM      3  C   UNL     1       0.113  -0.582   5.803  0.00  0.00    -0.043 C 
BRANCH   3   4
ATOM      4  C   UNL     1      -0.155   0.254   4.549  0.00  0.00    +0.135 C 
BRANCH   4   5
ATOM      5  O   UNL     1       0.889   1.215   4.385  0.00  0.00    -0.390 OA
ATOM      6  H   UNL     1       1.748   0.829   4.165  0.00  0.00    +0.210 HD
ENDBRANCH   4   5
BRANCH   4   7
ATOM      7  C   UNL     1      -0.201  -0.664   3.325  0.00  0.00    +0.258 C 
BRANCH   7   8
ATOM      8  O   UNL     1      -0.567   0.098   2.173  0.00  0.00    -0.489 OA
BRANCH   8  15
ATOM      9  C   UNL     1      -1.288   1.585  -0.118  0.00  0.00    +0.047 C 
ATOM     10  C   UNL     1      -1.003   0.106  -0.166  0.00  0.00    -0.009 A 
ATOM     11  C   UNL     1      -1.085  -0.576  -1.365  0.00  0.00    +0.007 A 
ATOM     12  C   UNL     1      -0.824  -1.933  -1.409  0.00  0.00    +0.000 A 
ATOM     13  C   UNL     1      -0.481  -2.611  -0.254  0.00  0.00    +0.004 A 
ATOM     14  C   UNL     1      -0.397  -1.934   0.947  0.00  0.00    +0.046 A 
ATOM     15  C   UNL     1      -0.653  -0.571   0.993  0.00  0.00    +0.124 A 
ENDBRANCH   8  15
ENDBRANCH   7   8
ENDBRANCH   4   7
ENDBRANCH   3   4
ENDBRANCH   1   3
BRANCH   1  16
ATOM     16  C   UNL     1       1.159   1.140   7.105  0.00  0.00    -0.042 C 
BRANCH  16  17
ATOM     17  C   UNL     1       2.385   0.300   7.358  0.00  0.00    -0.064 A 
ATOM     18  C   UNL     1       2.777   0.022   8.654  0.00  0.00    +0.002 A 
ATOM     19  C   UNL     1       3.901  -0.749   8.886  0.00  0.00    +0.000 A 
ATOM     20  C   UNL     1       4.633  -1.242   7.822  0.00  0.00    +0.000 A 
ATOM     21  C   UNL     1       4.240  -0.964   6.526  0.00  0.00    +0.000 A 
ATOM     22  C   UNL     1       3.114  -0.197   6.294  0.00  0.00    +0.002 A 
ENDBRANCH  16  17
ENDBRANCH   1  16
BRANCH   1  23
ATOM     23  C   UNL     1      -0.114  -0.579   8.191  0.00  0.00    -0.003 C 
BRANCH  23  24
ATOM     24  C   UNL     1      -0.371   0.286   9.398  0.00  0.00    +0.094 A 
ATOM     25  N   UNL     1      -0.489  -0.301  10.615  0.00  0.00    -0.312 N 
ATOM     26  H   UNL     1      -0.407  -1.265  10.687  0.00  0.00    +0.170 HD
ATOM     27  C   UNL     1      -0.718   0.427  11.725  0.00  0.00    +0.260 A 
ATOM     28  O   UNL     1      -0.821  -0.110  12.814  0.00  0.00    -0.267 OA
ATOM     29  C   UNL     1      -0.839   1.896  11.588  0.00  0.00    +0.076 A 
ATOM     30  C   UNL     1      -1.072   2.858  12.573  0.00  0.00    -0.015 A 
ATOM     31  C   UNL     1      -1.149   4.177  12.230  0.00  0.00    +0.102 A 
ATOM     32  S   UNL     1      -0.893   4.140  10.464  0.00  0.00    -0.062 S 
ATOM     33  C   UNL     1      -0.698   2.387  10.270  0.00  0.00    +0.116 A 
ATOM     34  N   UNL     1      -0.468   1.578   9.243  0.00  0.00    -0.229 NA
ATOM     35  C   UNL     1      -1.238   2.441  14.012  0.00  0.00    +0.046 C 
BRANCH  31  36
ATOM     36  C   UNL     1      -1.383   5.334  13.096  0.00  0.00    +0.346 C 
ATOM     37  O   UNL     1      -1.539   5.178  14.292  0.00  0.00    -0.244 OA
BRANCH  36  38
ATOM     38  O   UNL     1      -1.427   6.575  12.567  0.00  0.00    -0.464 OA
ATOM     39  C   UNL     1      -1.659   7.657  13.470  0.00  0.00    +0.280 C 
ENDBRANCH  36  38
ENDBRANCH  31  36
ENDBRANCH  23  24
ENDBRANCH   1  23
TORSDOF 12
