REMARK  Name = ZINC39632011
REMARK  12 active torsions:
REMARK  status: ('A' for Active; 'I' for Inactive)
REMARK    1  A    between atoms: C_1  and  C_2
REMARK    2  A    between atoms: C_2  and  C_4
REMARK    3  A    between atoms: C_2  and  N_11
REMARK    4  A    between atoms: C_4  and  C_5
REMARK    5  A    between atoms: C_5  and  C_6
REMARK    6  A    between atoms: C_6  and  C_7
REMARK    7  A    between atoms: C_7  and  C_8
REMARK    8  A    between atoms: C_7  and  C_9
REMARK    9  A    between atoms: C_7  and  O_10
REMARK   10  A    between atoms: C_12  and  C_14
REMARK   11  A    between atoms: C_25  and  C_27
REMARK   12  A    between atoms: C_30  and  C_32
REMARK                            x       y       z     vdW  Elec       q    Type
REMARK                         _______ _______ _______ _____ _____    ______ ____
ROOT
ATOM      1  C   UNL     1       2.783  -1.099   2.395  0.00  0.00    +0.100 C 
ATOM      2  C   UNL     1       2.678  -0.070   3.542  0.00  0.00    +0.121 C 
ATOM      3  N   UNL     1       3.999  -0.120   4.212  0.00  0.00    -0.294 N 
ATOM      4  C   UNL     1       4.971  -0.257   3.101  0.00  0.00    +0.115 C 
ATOM      5  C   UNL     1       4.289  -1.218   2.107  0.00  0.00    -0.004 C 
ATOM      6  C   UNL     1       4.761  -2.649   2.350  0.00  0.00    -0.010 C 
ATOM      7  C   UNL     1       6.249  -2.756   2.003  0.00  0.00    -0.082 C 
ATOM      8  N   UNL     1       6.454  -2.382   0.598  0.00  0.00    +0.379 N 
ATOM      9  C   UNL     1       6.084  -0.977   0.394  0.00  0.00    -0.082 C 
ATOM     10  C   UNL     1       4.589  -0.795   0.673  0.00  0.00    -0.010 C 
ATOM     11  C   UNL     1       4.258  -0.056   5.533  0.00  0.00    +0.282 C 
ATOM     12  O   UNL     1       5.407  -0.110   5.931  0.00  0.00    -0.267 OA
ATOM     13  H   UNL     1       7.425  -2.512   0.356  0.00  0.00    -0.086 HD
ATOM     14  H   UNL     1       5.881  -2.968   0.009  0.00  0.00    -0.086 HD
ENDROOT
BRANCH  11  15
ATOM     15  C   UNL     1       3.157   0.080   6.490  0.00  0.00    +0.190 A 
ATOM     16  C   UNL     1       3.281   0.162   7.859  0.00  0.00    +0.055 A 
ATOM     17  C   UNL     1       1.986   0.282   8.376  0.00  0.00    +0.050 A 
ATOM     18  C   UNL     1       1.128   0.268   7.314  0.00  0.00    +0.136 A 
ATOM     19  O   UNL     1       1.845   0.152   6.183  0.00  0.00    -0.450 OA
BRANCH  18  20
ATOM     20  C   UNL     1      -0.343   0.370   7.394  0.00  0.00    +0.017 A 
ATOM     21  C   UNL     1      -0.970   0.498   8.636  0.00  0.00    +0.011 A 
ATOM     22  C   UNL     1      -2.345   0.594   8.704  0.00  0.00    +0.001 A 
ATOM     23  C   UNL     1      -3.102   0.562   7.546  0.00  0.00    +0.000 A 
ATOM     24  C   UNL     1      -2.487   0.434   6.313  0.00  0.00    +0.001 A 
ATOM     25  C   UNL     1      -1.113   0.344   6.230  0.00  0.00    +0.011 A 
ENDBRANCH  18  20
ENDBRANCH  11  15
BRANCH   1  27
ATOM     26  N   UNL     1       1.500  -1.477   0.314  0.00  0.00    -0.312 N 
ATOM     27  C   UNL     1       2.054  -0.600   1.174  0.00  0.00    +0.218 C 
ATOM     28  O   UNL     1       1.965   0.592   0.965  0.00  0.00    -0.275 OA
ATOM     29  H   UNL     1       1.571  -2.430   0.480  0.00  0.00    +0.149 HD
BRANCH  26  31
ATOM     30  C   UNL     1      -0.657  -0.665  -0.504  0.00  0.00    +0.028 C 
ATOM     31  C   UNL     1       0.792  -0.992  -0.873  0.00  0.00    +0.070 C 
BRANCH  31  32
ATOM     32  C   UNL     1       0.810  -2.073  -1.956  0.00  0.00    +0.022 C 
BRANCH  32  33
ATOM     33  C   UNL     1       2.250  -2.312  -2.414  0.00  0.00    +0.005 C 
BRANCH  33  34
ATOM     34  C   UNL     1       2.269  -3.393  -3.496  0.00  0.00    +0.034 C 
BRANCH  34  35
ATOM     35  C   UNL     1       3.709  -3.631  -3.954  0.00  0.00    +0.061 C 
ATOM     36  C   UNL     1       4.554  -4.088  -2.763  0.00  0.00    +0.041 C 
ATOM     37  C   UNL     1       3.728  -4.713  -5.037  0.00  0.00    +0.041 C 
BRANCH  35  38
ATOM     38  O   UNL     1       4.248  -2.418  -4.483  0.00  0.00    -0.389 OA
ATOM     39  H   UNL     1       3.761  -2.070  -5.243  0.00  0.00    +0.210 HD
ENDBRANCH  35  38
ENDBRANCH  34  35
ENDBRANCH  33  34
ENDBRANCH  32  33
ENDBRANCH  31  32
ENDBRANCH  26  31
ENDBRANCH   1  27
TORSDOF 9
