REMARK  Name = ZINC41586300
REMARK  9 active torsions:
REMARK  status: ('A' for Active; 'I' for Inactive)
REMARK    1  A    between atoms: C_1  and  C_2
REMARK    2  A    between atoms: C_2  and  O_3
REMARK    3  A    between atoms: O_3  and  C_4
REMARK    4  A    between atoms: C_4  and  C_6
REMARK    5  A    between atoms: N_9  and  C_12
REMARK    6  A    between atoms: C_12  and  C_13
REMARK    7  A    between atoms: C_14  and  O_34
REMARK    8  A    between atoms: C_20  and  C_30
REMARK    9  A    between atoms: C_21  and  C_24
REMARK                            x       y       z     vdW  Elec       q    Type
REMARK                         _______ _______ _______ _____ _____    ______ ____
ROOT
ATOM      1  C   UNL     1       1.532  -6.378  -5.588  0.00  0.00    +0.020 A 
ATOM      2  C   UNL     1       2.459  -7.291  -5.115  0.00  0.00    +0.122 A 
ATOM      3  C   UNL     1       2.339  -8.646  -5.417  0.00  0.00    +0.046 A 
ATOM      4  C   UNL     1       1.300  -9.092  -6.183  0.00  0.00    +0.019 A 
ATOM      5  C   UNL     1       0.358  -8.184  -6.664  0.00  0.00    +0.065 A 
ATOM      6  C   UNL     1       0.468  -6.814  -6.367  0.00  0.00    +0.144 A 
ATOM      7  O   UNL     1      -0.439  -5.939  -6.841  0.00  0.00    -0.450 OA
ATOM      8  C   UNL     1      -1.613  -6.341  -7.332  0.00  0.00    +0.219 A 
ATOM      9  C   UNL     1      -1.863  -7.632  -7.676  0.00  0.00    +0.076 A 
ATOM     10  C   UNL     1      -0.785  -8.624  -7.488  0.00  0.00    +0.201 A 
ATOM     11  O   UNL     1      -0.841  -9.742  -7.971  0.00  0.00    -0.286 OA
ENDROOT
BRANCH   9  12
ATOM     12  C   UNL     1      -3.179  -8.030  -8.234  0.00  0.00    -0.011 A 
ATOM     13  C   UNL     1      -3.505  -7.713  -9.551  0.00  0.00    +0.009 A 
ATOM     14  C   UNL     1      -4.730  -8.087 -10.065  0.00  0.00    +0.001 A 
ATOM     15  C   UNL     1      -5.633  -8.775  -9.275  0.00  0.00    +0.000 A 
ATOM     16  C   UNL     1      -5.315  -9.092  -7.967  0.00  0.00    +0.001 A 
ATOM     17  C   UNL     1      -4.091  -8.728  -7.444  0.00  0.00    +0.009 A 
ENDBRANCH   9  12
BRANCH   8  18
ATOM     18  C   UNL     1      -2.707  -5.321  -7.513  0.00  0.00    +0.451 C 
ATOM     19  F   UNL     1      -3.896  -5.969  -7.864  0.00  0.00    -0.163 F 
ATOM     20  F   UNL     1      -2.894  -4.621  -6.316  0.00  0.00    -0.163 F 
ATOM     21  F   UNL     1      -2.348  -4.425  -8.525  0.00  0.00    -0.163 F 
ENDBRANCH   8  18
BRANCH   2  22
ATOM     22  O   UNL     1       3.495  -6.862  -4.350  0.00  0.00    -0.506 OA
ATOM     23  H   UNL     1       3.307  -6.857  -3.401  0.00  0.00    +0.292 HD
ENDBRANCH   2  22
BRANCH   1  24
ATOM     24  C   UNL     1       1.674  -4.915  -5.254  0.00  0.00    -0.036 C 
BRANCH  24  28
ATOM     25  C   UNL     1       0.791  -3.622  -1.291  0.00  0.00    +0.094 C 
ATOM     26  C   UNL     1       0.188  -2.869  -2.481  0.00  0.00    -0.004 C 
ATOM     27  C   UNL     1       0.998  -3.184  -3.740  0.00  0.00    -0.078 C 
ATOM     28  N   UNL     1       0.961  -4.628  -4.002  0.00  0.00    +0.383 N 
ATOM     29  C   UNL     1       1.602  -5.351  -2.898  0.00  0.00    -0.078 C 
ATOM     30  C   UNL     1       0.815  -5.120  -1.606  0.00  0.00    -0.004 C 
ATOM     31  H   UNL     1       0.001  -4.928  -4.088  0.00  0.00    -0.081 HD
BRANCH  25  32
ATOM     32  C   UNL     1      -0.048  -3.378  -0.063  0.00  0.00    +0.310 C 
ATOM     33  O   UNL     1      -0.574  -4.307   0.503  0.00  0.00    -0.251 OA
BRANCH  32  34
ATOM     34  O   UNL     1      -0.212  -2.130   0.401  0.00  0.00    -0.465 OA
BRANCH  34  36
ATOM     35  C   UNL     1      -1.090  -0.491   1.946  0.00  0.00    +0.048 C 
ATOM     36  C   UNL     1      -1.020  -1.973   1.569  0.00  0.00    +0.229 C 
ENDBRANCH  34  36
ENDBRANCH  32  34
ENDBRANCH  25  32
ENDBRANCH  24  28
ENDBRANCH   1  24
TORSDOF 8
