REMARK  Name = ZINC19884066
REMARK  10 active torsions:
REMARK  status: ('A' for Active; 'I' for Inactive)
REMARK    1  A    between atoms: C_1  and  N_2
REMARK    2  A    between atoms: N_2  and  C_3
REMARK    3  A    between atoms: N_2  and  C_33
REMARK    4  A    between atoms: C_3  and  C_4
REMARK    5  A    between atoms: C_8  and  O_10
REMARK    6  A    between atoms: O_10  and  C_11
REMARK    7  A    between atoms: C_11  and  C_12
REMARK    8  A    between atoms: C_12  and  N_13
REMARK    9  A    between atoms: C_19  and  C_21
REMARK   10  A    between atoms: C_33  and  C_34
REMARK                            x       y       z     vdW  Elec       q    Type
REMARK                         _______ _______ _______ _____ _____    ______ ____
ROOT
ATOM      1  C   UNL     1      -0.868   6.179   5.199  0.00  0.00    +0.125 C 
ENDROOT
BRANCH   1   2
ATOM      2  N   UNL     1      -1.057   7.178   4.139  0.00  0.00    -0.296 NA
ATOM      3  C   UNL     1      -0.188   8.343   4.352  0.00  0.00    +0.103 C 
ATOM      4  C   UNL     1      -0.279   9.274   3.139  0.00  0.00    +0.123 C 
ATOM      5  N   UNL     1      -1.695   9.590   2.898  0.00  0.00    -0.295 N 
ATOM      6  C   UNL     1      -2.652   8.476   2.809  0.00  0.00    +0.123 C 
ATOM      7  C   UNL     1      -2.467   7.577   4.036  0.00  0.00    +0.103 C 
ATOM      8  C   UNL     1      -2.106  10.867   2.763  0.00  0.00    +0.252 C 
ATOM      9  O   UNL     1      -3.292  11.117   2.658  0.00  0.00    -0.270 OA
BRANCH   8  10
ATOM     10  C   UNL     1      -1.120  11.958   2.744  0.00  0.00    +0.101 A 
ATOM     11  C   UNL     1      -0.339  12.190   1.618  0.00  0.00    +0.023 A 
ATOM     12  C   UNL     1       0.589  13.242   1.621  0.00  0.00    -0.027 A 
ATOM     13  C   UNL     1       0.722  14.020   2.720  0.00  0.00    +0.022 A 
ATOM     14  N   UNL     1      -0.035  13.784   3.830  0.00  0.00    -0.325 N 
ATOM     15  H   UNL     1       0.088  14.415   4.723  0.00  0.00    +0.169 HD
ATOM     16  C   UNL     1      -0.940  12.794   3.876  0.00  0.00    +0.261 A 
ATOM     17  O   UNL     1      -1.602  12.615   4.883  0.00  0.00    -0.267 OA
ATOM     18  C   UNL     1       1.685  15.179   2.783  0.00  0.00    +0.053 C 
ATOM     19  C   UNL     1       2.743  15.063   1.689  0.00  0.00    +0.006 C 
ATOM     20  C   UNL     1       2.029  14.837   0.351  0.00  0.00    +0.005 C 
ATOM     21  C   UNL     1       1.407  13.442   0.372  0.00  0.00    +0.037 C 
ENDBRANCH   8  10
ENDBRANCH   1   2
BRANCH   1  22
ATOM     22  C   UNL     1      -1.374   4.819   4.714  0.00  0.00    +0.244 C 
BRANCH  22  23
ATOM     23  O   UNL     1      -0.577   4.379   3.614  0.00  0.00    -0.491 OA
BRANCH  23  28
ATOM     24  C   UNL     1      -0.491   1.471   1.428  0.00  0.00    -0.061 A 
ATOM     25  C   UNL     1      -1.547   0.737   1.936  0.00  0.00    +0.002 A 
ATOM     26  C   UNL     1      -2.278   1.221   3.004  0.00  0.00    +0.004 A 
ATOM     27  C   UNL     1      -1.955   2.440   3.568  0.00  0.00    +0.045 A 
ATOM     28  C   UNL     1      -0.896   3.179   3.061  0.00  0.00    +0.121 A 
ATOM     29  C   UNL     1      -0.160   2.688   1.992  0.00  0.00    +0.047 A 
BRANCH  24  30
ATOM     30  C   UNL     1       0.304   0.940   0.263  0.00  0.00    -0.043 C 
BRANCH  30  32
ATOM     31  C   UNL     1      -1.633   0.815  -1.183  0.00  0.00    -0.096 C 
ATOM     32  N   UNL     1      -0.300   1.403  -0.993  0.00  0.00    +0.382 N 
ATOM     33  H   UNL     1      -0.418   2.494  -0.930  0.00  0.00    -0.082 HD
BRANCH  32  34
ATOM     34  C   UNL     1       0.573   1.108  -2.137  0.00  0.00    -0.056 C 
BRANCH  34  35
ATOM     35  C   UNL     1       0.037   1.816  -3.384  0.00  0.00    +0.057 C 
ATOM     36  C   UNL     1       1.024   1.647  -4.560  0.00  0.00    +0.029 C 
ATOM     37  C   UNL     1       1.878   2.933  -4.439  0.00  0.00    +0.097 C 
ATOM     38  C   UNL     1       0.974   3.913  -3.725  0.00  0.00    +0.213 C 
ATOM     39  O   UNL     1       1.148   5.113  -3.680  0.00  0.00    -0.276 OA
ATOM     40  N   UNL     1      -0.050   3.262  -3.148  0.00  0.00    -0.314 N 
ATOM     41  H   UNL     1      -0.884   3.674  -2.561  0.00  0.00    +0.149 HD
ENDBRANCH  34  35
ENDBRANCH  32  34
ENDBRANCH  30  32
ENDBRANCH  24  30
ENDBRANCH  23  28
ENDBRANCH  22  23
ENDBRANCH   1  22
TORSDOF 9
