REMARK  Name = ZINC16136566
REMARK  6 active torsions:
REMARK  status: ('A' for Active; 'I' for Inactive)
REMARK    1  A    between atoms: C_1  and  C_2
REMARK    2  A    between atoms: C_2  and  C_16
REMARK    3  A    between atoms: N_3  and  N_4
REMARK    4  A    between atoms: C_9  and  C_12
REMARK    5  A    between atoms: C_12  and  C_13
REMARK    6  A    between atoms: C_19  and  C_22
REMARK                            x       y       z     vdW  Elec       q    Type
REMARK                         _______ _______ _______ _____ _____    ______ ____
ROOT
ATOM      1  C   UNL     1       0.504  -0.891   1.112  0.00  0.00    +0.068 C 
ATOM      2  C   UNL     1       0.002  -0.004   0.002  0.00  0.00    +0.068 C 
ATOM      3  N   UNL     1      -0.532   1.155   0.282  0.00  0.00    -0.152 NA
ENDROOT
BRANCH   3   4
ATOM      4  N   UNL     1      -1.074   1.858  -0.653  0.00  0.00    -0.126 NA
ATOM      5  C   UNL     1      -1.613   3.027  -0.370  0.00  0.00    +0.183 C 
ATOM      6  N   UNL     1      -2.236   3.907  -1.228  0.00  0.00    -0.263 N 
ATOM      7  C   UNL     1      -2.740   5.059  -0.821  0.00  0.00    +0.233 C 
ATOM      8  O   UNL     1      -3.287   5.828  -1.582  0.00  0.00    -0.274 OA
ATOM      9  C   UNL     1      -2.591   5.359   0.662  0.00  0.00    +0.151 C 
ATOM     10  S   UNL     1      -1.713   3.840   1.218  0.00  0.00    -0.075 S 
ATOM     11  H   UNL     1      -2.307   3.672  -2.166  0.00  0.00    +0.157 HD
BRANCH   9  12
ATOM     12  C   UNL     1      -1.744   6.612   0.892  0.00  0.00    +0.149 C 
BRANCH  12  13
ATOM     13  C   UNL     1      -1.724   6.942   2.363  0.00  0.00    +0.358 C 
ATOM     14  O   UNL     1      -2.331   6.240   3.153  0.00  0.00    -0.246 OA
ATOM     15  O   UNL     1      -1.101   7.912   2.761  0.00  0.00    -0.246 OA
ENDBRANCH  12  13
ENDBRANCH   9  12
ENDBRANCH   3   4
BRANCH   2  16
ATOM     16  C   UNL     1       0.113  -0.443  -1.397  0.00  0.00    -0.002 A 
ATOM     17  C   UNL     1       0.367   0.492  -2.407  0.00  0.00    +0.010 A 
ATOM     18  C   UNL     1       0.470   0.081  -3.710  0.00  0.00    +0.009 A 
ATOM     19  C   UNL     1       0.323  -1.270  -4.031  0.00  0.00    -0.018 A 
ATOM     20  C   UNL     1       0.070  -2.204  -3.025  0.00  0.00    +0.009 A 
ATOM     21  C   UNL     1      -0.029  -1.798  -1.720  0.00  0.00    +0.010 A 
BRANCH  19  22
ATOM     22  C   UNL     1       0.436  -1.712  -5.441  0.00  0.00    -0.018 A 
ATOM     23  C   UNL     1       0.694  -0.783  -6.448  0.00  0.00    +0.008 A 
ATOM     24  C   UNL     1       0.798  -1.201  -7.759  0.00  0.00    +0.001 A 
ATOM     25  C   UNL     1       0.645  -2.539  -8.075  0.00  0.00    +0.000 A 
ATOM     26  C   UNL     1       0.389  -3.465  -7.081  0.00  0.00    +0.001 A 
ATOM     27  C   UNL     1       0.289  -3.060  -5.765  0.00  0.00    +0.008 A 
ENDBRANCH  19  22
ENDBRANCH   2  16
TORSDOF 5
