REMARK  Name = ZINC06557399
REMARK  4 active torsions:
REMARK  status: ('A' for Active; 'I' for Inactive)
REMARK    1  A    between atoms: C_6  and  O_7
REMARK    2  A    between atoms: O_7  and  C_8
REMARK    3  A    between atoms: C_17  and  O_20
REMARK    4  A    between atoms: C_18  and  O_19
REMARK                            x       y       z     vdW  Elec       q    Type
REMARK                         _______ _______ _______ _____ _____    ______ ____
ROOT
ATOM      1  C   UNL     1       2.349   4.099   0.106  0.00  0.00    +0.210 A 
ATOM      2  C   UNL     1       3.506   3.407   0.090  0.00  0.00    +0.246 A 
ATOM      3  O   UNL     1       4.705   3.998   0.182  0.00  0.00    -0.455 OA
ATOM      4  C   UNL     1       4.844   5.335   0.297  0.00  0.00    +0.183 A 
ATOM      5  C   UNL     1       3.704   6.156   0.324  0.00  0.00    +0.072 A 
ATOM      6  C   UNL     1       2.381   5.518   0.219  0.00  0.00    +0.235 A 
ATOM      7  O   UNL     1       1.354   6.177   0.231  0.00  0.00    -0.283 OA
ATOM      8  C   UNL     1       3.836   7.540   0.442  0.00  0.00    +0.019 A 
ATOM      9  C   UNL     1       5.080   8.099   0.533  0.00  0.00    +0.050 A 
ATOM     10  C   UNL     1       6.217   7.296   0.508  0.00  0.00    +0.162 A 
ATOM     11  C   UNL     1       6.104   5.917   0.391  0.00  0.00    +0.202 A 
ENDROOT
BRANCH  11  12
ATOM     12  O   UNL     1       7.221   5.140   0.367  0.00  0.00    -0.501 OA
ATOM     13  H   UNL     1       8.216   5.603   0.441  0.00  0.00    +0.292 HD
ENDBRANCH  11  12
BRANCH  10  14
ATOM     14  O   UNL     1       7.447   7.866   0.599  0.00  0.00    -0.503 OA
ATOM     15  H   UNL     1       8.348   7.236   0.580  0.00  0.00    +0.292 HD
ENDBRANCH  10  14
BRANCH   1  16
ATOM     16  O   UNL     1       1.159   3.446   0.009  0.00  0.00    -0.449 OA
BRANCH  16  22
ATOM     17  C   UNL     1       1.541   1.412   1.183  0.00  0.00    +0.049 A 
ATOM     18  C   UNL     1       1.555   0.031   1.201  0.00  0.00    +0.042 A 
ATOM     19  C   UNL     1       1.203  -0.680   0.066  0.00  0.00    +0.124 A 
ATOM     20  C   UNL     1       0.836  -0.009  -1.087  0.00  0.00    +0.042 A 
ATOM     21  C   UNL     1       0.822   1.373  -1.109  0.00  0.00    +0.049 A 
ATOM     22  C   UNL     1       1.174   2.087   0.028  0.00  0.00    +0.129 A 
ATOM     23  F   UNL     1       1.217  -2.031   0.085  0.00  0.00    -0.205 F 
ENDBRANCH  16  22
ENDBRANCH   1  16
TORSDOF 4
