REMARK  Name = ZINC12402038
REMARK  11 active torsions:
REMARK  status: ('A' for Active; 'I' for Inactive)
REMARK    1  A    between atoms: C_1  and  C_2
REMARK    2  A    between atoms: C_2  and  C_26
REMARK    3  A    between atoms: C_3  and  C_24
REMARK    4  A    between atoms: C_3  and  O_25
REMARK    5  A    between atoms: N_4  and  N_8
REMARK    6  A    between atoms: C_12  and  C_16
REMARK    7  A    between atoms: C_12  and  C_17
REMARK    8  A    between atoms: C_13  and  C_14
REMARK    9  A    between atoms: C_13  and  O_15
REMARK   10  A    between atoms: C_17  and  C_18
REMARK   11  A    between atoms: C_26  and  C_27
REMARK                            x       y       z     vdW  Elec       q    Type
REMARK                         _______ _______ _______ _____ _____    ______ ____
ROOT
ATOM      1  C   UNL     1       1.657  -1.290  -1.277  0.00  0.00    +0.061 C 
ATOM      2  C   UNL     1       1.382  -0.471  -0.014  0.00  0.00    +0.163 C 
ATOM      3  C   UNL     1       2.215   0.826  -0.015  0.00  0.00    +0.193 C 
ATOM      4  N   UNL     1       1.202   1.892   0.001  0.00  0.00    -0.143 N 
ATOM      5  C   UNL     1      -0.016   1.333   0.009  0.00  0.00    +0.423 C 
ATOM      6  O   UNL     1      -1.043   1.983   0.018  0.00  0.00    -0.224 OA
ATOM      7  O   UNL     1       0.002  -0.004   0.002  0.00  0.00    -0.438 OA
ATOM      8  C   UNL     1       3.094   0.901   1.236  0.00  0.00    +0.069 C 
ENDROOT
BRANCH   4   9
ATOM      9  N   UNL     1       1.468   3.268   0.006  0.00  0.00    -0.143 N 
ATOM     10  C   UNL     1       1.610   4.038  -1.082  0.00  0.00    +0.423 C 
ATOM     11  O   UNL     1       1.521   3.608  -2.215  0.00  0.00    -0.224 OA
ATOM     12  O   UNL     1       1.855   5.324  -0.806  0.00  0.00    -0.438 OA
ATOM     13  C   UNL     1       1.907   5.509   0.638  0.00  0.00    +0.163 C 
ATOM     14  C   UNL     1       1.641   4.101   1.205  0.00  0.00    +0.193 C 
ATOM     15  C   UNL     1       2.836   3.615   2.028  0.00  0.00    +0.069 C 
ATOM     16  C   UNL     1       3.289   6.008   1.066  0.00  0.00    +0.061 C 
BRANCH  14  17
ATOM     17  O   UNL     1       0.452   4.095   1.998  0.00  0.00    -0.367 OA
ATOM     18  H   UNL     1       0.203   3.220   2.326  0.00  0.00    +0.212 HD
ENDBRANCH  14  17
BRANCH  13  19
ATOM     19  C   UNL     1       0.821   6.485   1.096  0.00  0.00    +0.087 C 
BRANCH  19  20
ATOM     20  C   UNL     1       1.103   7.853   0.529  0.00  0.00    -0.043 A 
ATOM     21  C   UNL     1       1.877   8.750   1.241  0.00  0.00    +0.004 A 
ATOM     22  C   UNL     1       2.141  10.002   0.719  0.00  0.00    +0.000 A 
ATOM     23  C   UNL     1       1.621  10.361  -0.511  0.00  0.00    +0.000 A 
ATOM     24  C   UNL     1       0.842   9.466  -1.220  0.00  0.00    +0.000 A 
ATOM     25  C   UNL     1       0.584   8.212  -0.701  0.00  0.00    +0.004 A 
ENDBRANCH  19  20
ENDBRANCH  13  19
ENDBRANCH   4   9
BRANCH   3  26
ATOM     26  O   UNL     1       3.016   0.907  -1.195  0.00  0.00    -0.367 OA
ATOM     27  H   UNL     1       3.560   1.704  -1.247  0.00  0.00    +0.212 HD
ENDBRANCH   3  26
BRANCH   2  28
ATOM     28  C   UNL     1       1.682  -1.300   1.237  0.00  0.00    +0.087 C 
BRANCH  28  29
ATOM     29  C   UNL     1       0.876  -2.573   1.201  0.00  0.00    -0.043 A 
ATOM     30  C   UNL     1      -0.385  -2.609   1.768  0.00  0.00    +0.004 A 
ATOM     31  C   UNL     1      -1.126  -3.775   1.732  0.00  0.00    +0.000 A 
ATOM     32  C   UNL     1      -0.604  -4.907   1.136  0.00  0.00    +0.000 A 
ATOM     33  C   UNL     1       0.659  -4.873   0.574  0.00  0.00    +0.000 A 
ATOM     34  C   UNL     1       1.398  -3.706   0.606  0.00  0.00    +0.004 A 
ENDBRANCH  28  29
ENDBRANCH   2  28
TORSDOF 7
