REMARK  Name = ZINC26510058
REMARK  10 active torsions:
REMARK  status: ('A' for Active; 'I' for Inactive)
REMARK    1  A    between atoms: C_1  and  C_2
REMARK    2  A    between atoms: C_3  and  C_22
REMARK    3  A    between atoms: C_4  and  C_12
REMARK    4  A    between atoms: C_14  and  O_20
REMARK    5  A    between atoms: C_15  and  O_19
REMARK    6  A    between atoms: O_20  and  C_21
REMARK    7  A    between atoms: C_22  and  O_24
REMARK    8  A    between atoms: O_24  and  C_25
REMARK    9  A    between atoms: C_25  and  C_26
REMARK   10  A    between atoms: C_25  and  C_27
REMARK                            x       y       z     vdW  Elec       q    Type
REMARK                         _______ _______ _______ _____ _____    ______ ____
ROOT
ATOM      1  C   UNL     1      -0.018   1.503   0.010  0.00  0.00    +0.061 C 
ATOM      2  C   UNL     1       0.002  -0.004   0.002  0.00  0.00    +0.020 C 
ATOM      3  C   UNL     1      -1.164  -0.668   0.004  0.00  0.00    +0.082 C 
ATOM      4  C   UNL     1      -1.254  -2.171  -0.016  0.00  0.00    +0.179 C 
ATOM      5  N   UNL     1       0.064  -2.740   0.255  0.00  0.00    -0.221 N 
ATOM      6  C   UNL     1       1.210  -2.015   0.249  0.00  0.00    +0.218 A 
ATOM      7  N   UNL     1       2.199  -2.823   0.519  0.00  0.00    -0.201 NA
ATOM      8  C   UNL     1       1.727  -4.060   0.707  0.00  0.00    +0.247 A 
ATOM      9  N   UNL     1       0.426  -4.052   0.555  0.00  0.00    -0.156 NA
ATOM     10  N   UNL     1       1.212  -0.651  -0.013  0.00  0.00    -0.287 N 
ATOM     11  H   UNL     1       2.037  -0.173  -0.196  0.00  0.00    +0.155 HD
ENDROOT
BRANCH   4  12
ATOM     12  C   UNL     1      -1.730  -2.628  -1.371  0.00  0.00    -0.014 A 
ATOM     13  C   UNL     1      -2.905  -3.348  -1.483  0.00  0.00    +0.055 A 
ATOM     14  C   UNL     1      -3.344  -3.769  -2.727  0.00  0.00    +0.163 A 
ATOM     15  C   UNL     1      -2.601  -3.465  -3.864  0.00  0.00    +0.172 A 
ATOM     16  C   UNL     1      -1.424  -2.743  -3.745  0.00  0.00    +0.059 A 
ATOM     17  C   UNL     1      -0.994  -2.321  -2.500  0.00  0.00    +0.024 A 
ATOM     18  I   UNL     1      -0.301  -2.283  -5.453  0.00  0.00    -0.040 I 
BRANCH  15  19
ATOM     19  O   UNL     1      -3.028  -3.876  -5.088  0.00  0.00    -0.503 OA
ATOM     20  H   UNL     1      -3.604  -3.242  -5.537  0.00  0.00    +0.292 HD
ENDBRANCH  15  19
BRANCH  14  21
ATOM     21  O   UNL     1      -4.500  -4.477  -2.838  0.00  0.00    -0.491 OA
ATOM     22  C   UNL     1      -5.210  -4.753  -1.630  0.00  0.00    +0.277 C 
ENDBRANCH  14  21
ENDBRANCH   4  12
BRANCH   3  23
ATOM     23  C   UNL     1      -2.364   0.077   0.027  0.00  0.00    +0.339 C 
ATOM     24  O   UNL     1      -2.324   1.293   0.044  0.00  0.00    -0.245 OA
BRANCH  23  25
ATOM     25  O   UNL     1      -3.554  -0.559   0.029  0.00  0.00    -0.459 OA
BRANCH  25  26
ATOM     26  C   UNL     1      -4.726   0.257   0.053  0.00  0.00    +0.171 C 
ATOM     27  C   UNL     1      -5.159   0.570  -1.381  0.00  0.00    +0.052 C 
ATOM     28  C   UNL     1      -5.852  -0.486   0.775  0.00  0.00    +0.052 C 
ENDBRANCH  25  26
ENDBRANCH  23  25
ENDBRANCH   3  23
TORSDOF 6
