REMARK  Name = ZINC24505803
REMARK  8 active torsions:
REMARK  status: ('A' for Active; 'I' for Inactive)
REMARK    1  A    between atoms: C_1  and  C_2
REMARK    2  A    between atoms: C_5  and  N_9
REMARK    3  A    between atoms: C_7  and  C_8
REMARK    4  A    between atoms: C_10  and  S_14
REMARK    5  A    between atoms: S_14  and  C_15
REMARK    6  A    between atoms: C_15  and  C_16
REMARK    7  A    between atoms: N_26  and  C_27
REMARK    8  A    between atoms: C_27  and  C_28
REMARK                            x       y       z     vdW  Elec       q    Type
REMARK                         _______ _______ _______ _____ _____    ______ ____
ROOT
ATOM      1  C   UNL     1      -2.930   0.527   1.199  0.00  0.00    +0.124 A 
ATOM      2  N   UNL     1      -3.903  -0.329   1.282  0.00  0.00    -0.233 NA
ATOM      3  C   UNL     1      -4.497  -0.840   0.175  0.00  0.00    +0.078 A 
ATOM      4  C   UNL     1      -5.544  -1.760   0.263  0.00  0.00    +0.028 A 
ATOM      5  C   UNL     1      -6.118  -2.252  -0.887  0.00  0.00    +0.002 A 
ATOM      6  C   UNL     1      -5.669  -1.846  -2.137  0.00  0.00    +0.001 A 
ATOM      7  C   UNL     1      -4.638  -0.939  -2.250  0.00  0.00    +0.015 A 
ATOM      8  C   UNL     1      -4.043  -0.429  -1.098  0.00  0.00    +0.065 A 
ATOM      9  C   UNL     1      -2.943   0.545  -1.157  0.00  0.00    +0.262 A 
ATOM     10  O   UNL     1      -2.508   0.945  -2.221  0.00  0.00    -0.267 OA
ATOM     11  N   UNL     1      -2.430   0.977   0.019  0.00  0.00    -0.287 N 
ENDROOT
BRANCH   1  12
ATOM     12  C   UNL     1      -2.324   1.046   2.477  0.00  0.00    +0.151 C 
BRANCH  12  13
ATOM     13  S   UNL     1      -3.165   0.294   3.893  0.00  0.00    -0.076 S 
BRANCH  13  15
ATOM     14  N   UNL     1      -2.493   0.867   6.540  0.00  0.00    -0.187 N 
ATOM     15  C   UNL     1      -2.282   1.057   5.213  0.00  0.00    +0.214 A 
ATOM     16  N   UNL     1      -1.298   1.923   5.099  0.00  0.00    -0.101 NA
ATOM     17  N   UNL     1      -0.878   2.282   6.258  0.00  0.00    -0.022 NA
ATOM     18  N   UNL     1      -1.548   1.685   7.184  0.00  0.00    -0.038 NA
BRANCH  14  23
ATOM     19  C   UNL     1      -6.352  -2.512   8.969  0.00  0.00    +0.044 C 
ATOM     20  C   UNL     1      -5.328  -1.615   8.325  0.00  0.00    -0.047 A 
ATOM     21  C   UNL     1      -5.629  -0.959   7.145  0.00  0.00    +0.006 A 
ATOM     22  C   UNL     1      -4.692  -0.137   6.551  0.00  0.00    +0.028 A 
ATOM     23  C   UNL     1      -3.446   0.032   7.140  0.00  0.00    +0.070 A 
ATOM     24  C   UNL     1      -3.144  -0.631   8.322  0.00  0.00    +0.031 A 
ATOM     25  C   UNL     1      -4.088  -1.448   8.914  0.00  0.00    -0.046 A 
ATOM     26  C   UNL     1      -3.763  -2.164  10.199  0.00  0.00    +0.044 C 
ENDBRANCH  14  23
ENDBRANCH  13  15
ENDBRANCH  12  13
ENDBRANCH   1  12
BRANCH  11  27
ATOM     27  C   UNL     1      -1.330   1.944   0.019  0.00  0.00    +0.222 C 
BRANCH  27  28
ATOM     28  C   UNL     1      -0.014   1.209   0.009  0.00  0.00    +0.230 C 
ATOM     29  O   UNL     1       0.002  -0.004   0.002  0.00  0.00    -0.274 OA
ATOM     30  N   UNL     1       1.143   1.898   0.001  0.00  0.00    -0.328 N 
ATOM     31  H   UNL     1       2.103   1.361  -0.006  0.00  0.00    +0.145 HD
ATOM     32  H   UNL     1       1.129   2.998   0.003  0.00  0.00    +0.145 HD
ENDBRANCH  27  28
ENDBRANCH  11  27
TORSDOF 6
