REMARK  Name = ZINC37674522
REMARK  3 active torsions:
REMARK  status: ('A' for Active; 'I' for Inactive)
REMARK    1  A    between atoms: C_3  and  O_17
REMARK    2  A    between atoms: C_9  and  O_11
REMARK    3  A    between atoms: O_11  and  C_12
REMARK                            x       y       z     vdW  Elec       q    Type
REMARK                         _______ _______ _______ _____ _____    ______ ____
ROOT
ATOM      1  C   UNL     1      -0.020   1.401  -0.019  0.00  0.00    +0.012 A 
ATOM      2  C   UNL     1       1.127   2.092  -0.260  0.00  0.00    +0.046 A 
ATOM      3  C   UNL     1       2.330   1.425  -0.506  0.00  0.00    +0.117 A 
ATOM      4  C   UNL     1       2.386   0.060  -0.513  0.00  0.00    +0.054 A 
ATOM      5  C   UNL     1       1.220  -0.684  -0.267  0.00  0.00    -0.011 A 
ATOM      6  C   UNL     1       0.000  -0.004  -0.017  0.00  0.00    -0.017 A 
ATOM      7  C   UNL     1      -1.167  -0.748   0.228  0.00  0.00    +0.012 A 
ATOM      8  C   UNL     1      -1.115  -2.107   0.222  0.00  0.00    +0.047 A 
ATOM      9  C   UNL     1       0.086  -2.780  -0.024  0.00  0.00    +0.131 A 
ATOM     10  C   UNL     1       1.239  -2.088  -0.266  0.00  0.00    +0.055 A 
ENDROOT
BRANCH   3  11
ATOM     11  O   UNL     1       3.459   2.143  -0.744  0.00  0.00    -0.507 OA
ATOM     12  H   UNL     1       3.966   2.354   0.052  0.00  0.00    +0.292 HD
ENDBRANCH   3  11
BRANCH   9  13
ATOM     13  O   UNL     1       0.106  -4.138  -0.022  0.00  0.00    -0.433 OA
BRANCH  13  14
ATOM     14  C   UNL     1      -1.076  -4.792   0.089  0.00  0.00    +0.262 A 
ATOM     15  N   UNL     1      -2.289  -4.287   0.113  0.00  0.00    -0.214 NA
ATOM     16  C   UNL     1      -3.350  -5.065   0.228  0.00  0.00    +0.122 A 
ATOM     17  C   UNL     1      -3.129  -6.399   0.319  0.00  0.00    +0.070 A 
ATOM     18  S   UNL     1      -1.347  -6.447   0.224  0.00  0.00    -0.037 S 
ENDBRANCH  13  14
ENDBRANCH   9  13
TORSDOF 3
