REMARK  Name = ZINC14201418
REMARK  5 active torsions:
REMARK  status: ('A' for Active; 'I' for Inactive)
REMARK    1  A    between atoms: C_7  and  C_11
REMARK    2  A    between atoms: C_11  and  C_12
REMARK    3  A    between atoms: N_16  and  C_20
REMARK    4  A    between atoms: C_20  and  C_21
REMARK    5  A    between atoms: C_27  and  C_29
REMARK                            x       y       z     vdW  Elec       q    Type
REMARK                         _______ _______ _______ _____ _____    ______ ____
ROOT
ATOM      1  C   UNL     1      -6.651   4.601  -3.169  0.00  0.00    +0.165 C 
ATOM      2  C   UNL     1      -5.624   4.506  -2.058  0.00  0.00    +0.244 C 
ATOM      3  O   UNL     1      -5.067   5.424  -1.495  0.00  0.00    -0.273 OA
ATOM      4  N   UNL     1      -5.456   3.189  -1.828  0.00  0.00    -0.216 N 
ATOM      5  C   UNL     1      -6.232   2.446  -2.626  0.00  0.00    +0.310 C 
ATOM      6  O   UNL     1      -6.259   1.231  -2.601  0.00  0.00    -0.252 OA
ATOM      7  N   UNL     1      -6.979   3.194  -3.458  0.00  0.00    -0.287 N 
ATOM      8  H   UNL     1      -7.610   2.870  -4.119  0.00  0.00    +0.151 HD
ENDROOT
BRANCH   1   9
ATOM      9  C   UNL     1      -6.054   5.279  -4.403  0.00  0.00    +0.069 C 
BRANCH   9  16
ATOM     10  C   UNL     1      -9.445   8.384  -5.314  0.00  0.00    +0.001 A 
ATOM     11  C   UNL     1     -10.189   8.058  -6.440  0.00  0.00    +0.002 A 
ATOM     12  C   UNL     1      -9.904   6.923  -7.166  0.00  0.00    +0.026 A 
ATOM     13  C   UNL     1      -8.860   6.093  -6.769  0.00  0.00    +0.047 A 
ATOM     14  C   UNL     1      -8.109   6.428  -5.628  0.00  0.00    +0.003 A 
ATOM     15  C   UNL     1      -8.416   7.584  -4.907  0.00  0.00    +0.010 A 
ATOM     16  C   UNL     1      -7.103   5.373  -5.481  0.00  0.00    -0.020 A 
ATOM     17  C   UNL     1      -7.290   4.510  -6.492  0.00  0.00    +0.087 A 
ATOM     18  N   UNL     1      -8.339   4.921  -7.269  0.00  0.00    -0.360 N 
ATOM     19  H   UNL     1      -8.664   4.457  -8.056  0.00  0.00    +0.165 HD
ENDBRANCH   9  16
ENDBRANCH   1   9
BRANCH   4  20
ATOM     20  C   UNL     1      -4.541   2.639  -0.824  0.00  0.00    +0.213 C 
BRANCH  20  21
ATOM     21  C   UNL     1      -3.190   2.407  -1.449  0.00  0.00    +0.234 C 
ATOM     22  O   UNL     1      -3.008   2.675  -2.618  0.00  0.00    -0.274 OA
ATOM     23  N   UNL     1      -2.183   1.902  -0.710  0.00  0.00    -0.293 N 
ATOM     24  C   UNL     1      -2.264   1.534   0.716  0.00  0.00    +0.108 C 
ATOM     25  C   UNL     1      -0.802   1.617   1.234  0.00  0.00    +0.021 C 
ATOM     26  C   UNL     1      -0.013   1.086   0.008  0.00  0.00    +0.029 C 
ATOM     27  C   UNL     1      -0.821   1.627  -1.190  0.00  0.00    +0.106 C 
BRANCH  27  28
ATOM     28  C   UNL     1      -0.863   0.596  -2.288  0.00  0.00    -0.023 A 
ATOM     29  C   UNL     1      -1.730  -0.476  -2.195  0.00  0.00    +0.009 A 
ATOM     30  C   UNL     1      -1.774  -1.422  -3.202  0.00  0.00    +0.050 A 
ATOM     31  C   UNL     1      -0.940  -1.303  -4.304  0.00  0.00    +0.162 A 
ATOM     32  C   UNL     1      -0.066  -0.227  -4.396  0.00  0.00    +0.162 A 
ATOM     33  C   UNL     1      -0.030   0.721  -3.384  0.00  0.00    +0.055 A 
ATOM     34  O   UNL     1       0.755  -0.086  -5.472  0.00  0.00    -0.485 OA
ATOM     35  C   UNL     1       0.957  -1.249  -6.284  0.00  0.00    +0.270 C 
ATOM     36  C   UNL     1      -0.410  -1.897  -6.544  0.00  0.00    +0.270 C 
ATOM     37  O   UNL     1      -0.987  -2.248  -5.282  0.00  0.00    -0.485 OA
ENDBRANCH  27  28
ENDBRANCH  20  21
ENDBRANCH   4  20
TORSDOF 5
