REMARK  Name = ZINC07378318
REMARK  3 active torsions:
REMARK  status: ('A' for Active; 'I' for Inactive)
REMARK    1  A    between atoms: N_11  and  S_12
REMARK    2  A    between atoms: S_12  and  C_15
REMARK    3  A    between atoms: C_18  and  N_21
REMARK                            x       y       z     vdW  Elec       q    Type
REMARK                         _______ _______ _______ _____ _____    ______ ____
ROOT
ATOM      1  C   UNL     1      -1.993  -3.453  -4.015  0.00  0.00    +0.002 A 
ATOM      2  C   UNL     1      -2.091  -3.661  -2.651  0.00  0.00    +0.002 A 
ATOM      3  C   UNL     1      -0.985  -3.486  -1.840  0.00  0.00    +0.026 A 
ATOM      4  C   UNL     1       0.221  -3.106  -2.396  0.00  0.00    +0.073 A 
ATOM      5  C   UNL     1       0.322  -2.886  -3.773  0.00  0.00    +0.056 A 
ATOM      6  C   UNL     1      -0.791  -3.066  -4.579  0.00  0.00    +0.025 A 
ATOM      7  N   UNL     1       1.547  -2.490  -4.323  0.00  0.00    -0.283 N 
ATOM      8  C   UNL     1       2.684  -2.582  -3.607  0.00  0.00    +0.236 C 
ATOM      9  O   UNL     1       3.727  -2.191  -4.087  0.00  0.00    -0.274 OA
ATOM     10  C   UNL     1       2.675  -3.163  -2.216  0.00  0.00    +0.227 C 
ATOM     11  N   UNL     1       1.361  -2.918  -1.602  0.00  0.00    -0.192 N 
ATOM     12  H   UNL     1       1.577  -2.146  -5.229  0.00  0.00    +0.155 HD
ENDROOT
BRANCH  11  13
ATOM     13  S   UNL     1       1.232  -2.441  -0.022  0.00  0.00    +0.075 S 
ATOM     14  O   UNL     1      -0.060  -1.868   0.126  0.00  0.00    -0.150 OA
ATOM     15  O   UNL     1       2.422  -1.726   0.285  0.00  0.00    -0.150 OA
BRANCH  13  16
ATOM     16  C   UNL     1       1.252  -3.900   0.966  0.00  0.00    +0.109 A 
ATOM     17  C   UNL     1       2.457  -4.473   1.327  0.00  0.00    +0.031 A 
ATOM     18  C   UNL     1       2.473  -5.618   2.103  0.00  0.00    +0.034 A 
ATOM     19  C   UNL     1       1.284  -6.188   2.517  0.00  0.00    +0.126 A 
ATOM     20  C   UNL     1       0.079  -5.615   2.155  0.00  0.00    +0.034 A 
ATOM     21  C   UNL     1       0.063  -4.471   1.380  0.00  0.00    +0.031 A 
BRANCH  19  22
ATOM     22  N   UNL     1       1.300  -7.413   3.347  0.00  0.00    +0.056 N 
ATOM     23  O   UNL     1       2.362  -7.919   3.665  0.00  0.00    -0.126 OA
ATOM     24  O   UNL     1       0.253  -7.916   3.712  0.00  0.00    -0.126 OA
ENDBRANCH  19  22
ENDBRANCH  13  16
ENDBRANCH  11  13
TORSDOF 3
