REMARK  Name = ZINC20673744
REMARK  4 active torsions:
REMARK  status: ('A' for Active; 'I' for Inactive)
REMARK    1  A    between atoms: C_1  and  C_2
REMARK    2  A    between atoms: C_2  and  C_3
REMARK    3  A    between atoms: C_2  and  C_4
REMARK    4  A    between atoms: C_7  and  C_10
REMARK                            x       y       z     vdW  Elec       q    Type
REMARK                         _______ _______ _______ _____ _____    ______ ____
ROOT
ATOM      1  C   UNL     1      -5.419  -2.005   0.043  0.00  0.00    +0.090 C 
ATOM      2  C   UNL     1      -5.388  -3.503   0.064  0.00  0.00    +0.044 A 
ATOM      3  C   UNL     1      -5.090  -4.191   1.237  0.00  0.00    +0.127 A 
ATOM      4  N   UNL     1      -5.068  -5.522   1.214  0.00  0.00    -0.199 NA
ATOM      5  C   UNL     1      -5.323  -6.187   0.098  0.00  0.00    +0.221 A 
ATOM      6  N   UNL     1      -5.611  -5.563  -1.035  0.00  0.00    -0.199 NA
ATOM      7  C   UNL     1      -5.652  -4.235  -1.085  0.00  0.00    +0.134 A 
ATOM      8  N   UNL     1      -5.958  -3.575  -2.263  0.00  0.00    -0.302 N 
ATOM      9  C   UNL     1      -6.377  -2.274  -2.243  0.00  0.00    +0.017 C 
ATOM     10  C   UNL     1      -6.146  -1.487  -1.172  0.00  0.00    +0.024 C 
ATOM     11  C   UNL     1      -6.575  -0.148  -1.156  0.00  0.00    +0.162 C 
ATOM     12  O   UNL     1      -6.370   0.531  -0.169  0.00  0.00    -0.292 OA
ATOM     13  C   UNL     1      -7.284   0.461  -2.334  0.00  0.00    +0.080 C 
ATOM     14  C   UNL     1      -6.829  -0.253  -3.611  0.00  0.00    +0.014 C 
ATOM     15  C   UNL     1      -7.110  -1.745  -3.453  0.00  0.00    +0.051 C 
ATOM     16  N   UNL     1      -5.288  -7.570   0.115  0.00  0.00    -0.300 N 
ATOM     17  C   UNL     1      -5.561  -8.341  -1.106  0.00  0.00    +0.108 C 
ATOM     18  C   UNL     1      -4.397  -9.307  -1.349  0.00  0.00    +0.019 C 
ATOM     19  C   UNL     1      -4.181 -10.164  -0.100  0.00  0.00    +0.003 C 
ATOM     20  C   UNL     1      -3.821  -9.262   1.083  0.00  0.00    +0.019 C 
ATOM     21  C   UNL     1      -4.973  -8.296   1.353  0.00  0.00    +0.108 C 
ATOM     22  N   UNL     1      -4.821  -3.502   2.409  0.00  0.00    -0.343 N 
ATOM     23  H   UNL     1      -5.873  -4.040  -3.110  0.00  0.00    +0.153 HD
ATOM     24  H   UNL     1      -4.839  -2.532   2.417  0.00  0.00    +0.144 HD
ATOM     25  H   UNL     1      -4.615  -3.989   3.222  0.00  0.00    +0.144 HD
ENDROOT
BRANCH   1  29
ATOM     26  C   UNL     1      -1.412  -0.526   0.013  0.00  0.00    -0.045 A 
ATOM     27  C   UNL     1      -2.259  -0.204   1.056  0.00  0.00    +0.004 A 
ATOM     28  C   UNL     1      -3.556  -0.683   1.066  0.00  0.00    +0.005 A 
ATOM     29  C   UNL     1      -4.006  -1.482   0.032  0.00  0.00    -0.035 A 
ATOM     30  C   UNL     1      -3.159  -1.803  -1.012  0.00  0.00    +0.005 A 
ATOM     31  C   UNL     1      -1.863  -1.321  -1.024  0.00  0.00    +0.004 A 
BRANCH  26  33
ATOM     32  C   UNL     1      -0.019   1.526   0.010  0.00  0.00    +0.012 C 
ATOM     33  C   UNL     1       0.002  -0.004   0.002  0.00  0.00    +0.013 C 
ATOM     34  C   UNL     1       0.742  -0.511   1.242  0.00  0.00    +0.012 C 
ENDBRANCH  26  33
ENDBRANCH   1  29
TORSDOF 2
