REMARK  Name = ZINC13041104
REMARK  10 active torsions:
REMARK  status: ('A' for Active; 'I' for Inactive)
REMARK    1  A    between atoms: C_1  and  C_2
REMARK    2  A    between atoms: C_2  and  O_3
REMARK    3  A    between atoms: O_3  and  C_4
REMARK    4  A    between atoms: C_7  and  C_10
REMARK    5  A    between atoms: C_10  and  C_12
REMARK    6  A    between atoms: C_16  and  N_17
REMARK    7  A    between atoms: C_18  and  C_20
REMARK    8  A    between atoms: C_20  and  N_67
REMARK    9  A    between atoms: C_23  and  C_26
REMARK   10  A    between atoms: C_30  and  C_34
REMARK                            x       y       z     vdW  Elec       q    Type
REMARK                         _______ _______ _______ _____ _____    ______ ____
ROOT
ATOM      1  C   UNL     1       3.754   2.071   0.200  0.00  0.00    +0.054 A 
ATOM      2  C   UNL     1       2.516   1.326   0.353  0.00  0.00    -0.024 A 
ATOM      3  C   UNL     1       1.389   2.025   0.100  0.00  0.00    -0.004 A 
ATOM      4  S   UNL     1       1.949   3.647  -0.335  0.00  0.00    -0.077 S 
ATOM      5  C   UNL     1       3.658   3.404  -0.184  0.00  0.00    +0.083 A 
ATOM      6  C   UNL     1      -0.021   1.525   0.174  0.00  0.00    +0.046 C 
ATOM      7  C   UNL     1       0.013  -0.010   0.220  0.00  0.00    -0.009 C 
ATOM      8  C   UNL     1       1.041  -0.450   1.266  0.00  0.00    +0.008 C 
ATOM      9  C   UNL     1       2.454  -0.139   0.769  0.00  0.00    +0.037 C 
ATOM     10  C   UNL     1      -1.371  -0.542   0.601  0.00  0.00    +0.008 C 
ENDROOT
BRANCH   5  11
ATOM     11  N   UNL     1       4.679   4.315  -0.394  0.00  0.00    -0.281 N 
ATOM     12  C   UNL     1       4.389   5.603  -0.663  0.00  0.00    +0.201 C 
ATOM     13  O   UNL     1       3.232   5.965  -0.720  0.00  0.00    -0.278 OA
ATOM     14  H   UNL     1       5.604   4.026  -0.348  0.00  0.00    +0.155 HD
BRANCH  12  15
ATOM     15  C   UNL     1       5.500   6.595  -0.892  0.00  0.00    +0.019 C 
BRANCH  15  21
ATOM     16  C   UNL     1       4.183   7.921  -2.430  0.00  0.00    -0.077 C 
ATOM     17  C   UNL     1       3.480   9.269  -2.609  0.00  0.00    -0.006 C 
ATOM     18  C   UNL     1       4.526  10.388  -2.607  0.00  0.00    +0.071 C 
ATOM     19  C   UNL     1       5.318  10.334  -1.298  0.00  0.00    -0.006 C 
ATOM     20  C   UNL     1       5.967   8.955  -1.157  0.00  0.00    -0.077 C 
ATOM     21  N   UNL     1       4.907   7.925  -1.141  0.00  0.00    +0.385 N 
ATOM     22  H   UNL     1       4.245   8.141  -0.387  0.00  0.00    -0.081 HD
BRANCH  18  23
ATOM     23  C   UNL     1       3.836  11.723  -2.723  0.00  0.00    +0.213 C 
ATOM     24  O   UNL     1       3.965  12.551  -1.846  0.00  0.00    -0.276 OA
ATOM     25  N   UNL     1       3.076  11.997  -3.802  0.00  0.00    -0.329 N 
ATOM     26  H   UNL     1       2.973  11.336  -4.504  0.00  0.00    +0.145 HD
ATOM     27  H   UNL     1       2.632  12.857  -3.877  0.00  0.00    +0.145 HD
ENDBRANCH  18  23
ENDBRANCH  15  21
ENDBRANCH  12  15
ENDBRANCH   5  11
BRANCH   1  28
ATOM     28  C   UNL     1       5.055   1.441   0.442  0.00  0.00    +0.196 C 
ATOM     29  O   UNL     1       5.588   1.544   1.532  0.00  0.00    -0.287 OA
BRANCH  28  33
ATOM     30  C   UNL     1       6.965  -0.744  -2.660  0.00  0.00    +0.121 A 
ATOM     31  C   UNL     1       7.522  -0.716  -1.386  0.00  0.00    +0.046 A 
ATOM     32  C   UNL     1       6.906  -0.009  -0.378  0.00  0.00    +0.015 A 
ATOM     33  C   UNL     1       5.719   0.682  -0.637  0.00  0.00    +0.023 A 
ATOM     34  C   UNL     1       5.160   0.647  -1.917  0.00  0.00    +0.015 A 
ATOM     35  C   UNL     1       5.785  -0.058  -2.921  0.00  0.00    +0.046 A 
BRANCH  30  36
ATOM     36  O   UNL     1       7.576  -1.442  -3.651  0.00  0.00    -0.492 OA
BRANCH  36  38
ATOM     37  C   UNL     1       7.776  -2.263  -5.915  0.00  0.00    +0.048 C 
ATOM     38  C   UNL     1       6.949  -1.428  -4.935  0.00  0.00    +0.225 C 
ENDBRANCH  36  38
ENDBRANCH  30  36
ENDBRANCH  28  33
ENDBRANCH   1  28
TORSDOF 8
