REMARK  Name = ZINC25021109
REMARK  10 active torsions:
REMARK  status: ('A' for Active; 'I' for Inactive)
REMARK    1  A    between atoms: C_1  and  C_2
REMARK    2  A    between atoms: C_2  and  C_4
REMARK    3  A    between atoms: C_2  and  S_20
REMARK    4  A    between atoms: N_6  and  C_7
REMARK    5  A    between atoms: C_7  and  C_8
REMARK    6  A    between atoms: N_10  and  C_11
REMARK    7  A    between atoms: S_20  and  C_21
REMARK    8  A    between atoms: N_31  and  C_32
REMARK    9  A    between atoms: C_32  and  C_33
REMARK   10  A    between atoms: C_32  and  C_34
REMARK                            x       y       z     vdW  Elec       q    Type
REMARK                         _______ _______ _______ _____ _____    ______ ____
ROOT
ATOM      1  C   UNL     1       0.720  -0.538   1.214  0.00  0.00    +0.227 C 
ATOM      2  O   UNL     1       1.899  -0.814   1.145  0.00  0.00    -0.275 OA
ATOM      3  N   UNL     1       0.064  -0.671   2.383  0.00  0.00    -0.306 N 
ATOM      4  H   UNL     1      -0.879  -0.450   2.438  0.00  0.00    +0.149 HD
ENDROOT
BRANCH   1   6
ATOM      5  C   UNL     1      -0.026   1.486  -0.010  0.00  0.00    +0.029 C 
ATOM      6  C   UNL     1      -0.011  -0.044  -0.008  0.00  0.00    +0.137 C 
BRANCH   6   7
ATOM      7  S   UNL     1       0.832  -0.643  -1.499  0.00  0.00    -0.075 S 
BRANCH   7   8
ATOM      8  C   UNL     1      -0.211  -0.116  -2.818  0.00  0.00    +0.173 A 
ATOM      9  N   UNL     1      -1.299   0.553  -2.525  0.00  0.00    -0.223 NA
ATOM     10  C   UNL     1      -2.142   0.987  -3.484  0.00  0.00    +0.079 A 
ATOM     11  C   UNL     1      -3.302   1.701  -3.172  0.00  0.00    +0.028 A 
ATOM     12  C   UNL     1      -4.128   2.121  -4.176  0.00  0.00    +0.002 A 
ATOM     13  C   UNL     1      -3.833   1.850  -5.506  0.00  0.00    +0.001 A 
ATOM     14  C   UNL     1      -2.705   1.154  -5.843  0.00  0.00    +0.015 A 
ATOM     15  C   UNL     1      -1.844   0.713  -4.839  0.00  0.00    +0.065 A 
ATOM     16  C   UNL     1      -0.618  -0.039  -5.142  0.00  0.00    +0.263 A 
ATOM     17  O   UNL     1      -0.308  -0.305  -6.288  0.00  0.00    -0.267 OA
ATOM     18  N   UNL     1       0.155  -0.419  -4.099  0.00  0.00    -0.285 N 
BRANCH  18  19
ATOM     19  C   UNL     1       1.392  -1.165  -4.344  0.00  0.00    +0.087 C 
ATOM     20  C   UNL     1       1.063  -2.473  -5.067  0.00  0.00    +0.031 C 
ATOM     21  C   UNL     1       2.331  -0.325  -5.212  0.00  0.00    +0.031 C 
ENDBRANCH  18  19
ENDBRANCH   7   8
ENDBRANCH   6   7
ENDBRANCH   1   6
BRANCH   3  22
ATOM     22  C   UNL     1       0.774  -1.151   3.571  0.00  0.00    +0.200 C 
BRANCH  22  23
ATOM     23  C   UNL     1      -0.179  -1.210   4.737  0.00  0.00    +0.234 C 
ATOM     24  O   UNL     1      -1.337  -0.883   4.590  0.00  0.00    -0.274 OA
ATOM     25  N   UNL     1       0.257  -1.625   5.943  0.00  0.00    -0.282 N 
ATOM     26  H   UNL     1       1.166  -1.947   6.046  0.00  0.00    +0.155 HD
BRANCH  25  27
ATOM     27  C   UNL     1      -0.604  -1.591   7.049  0.00  0.00    +0.072 A 
ATOM     28  C   UNL     1      -1.959  -1.843   6.882  0.00  0.00    +0.029 A 
ATOM     29  C   UNL     1      -2.807  -1.809   7.972  0.00  0.00    +0.043 A 
ATOM     30  C   UNL     1      -2.308  -1.524   9.232  0.00  0.00    +0.161 A 
ATOM     31  C   UNL     1      -0.956  -1.272   9.403  0.00  0.00    +0.195 A 
ATOM     32  C   UNL     1      -0.102  -1.311   8.314  0.00  0.00    +0.182 A 
ATOM     33  F   UNL     1       1.218  -1.071   8.480  0.00  0.00    -0.200 F 
ATOM     34  F   UNL     1      -0.471  -0.994  10.633  0.00  0.00    -0.199 F 
ATOM     35  F   UNL     1      -3.141  -1.492  10.296  0.00  0.00    -0.202 F 
ENDBRANCH  25  27
ENDBRANCH  22  23
ENDBRANCH   3  22
TORSDOF 7
