REMARK  Name = ZINC63514846
REMARK  9 active torsions:
REMARK  status: ('A' for Active; 'I' for Inactive)
REMARK    1  A    between atoms: C_1  and  C_2
REMARK    2  A    between atoms: C_4  and  C_12
REMARK    3  A    between atoms: C_12  and  C_13
REMARK    4  A    between atoms: C_13  and  N_14
REMARK    5  A    between atoms: C_15  and  C_17
REMARK    6  A    between atoms: C_17  and  N_26
REMARK    7  A    between atoms: C_18  and  C_19
REMARK    8  A    between atoms: C_27  and  C_29
REMARK    9  A    between atoms: C_33  and  N_35
REMARK                            x       y       z     vdW  Elec       q    Type
REMARK                         _______ _______ _______ _____ _____    ______ ____
ROOT
ATOM      1  C   UNL     1       1.146  -1.194  -7.343  0.00  0.00    +0.097 C 
ATOM      2  C   UNL     1       0.371  -0.139  -7.683  0.00  0.00    +0.036 C 
ENDROOT
BRANCH   2   3
ATOM      3  C   UNL     1       0.137   0.175  -9.101  0.00  0.00    -0.023 A 
ATOM      4  C   UNL     1       0.367  -0.794 -10.083  0.00  0.00    +0.009 A 
ATOM      5  C   UNL     1       0.145  -0.492 -11.409  0.00  0.00    +0.020 A 
ATOM      6  C   UNL     1      -0.305   0.767 -11.771  0.00  0.00    +0.041 A 
ATOM      7  C   UNL     1      -0.536   1.732 -10.804  0.00  0.00    +0.020 A 
ATOM      8  C   UNL     1      -0.323   1.443  -9.473  0.00  0.00    +0.009 A 
ATOM      9 CL   UNL     1      -0.583   1.138 -13.444  0.00  0.00    -0.084 Cl
ENDBRANCH   2   3
BRANCH   1  11
ATOM     10  N   UNL     1       0.585  -0.925  -4.983  0.00  0.00    -0.310 N 
ATOM     11  C   UNL     1       1.257  -1.602  -5.935  0.00  0.00    +0.258 C 
ATOM     12  O   UNL     1       1.954  -2.551  -5.630  0.00  0.00    -0.269 OA
ATOM     13  H   UNL     1       0.029  -0.168  -5.226  0.00  0.00    +0.149 HD
BRANCH  10  14
ATOM     14  C   UNL     1       0.696  -1.331  -3.580  0.00  0.00    +0.109 C 
BRANCH  14  15
ATOM     15  C   UNL     1      -0.158  -0.405  -2.712  0.00  0.00    +0.052 C 
BRANCH  15  18
ATOM     16  C   UNL     1      -0.281   1.278   0.056  0.00  0.00    +0.035 C 
ATOM     17  C   UNL     1      -0.724  -0.180  -0.080  0.00  0.00    +0.103 C 
ATOM     18  C   UNL     1      -0.045  -0.823  -1.268  0.00  0.00    -0.037 C 
ATOM     19  C   UNL     1       0.684  -1.849  -0.774  0.00  0.00    -0.001 A 
ATOM     20  C   UNL     1       1.557  -2.845  -1.407  0.00  0.00    +0.010 A 
ATOM     21  C   UNL     1       2.166  -3.771  -0.633  0.00  0.00    +0.001 A 
ATOM     22  C   UNL     1       1.986  -3.803   0.757  0.00  0.00    +0.002 A 
ATOM     23  C   UNL     1       1.200  -2.922   1.411  0.00  0.00    +0.026 A 
ATOM     24  C   UNL     1       0.510  -1.905   0.695  0.00  0.00    +0.043 A 
ATOM     25  N   UNL     1      -0.297  -0.950   1.094  0.00  0.00    -0.378 N 
ATOM     26  H   UNL     1      -0.567  -0.781   2.010  0.00  0.00    +0.160 HD
ENDBRANCH  15  18
ENDBRANCH  14  15
ENDBRANCH  10  14
ENDBRANCH   1  11
BRANCH   1  27
ATOM     27  N   UNL     1       1.843  -1.897  -8.331  0.00  0.00    -0.277 N 
ATOM     28  C   UNL     1       1.646  -3.222  -8.481  0.00  0.00    +0.248 C 
ATOM     29  O   UNL     1       0.949  -3.826  -7.689  0.00  0.00    -0.270 OA
ATOM     30  H   UNL     1       2.467  -1.431  -8.909  0.00  0.00    +0.155 HD
BRANCH  28  31
ATOM     31  C   UNL     1       2.279  -3.940  -9.608  0.00  0.00    +0.039 A 
ATOM     32  C   UNL     1       3.172  -3.276 -10.450  0.00  0.00    +0.013 A 
ATOM     33  C   UNL     1       3.759  -3.952 -11.499  0.00  0.00    +0.003 A 
ATOM     34  C   UNL     1       3.463  -5.285 -11.719  0.00  0.00    +0.033 A 
ATOM     35  C   UNL     1       2.578  -5.950 -10.888  0.00  0.00    +0.127 A 
ATOM     36  C   UNL     1       1.989  -5.287  -9.831  0.00  0.00    +0.045 A 
BRANCH  35  37
ATOM     37  N   UNL     1       2.266  -7.376 -11.131  0.00  0.00    +0.056 N 
ATOM     38  O   UNL     1       2.785  -7.960 -12.055  0.00  0.00    -0.126 OA
ATOM     39  O   UNL     1       1.493  -7.958 -10.407  0.00  0.00    -0.126 OA
ENDBRANCH  35  37
ENDBRANCH  28  31
ENDBRANCH   1  27
TORSDOF 8
