REMARK  Name = ZINC08879806
REMARK  15 active torsions:
REMARK  status: ('A' for Active; 'I' for Inactive)
REMARK    1  A    between atoms: C_1  and  C_2
REMARK    2  A    between atoms: C_6  and  O_30
REMARK    3  A    between atoms: C_7  and  C_29
REMARK    4  A    between atoms: C_12  and  C_13
REMARK    5  A    between atoms: C_13  and  C_14
REMARK    6  A    between atoms: C_21  and  C_22
REMARK    7  A    between atoms: C_21  and  N_73
REMARK    8  A    between atoms: N_24  and  C_25
REMARK    9  A    between atoms: C_25  and  C_26
REMARK   10  A    between atoms: C_26  and  N_75
REMARK   11  A    between atoms: C_27  and  N_75
REMARK   12  A    between atoms: C_28  and  N_75
REMARK   13  A    between atoms: O_30  and  C_31
REMARK   14  A    between atoms: C_31  and  C_32
REMARK   15  A    between atoms: C_32  and  C_34
REMARK                            x       y       z     vdW  Elec       q    Type
REMARK                         _______ _______ _______ _____ _____    ______ ____
ROOT
ATOM      1  C   UNL     1       3.823  -8.426   1.336  0.00  0.00    +0.220 C 
ATOM      2  O   UNL     1       3.686  -7.657   2.264  0.00  0.00    -0.275 OA
ATOM      3  N   UNL     1       4.071  -9.730   1.572  0.00  0.00    -0.305 N 
ATOM      4  C   UNL     1       4.234 -10.680   0.462  0.00  0.00    +0.089 C 
ATOM      5  C   UNL     1       5.542 -11.458   0.681  0.00  0.00    -0.059 C 
ATOM      6  C   UNL     1       5.483 -11.037   3.069  0.00  0.00    -0.059 C 
ATOM      7  C   UNL     1       4.180 -10.241   2.947  0.00  0.00    +0.089 C 
ATOM      8  N   UNL     1       5.501 -12.081   2.022  0.00  0.00    +0.387 N 
ATOM      9  H   UNL     1       4.647 -12.646   2.101  0.00  0.00    -0.081 HD
ENDROOT
BRANCH   1  10
ATOM     10  C   UNL     1       3.715  -7.924  -0.081  0.00  0.00    +0.138 C 
BRANCH  10  22
ATOM     11  C   UNL     1       0.995  -6.955  -0.046  0.00  0.00    +0.045 C 
ATOM     12  C   UNL     1       2.155  -5.992  -0.053  0.00  0.00    -0.029 A 
ATOM     13  C   UNL     1       1.931  -4.545  -0.042  0.00  0.00    +0.021 A 
ATOM     14  C   UNL     1       0.635  -4.017  -0.026  0.00  0.00    +0.015 A 
ATOM     15  C   UNL     1       0.454  -2.664  -0.017  0.00  0.00    +0.047 A 
ATOM     16  C   UNL     1       1.552  -1.805  -0.022  0.00  0.00    +0.127 A 
ATOM     17  C   UNL     1       2.841  -2.311  -0.043  0.00  0.00    +0.034 A 
ATOM     18  C   UNL     1       3.043  -3.683  -0.048  0.00  0.00    +0.146 A 
ATOM     19  O   UNL     1       4.291  -4.197  -0.064  0.00  0.00    -0.422 OA
ATOM     20  C   UNL     1       4.503  -5.522  -0.074  0.00  0.00    +0.341 A 
ATOM     21  O   UNL     1       5.647  -5.940  -0.089  0.00  0.00    -0.245 OA
ATOM     22  C   UNL     1       3.436  -6.443  -0.069  0.00  0.00    +0.049 A 
ATOM     23  C   UNL     1       4.021  -1.373  -0.056  0.00  0.00    +0.051 C 
BRANCH  16  24
ATOM     24  O   UNL     1       1.356  -0.462  -0.013  0.00  0.00    -0.487 OA
BRANCH  24  25
ATOM     25  C   UNL     1       0.002  -0.004   0.002  0.00  0.00    +0.259 C 
BRANCH  25  26
ATOM     26  C   UNL     1      -0.018   1.503   0.010  0.00  0.00    -0.043 C 
ATOM     27  C   UNL     1       1.107   2.173   0.003  0.00  0.00    +0.011 C 
ATOM     28  C   UNL     1      -1.333   2.239   0.021  0.00  0.00    +0.042 C 
ENDBRANCH  25  26
ENDBRANCH  24  25
ENDBRANCH  16  24
ENDBRANCH  10  22
ENDBRANCH   1  10
BRANCH   8  29
ATOM     29  C   UNL     1       6.676 -12.959   2.206  0.00  0.00    +0.019 C 
BRANCH  29  30
ATOM     30  C   UNL     1       6.554 -14.134   1.271  0.00  0.00    +0.196 C 
ATOM     31  O   UNL     1       5.603 -14.218   0.523  0.00  0.00    -0.278 OA
ATOM     32  N   UNL     1       7.502 -15.092   1.265  0.00  0.00    -0.319 N 
ATOM     33  H   UNL     1       8.262 -15.025   1.864  0.00  0.00    +0.149 HD
BRANCH  32  34
ATOM     34  C   UNL     1       7.383 -16.235   0.356  0.00  0.00    +0.085 C 
BRANCH  34  35
ATOM     35  C   UNL     1       8.580 -17.168   0.550  0.00  0.00    -0.061 C 
BRANCH  35  38
ATOM     36  C   UNL     1       9.699 -19.104  -0.377  0.00  0.00    -0.097 C 
ATOM     37  C   UNL     1       7.307 -19.150  -0.008  0.00  0.00    -0.097 C 
ATOM     38  N   UNL     1       8.457 -18.303  -0.388  0.00  0.00    +0.377 N 
ATOM     39  H   UNL     1       8.304 -17.938  -1.335  0.00  0.00    -0.083 HD
ENDBRANCH  35  38
ENDBRANCH  34  35
ENDBRANCH  32  34
ENDBRANCH  29  30
ENDBRANCH   8  29
TORSDOF 10
