REMARK  Name = ZINC28060615
REMARK  4 active torsions:
REMARK  status: ('A' for Active; 'I' for Inactive)
REMARK    1  A    between atoms: C_1  and  C_2
REMARK    2  A    between atoms: N_4  and  C_5
REMARK    3  A    between atoms: C_8  and  C_11
REMARK    4  A    between atoms: C_28  and  C_30
REMARK                            x       y       z     vdW  Elec       q    Type
REMARK                         _______ _______ _______ _____ _____    ______ ____
ROOT
ATOM      1  C   UNL     1       2.322   4.076   0.724  0.00  0.00    +0.234 C 
ATOM      2  C   UNL     1       3.643   3.457   0.325  0.00  0.00    +0.026 C 
ATOM      3  C   UNL     1       3.680   2.167  -0.013  0.00  0.00    +0.050 C 
ATOM      4  C   UNL     1       2.411   1.401  -0.015  0.00  0.00    +0.038 A 
ATOM      5  C   UNL     1       2.401   0.011  -0.028  0.00  0.00    +0.013 A 
ATOM      6  C   UNL     1       1.194  -0.661  -0.032  0.00  0.00    +0.001 A 
ATOM      7  C   UNL     1       0.002   0.043  -0.023  0.00  0.00    +0.004 A 
ATOM      8  C   UNL     1       0.003   1.426  -0.010  0.00  0.00    +0.046 A 
ATOM      9  C   UNL     1       1.203   2.112  -0.005  0.00  0.00    +0.131 A 
ATOM     10  O   UNL     1       1.247   3.468   0.010  0.00  0.00    -0.479 OA
ATOM     11  N   UNL     1       4.872   1.517  -0.356  0.00  0.00    -0.282 N 
ATOM     12  C   UNL     1       6.058   2.179  -0.083  0.00  0.00    +0.240 A 
ATOM     13  N   UNL     1       7.291   1.762  -0.072  0.00  0.00    -0.092 NA
ATOM     14  N   UNL     1       8.085   2.726   0.250  0.00  0.00    -0.021 NA
ATOM     15  N   UNL     1       7.413   3.812   0.461  0.00  0.00    -0.042 NA
ATOM     16  N   UNL     1       6.072   3.497   0.250  0.00  0.00    -0.201 N 
ATOM     17  C   UNL     1       4.877   4.324   0.338  0.00  0.00    +0.181 C 
ATOM     18  H   UNL     1       4.841   0.522  -0.823  0.00  0.00    +0.155 HD
ENDROOT
BRANCH   1  22
ATOM     19  C   UNL     1       1.717   3.529   4.919  0.00  0.00    +0.033 A 
ATOM     20  C   UNL     1       2.260   4.715   4.443  0.00  0.00    +0.024 A 
ATOM     21  C   UNL     1       2.454   4.889   3.087  0.00  0.00    +0.009 A 
ATOM     22  C   UNL     1       2.109   3.883   2.203  0.00  0.00    -0.003 A 
ATOM     23  C   UNL     1       1.563   2.703   2.673  0.00  0.00    +0.009 A 
ATOM     24  C   UNL     1       1.371   2.521   4.028  0.00  0.00    +0.024 A 
BRANCH  19  28
ATOM     25  C   UNL     1       1.079   4.234   8.560  0.00  0.00    +0.109 C 
ATOM     26  C   UNL     1       1.169   4.398   7.065  0.00  0.00    +0.214 C 
ATOM     27  O   UNL     1       0.928   5.472   6.556  0.00  0.00    -0.276 OA
ATOM     28  N   UNL     1       1.518   3.350   6.292  0.00  0.00    -0.286 N 
ATOM     29  H   UNL     1       1.647   2.354   6.741  0.00  0.00    +0.155 HD
ENDBRANCH  19  28
ENDBRANCH   1  22
BRANCH  17  30
ATOM     30  C   UNL     1       4.838   5.266  -0.838  0.00  0.00    +0.019 A 
ATOM     31  C   UNL     1       4.833   6.622  -0.846  0.00  0.00    +0.013 A 
ATOM     32  C   UNL     1       4.798   7.285  -2.058  0.00  0.00    +0.008 A 
ATOM     33  C   UNL     1       4.758   6.561  -3.203  0.00  0.00    +0.045 A 
ATOM     34  S   UNL     1       4.778   4.887  -2.581  0.00  0.00    -0.099 S 
ENDBRANCH  17  30
TORSDOF 3
