REMARK  Name = ZINC06721625
REMARK  3 active torsions:
REMARK  status: ('A' for Active; 'I' for Inactive)
REMARK    1  A    between atoms: C_10  and  C_21
REMARK    2  A    between atoms: C_13  and  C_16
REMARK    3  A    between atoms: C_26  and  O_27
REMARK                            x       y       z     vdW  Elec       q    Type
REMARK                         _______ _______ _______ _____ _____    ______ ____
ROOT
ATOM      1  C   UNL     1      -0.017   1.377   0.010  0.00  0.00    +0.001 A 
ATOM      2  C   UNL     1       1.175   2.079   0.002  0.00  0.00    +0.004 A 
ATOM      3  C   UNL     1       2.376   1.403  -0.004  0.00  0.00    +0.046 A 
ATOM      4  C   UNL     1       2.405   0.008  -0.007  0.00  0.00    +0.129 A 
ATOM      5  C   UNL     1       1.204  -0.686  -0.015  0.00  0.00    +0.017 A 
ATOM      6  C   UNL     1       0.002  -0.004   0.002  0.00  0.00    +0.009 A 
ATOM      7  C   UNL     1       1.196  -2.192  -0.070  0.00  0.00    +0.136 C 
ATOM      8  C   UNL     1       0.305  -2.799   1.023  0.00  0.00    +0.086 C 
ATOM      9  C   UNL     1       1.233  -3.746   1.756  0.00  0.00    +0.072 C 
ATOM     10  N   UNL     1       2.437  -3.604   1.306  0.00  0.00    -0.184 NA
ATOM     11  N   UNL     1       2.558  -2.632   0.305  0.00  0.00    -0.205 N 
ATOM     12  C   UNL     1       3.743  -1.988  -0.276  0.00  0.00    +0.311 C 
ATOM     13  O   UNL     1       3.623  -0.591   0.015  0.00  0.00    -0.465 OA
ENDROOT
BRANCH   9  14
ATOM     14  C   UNL     1       0.826  -4.684   2.818  0.00  0.00    +0.039 A 
ATOM     15  C   UNL     1      -0.510  -4.753   3.219  0.00  0.00    +0.013 A 
ATOM     16  C   UNL     1      -0.884  -5.633   4.213  0.00  0.00    +0.001 A 
ATOM     17  C   UNL     1       0.059  -6.447   4.816  0.00  0.00    +0.004 A 
ATOM     18  C   UNL     1       1.385  -6.387   4.428  0.00  0.00    +0.046 A 
ATOM     19  C   UNL     1       1.776  -5.514   3.427  0.00  0.00    +0.126 A 
BRANCH  19  20
ATOM     20  O   UNL     1       3.078  -5.460   3.040  0.00  0.00    -0.506 OA
ATOM     21  H   UNL     1       3.609  -4.822   3.536  0.00  0.00    +0.292 HD
ENDBRANCH  19  20
ENDBRANCH   9  14
BRANCH  12  22
ATOM     22  C   UNL     1       4.995  -2.544   0.353  0.00  0.00    +0.020 A 
ATOM     23  C   UNL     1       6.175  -2.599  -0.364  0.00  0.00    +0.016 A 
ATOM     24  C   UNL     1       7.283  -3.105   0.232  0.00  0.00    +0.045 A 
ATOM     25  S   UNL     1       6.670  -3.525   1.855  0.00  0.00    -0.105 S 
ATOM     26  C   UNL     1       4.981  -2.993   1.632  0.00  0.00    +0.054 A 
ENDBRANCH  12  22
TORSDOF 3
