REMARK  Name = ZINC36844922
REMARK  6 active torsions:
REMARK  status: ('A' for Active; 'I' for Inactive)
REMARK    1  A    between atoms: C_1  and  O_2
REMARK    2  A    between atoms: O_2  and  C_3
REMARK    3  A    between atoms: C_3  and  C_5
REMARK    4  A    between atoms: C_9  and  N_11
REMARK    5  A    between atoms: C_12  and  C_14
REMARK    6  A    between atoms: N_19  and  C_21
REMARK                            x       y       z     vdW  Elec       q    Type
REMARK                         _______ _______ _______ _____ _____    ______ ____
ROOT
ATOM      1  C   UNL     1      -6.227  -4.820   0.233  0.00  0.00    +0.102 C 
ATOM      2  C   UNL     1      -6.535  -5.606  -1.063  0.00  0.00    +0.110 C 
ATOM      3  C   UNL     1      -8.030  -5.452  -1.244  0.00  0.00    +0.221 C 
ATOM      4  O   UNL     1      -8.715  -6.138  -1.972  0.00  0.00    -0.275 OA
ATOM      5  N   UNL     1      -8.487  -4.446  -0.479  0.00  0.00    -0.271 N 
ATOM      6  C   UNL     1      -7.398  -3.813   0.277  0.00  0.00    +0.127 C 
ENDROOT
BRANCH   5   7
ATOM      7  C   UNL     1      -9.829  -4.051  -0.411  0.00  0.00    +0.040 A 
ATOM      8  C   UNL     1     -10.185  -2.922   0.314  0.00  0.00    +0.027 A 
ATOM      9  C   UNL     1     -11.509  -2.533   0.382  0.00  0.00    +0.051 A 
ATOM     10  C   UNL     1     -12.486  -3.268  -0.274  0.00  0.00    +0.162 A 
ATOM     11  C   UNL     1     -12.132  -4.397  -1.003  0.00  0.00    +0.164 A 
ATOM     12  C   UNL     1     -10.803  -4.785  -1.073  0.00  0.00    +0.073 A 
ATOM     13  O   UNL     1     -13.075  -5.127  -1.659  0.00  0.00    -0.485 OA
ATOM     14  C   UNL     1     -14.437  -4.922  -1.266  0.00  0.00    +0.270 C 
ATOM     15  C   UNL     1     -14.686  -3.411  -1.167  0.00  0.00    +0.270 C 
ATOM     16  O   UNL     1     -13.786  -2.871  -0.193  0.00  0.00    -0.485 OA
ENDBRANCH   5   7
BRANCH   1  18
ATOM     17  N   UNL     1      -3.764  -4.812   0.013  0.00  0.00    -0.284 N 
ATOM     18  C   UNL     1      -4.905  -4.105   0.128  0.00  0.00    +0.222 C 
ATOM     19  O   UNL     1      -4.868  -2.893   0.146  0.00  0.00    -0.275 OA
ATOM     20  H   UNL     1      -3.797  -5.778  -0.066  0.00  0.00    +0.155 HD
BRANCH  17  25
ATOM     21  C   UNL     1      -1.179  -2.251  -0.587  0.00  0.00    +0.061 A 
ATOM     22  C   UNL     1      -0.070  -2.858   0.006  0.00  0.00    +0.016 A 
ATOM     23  C   UNL     1      -0.196  -4.100   0.593  0.00  0.00    +0.022 A 
ATOM     24  C   UNL     1      -1.419  -4.749   0.596  0.00  0.00    +0.062 A 
ATOM     25  C   UNL     1      -2.529  -4.152   0.007  0.00  0.00    +0.053 A 
ATOM     26  C   UNL     1      -2.414  -2.902  -0.580  0.00  0.00    +0.039 A 
ATOM     27 CL   UNL     1      -1.567  -6.312   1.336  0.00  0.00    -0.082 Cl
BRANCH  21  28
ATOM     28  C   UNL     1      -1.048  -0.921  -1.216  0.00  0.00    +0.339 C 
ATOM     29  O   UNL     1      -2.015  -0.392  -1.727  0.00  0.00    -0.245 OA
BRANCH  28  31
ATOM     30  C   UNL     1       0.199   0.990  -1.847  0.00  0.00    +0.280 C 
ATOM     31  O   UNL     1       0.145  -0.294  -1.222  0.00  0.00    -0.464 OA
ENDBRANCH  28  31
ENDBRANCH  21  28
ENDBRANCH  17  25
ENDBRANCH   1  18
TORSDOF 5
