REMARK  Name = ZINC37124208
REMARK  4 active torsions:
REMARK  status: ('A' for Active; 'I' for Inactive)
REMARK    1  A    between atoms: C_1  and  C_2
REMARK    2  A    between atoms: C_5  and  N_13
REMARK    3  A    between atoms: C_7  and  N_8
REMARK    4  A    between atoms: N_13  and  C_14
REMARK                            x       y       z     vdW  Elec       q    Type
REMARK                         _______ _______ _______ _____ _____    ______ ____
ROOT
ATOM      1  C   UNL     1      -0.326   1.482   0.050  0.00  0.00    +0.046 C 
ATOM      2  C   UNL     1      -0.145  -0.014   0.021  0.00  0.00    -0.025 A 
ATOM      3  C   UNL     1      -0.246  -0.699  -1.175  0.00  0.00    +0.007 A 
ATOM      4  C   UNL     1      -0.082  -2.070  -1.206  0.00  0.00    +0.023 A 
ATOM      5  C   UNL     1       0.187  -2.765  -0.033  0.00  0.00    +0.029 A 
ATOM      6  C   UNL     1       0.289  -2.080   1.169  0.00  0.00    +0.051 A 
ATOM      7  C   UNL     1       0.128  -0.702   1.196  0.00  0.00    +0.073 A 
ENDROOT
BRANCH   7   8
ATOM      8  N   UNL     1       0.236  -0.006   2.408  0.00  0.00    -0.200 N 
ATOM      9  C   UNL     1      -0.334  -0.325   3.591  0.00  0.00    +0.250 A 
ATOM     10  N   UNL     1       0.026   0.589   4.454  0.00  0.00    -0.116 NA
ATOM     11  N   UNL     1       0.784   1.464   3.898  0.00  0.00    -0.023 NA
ATOM     12  N   UNL     1       0.964   1.171   2.655  0.00  0.00    -0.039 NA
ENDBRANCH   7   8
BRANCH   5  13
ATOM     13  N   UNL     1       0.353  -4.151  -0.065  0.00  0.00    -0.340 N 
ATOM     14  H   UNL     1       0.540  -4.636   0.755  0.00  0.00    +0.146 HD
BRANCH  13  15
ATOM     15  C   UNL     1       0.244  -4.874  -1.334  0.00  0.00    +0.081 C 
ATOM     16  C   UNL     1       1.097  -6.139  -1.252  0.00  0.00    +0.033 C 
ATOM     17  C   UNL     1       0.251  -7.325  -0.712  0.00  0.00    +0.071 C 
ATOM     18  S   UNL     1      -1.341  -6.992  -1.587  0.00  0.00    -0.159 S 
ATOM     19  C   UNL     1      -1.244  -5.157  -1.616  0.00  0.00    +0.091 C 
ENDBRANCH  13  15
ENDBRANCH   5  13
TORSDOF 3
