REMARK  Name = ZINC08987811
REMARK  7 active torsions:
REMARK  status: ('A' for Active; 'I' for Inactive)
REMARK    1  A    between atoms: C_1  and  C_2
REMARK    2  A    between atoms: C_2  and  O_3
REMARK    3  A    between atoms: O_3  and  C_4
REMARK    4  A    between atoms: C_4  and  C_6
REMARK    5  A    between atoms: C_7  and  C_29
REMARK    6  A    between atoms: C_15  and  C_17
REMARK    7  A    between atoms: C_17  and  N_54
REMARK                            x       y       z     vdW  Elec       q    Type
REMARK                         _______ _______ _______ _____ _____    ______ ____
ROOT
ATOM      1  C   UNL     1      -0.831   7.067   3.855  0.00  0.00    +0.114 A 
ATOM      2  C   UNL     1      -0.248   7.210   2.632  0.00  0.00    +0.119 A 
ATOM      3  O   UNL     1       0.006   6.003   2.112  0.00  0.00    -0.441 OA
ATOM      4  C   UNL     1      -0.383   5.019   2.940  0.00  0.00    +0.235 A 
ATOM      5  C   UNL     1      -0.928   5.615   4.077  0.00  0.00    +0.118 A 
ATOM      6  C   UNL     1      -1.419   4.795   5.116  0.00  0.00    +0.263 A 
ATOM      7  O   UNL     1      -1.902   5.281   6.125  0.00  0.00    -0.267 OA
ATOM      8  N   UNL     1      -1.337   3.453   4.961  0.00  0.00    -0.312 N 
ATOM      9  H   UNL     1      -1.665   2.864   5.657  0.00  0.00    +0.170 HD
ATOM     10  C   UNL     1      -0.796   2.932   3.832  0.00  0.00    +0.097 A 
ATOM     11  N   UNL     1      -0.336   3.680   2.868  0.00  0.00    -0.201 NA
ATOM     12  C   UNL     1       0.061   8.526   1.965  0.00  0.00    +0.087 C 
ENDROOT
BRANCH   1  13
ATOM     13  C   UNL     1      -1.270   8.138   4.762  0.00  0.00    +0.343 C 
ATOM     14  O   UNL     1      -0.501   8.586   5.590  0.00  0.00    -0.245 OA
BRANCH  13  15
ATOM     15  O   UNL     1      -2.525   8.622   4.675  0.00  0.00    -0.461 OA
BRANCH  15  17
ATOM     16  C   UNL     1      -4.340  10.097   5.355  0.00  0.00    +0.048 C 
ATOM     17  C   UNL     1      -2.889   9.678   5.603  0.00  0.00    +0.229 C 
ENDBRANCH  15  17
ENDBRANCH  13  15
ENDBRANCH   1  13
BRANCH  10  18
ATOM     18  C   UNL     1      -0.719   1.434   3.688  0.00  0.00    -0.003 C 
BRANCH  18  28
ATOM     19  C   UNL     1      -1.211   1.488   1.319  0.00  0.00    -0.078 C 
ATOM     20  C   UNL     1      -0.621   1.250  -0.074  0.00  0.00    -0.015 C 
ATOM     21  C   UNL     1      -0.261  -0.230  -0.220  0.00  0.00    -0.011 C 
ATOM     22  C   UNL     1       0.381  -0.481  -1.585  0.00  0.00    +0.004 C 
ATOM     23  C   UNL     1       0.729  -1.966  -1.713  0.00  0.00    +0.000 C 
ATOM     24  C   UNL     1       1.705  -2.363  -0.605  0.00  0.00    +0.000 C 
ATOM     25  C   UNL     1       1.069  -2.100   0.761  0.00  0.00    +0.002 C 
ATOM     26  C   UNL     1       0.730  -0.614   0.883  0.00  0.00    -0.025 C 
ATOM     27  C   UNL     1       0.098  -0.332   2.247  0.00  0.00    -0.075 C 
ATOM     28  N   UNL     1      -0.209   1.113   2.339  0.00  0.00    +0.385 N 
ATOM     29  H   UNL     1       0.652   1.647   2.172  0.00  0.00    -0.081 HD
ENDBRANCH  18  28
ENDBRANCH  10  18
TORSDOF 5
