REMARK  Name = ZINC66596638
REMARK  7 active torsions:
REMARK  status: ('A' for Active; 'I' for Inactive)
REMARK    1  A    between atoms: C_1  and  C_2
REMARK    2  A    between atoms: C_2  and  C_4
REMARK    3  A    between atoms: C_2  and  N_10
REMARK    4  A    between atoms: N_13  and  C_14
REMARK    5  A    between atoms: C_14  and  C_15
REMARK    6  A    between atoms: C_15  and  C_16
REMARK    7  A    between atoms: C_16  and  C_17
REMARK                            x       y       z     vdW  Elec       q    Type
REMARK                         _______ _______ _______ _____ _____    ______ ____
ROOT
ATOM      1  N   UNL     1      -1.372  -0.511   0.012  0.00  0.00    -0.294 N 
ATOM      2  C   UNL     1      -2.051  -0.643  -1.145  0.00  0.00    +0.300 C 
ATOM      3  O   UNL     1      -1.522  -0.341  -2.197  0.00  0.00    -0.253 OA
ATOM      4  N   UNL     1      -3.315  -1.109  -1.135  0.00  0.00    -0.299 N 
ATOM      5  H   UNL     1      -1.794  -0.752   0.852  0.00  0.00    +0.151 HD
ATOM      6  H   UNL     1      -3.737  -1.350  -0.295  0.00  0.00    +0.150 HD
ENDROOT
BRANCH   1   8
ATOM      7  C   UNL     1      -0.019   1.526   0.010  0.00  0.00    +0.030 C 
ATOM      8  C   UNL     1       0.002  -0.004   0.002  0.00  0.00    +0.100 C 
BRANCH   8   9
ATOM      9  C   UNL     1       0.742  -0.511   1.242  0.00  0.00    +0.138 C 
ATOM     10  C   UNL     1       0.764  -2.055   1.244  0.00  0.00    +0.035 C 
ATOM     11  C   UNL     1       0.543  -2.385   2.745  0.00  0.00    +0.031 C 
ATOM     12  C   UNL     1      -0.399  -1.230   3.166  0.00  0.00    +0.160 C 
ATOM     13  O   UNL     1       0.057  -0.084   2.425  0.00  0.00    -0.375 OA
ENDBRANCH   8   9
ENDBRANCH   1   8
BRANCH   4  14
ATOM     14  C   UNL     1      -4.053  -1.252  -2.393  0.00  0.00    +0.106 C 
BRANCH  14  15
ATOM     15  C   UNL     1      -5.453  -1.797  -2.104  0.00  0.00    +0.023 C 
BRANCH  15  16
ATOM     16  C   UNL     1      -6.223  -1.947  -3.417  0.00  0.00    +0.036 C 
BRANCH  16  17
ATOM     17  C   UNL     1      -7.602  -2.483  -3.133  0.00  0.00    -0.046 A 
ATOM     18  C   UNL     1      -7.822  -3.848  -3.111  0.00  0.00    +0.004 A 
ATOM     19  C   UNL     1      -9.086  -4.341  -2.850  0.00  0.00    +0.001 A 
ATOM     20  C   UNL     1     -10.132  -3.470  -2.611  0.00  0.00    +0.015 A 
ATOM     21  C   UNL     1      -9.913  -2.104  -2.632  0.00  0.00    +0.018 A 
ATOM     22  C   UNL     1      -8.646  -1.611  -2.888  0.00  0.00    +0.019 A 
ATOM     23 BR   UNL     1     -11.344  -0.912  -2.305  0.00  0.00    -0.050 Br
ENDBRANCH  16  17
ENDBRANCH  15  16
ENDBRANCH  14  15
ENDBRANCH   4  14
TORSDOF 6
