REMARK  Name = ZINC12426422
REMARK  10 active torsions:
REMARK  status: ('A' for Active; 'I' for Inactive)
REMARK    1  A    between atoms: C_1  and  C_2
REMARK    2  A    between atoms: C_2  and  C_3
REMARK    3  A    between atoms: C_2  and  C_4
REMARK    4  A    between atoms: C_4  and  N_5
REMARK    5  A    between atoms: C_9  and  C_11
REMARK    6  A    between atoms: C_11  and  O_12
REMARK    7  A    between atoms: O_12  and  C_13
REMARK    8  A    between atoms: C_13  and  C_15
REMARK    9  A    between atoms: C_15  and  C_16
REMARK   10  A    between atoms: C_23  and  C_28
REMARK                            x       y       z     vdW  Elec       q    Type
REMARK                         _______ _______ _______ _____ _____    ______ ____
ROOT
ATOM      1  C   UNL     1       3.409  -7.588  -4.856  0.00  0.00    +0.144 C 
ENDROOT
BRANCH   1   2
ATOM      2  C   UNL     1       4.245  -8.004  -6.068  0.00  0.00    +0.148 C 
ATOM      3  C   UNL     1       4.233  -9.505  -6.201  0.00  0.00    +0.231 C 
ATOM      4  O   UNL     1       3.461 -10.008  -6.990  0.00  0.00    -0.274 OA
ATOM      5  N   UNL     1       5.026 -10.305  -5.496  0.00  0.00    -0.284 N 
ATOM      6  C   UNL     1       6.048  -9.914  -4.636  0.00  0.00    +0.047 A 
ATOM      7  C   UNL     1       6.544 -10.828  -3.712  0.00  0.00    +0.036 A 
ATOM      8  C   UNL     1       7.543 -10.458  -2.833  0.00  0.00    +0.057 A 
ATOM      9  C   UNL     1       8.062  -9.176  -2.862  0.00  0.00    +0.013 A 
ATOM     10  C   UNL     1       7.581  -8.258  -3.777  0.00  0.00    +0.017 A 
ATOM     11  C   UNL     1       6.581  -8.626  -4.662  0.00  0.00    +0.030 A 
ATOM     12  S   UNL     1       5.966  -7.461  -5.839  0.00  0.00    -0.110 S 
ATOM     13  H   UNL     1       4.878 -11.259  -5.591  0.00  0.00    +0.155 HD
BRANCH   8  14
ATOM     14  C   UNL     1       8.071 -11.457  -1.836  0.00  0.00    +0.417 C 
ATOM     15  F   UNL     1       9.145 -12.154  -2.399  0.00  0.00    -0.166 F 
ATOM     16  F   UNL     1       8.502 -10.786  -0.687  0.00  0.00    -0.166 F 
ATOM     17  F   UNL     1       7.056 -12.358  -1.497  0.00  0.00    -0.166 F 
ENDBRANCH   8  14
ENDBRANCH   1   2
BRANCH   1  18
ATOM     18  C   UNL     1       3.345  -6.085  -4.782  0.00  0.00    +0.309 C 
ATOM     19  O   UNL     1       3.909  -5.414  -5.614  0.00  0.00    -0.251 OA
BRANCH  18  20
ATOM     20  O   UNL     1       2.660  -5.490  -3.793  0.00  0.00    -0.455 OA
BRANCH  20  21
ATOM     21  C   UNL     1       2.640  -4.038  -3.785  0.00  0.00    +0.328 C 
BRANCH  21  26
ATOM     22  N   UNL     1       0.790  -0.475  -1.139  0.00  0.00    -0.299 N 
ATOM     23  C   UNL     1       0.947  -1.797  -1.350  0.00  0.00    +0.306 C 
ATOM     24  O   UNL     1       0.435  -2.598  -0.593  0.00  0.00    -0.252 OA
ATOM     25  N   UNL     1       1.672  -2.231  -2.400  0.00  0.00    -0.237 N 
ATOM     26  C   UNL     1       1.829  -3.553  -2.610  0.00  0.00    +0.258 C 
ATOM     27  O   UNL     1       1.319  -4.352  -1.855  0.00  0.00    -0.272 OA
ATOM     28  H   UNL     1       1.198   0.164  -1.744  0.00  0.00    +0.150 HD
ATOM     29  H   UNL     1       2.081  -1.592  -3.005  0.00  0.00    +0.159 HD
BRANCH  22  30
ATOM     30  C   UNL     1       0.002  -0.004   0.002  0.00  0.00    +0.108 C 
BRANCH  30  32
ATOM     31  C   UNL     1      -0.759   2.033  -1.229  0.00  0.00    +0.009 C 
ATOM     32  C   UNL     1      -0.019   1.526   0.010  0.00  0.00    -0.000 C 
ATOM     33  C   UNL     1      -0.735   2.019   1.269  0.00  0.00    +0.009 C 
ENDBRANCH  30  32
ENDBRANCH  22  30
ENDBRANCH  21  26
ENDBRANCH  20  21
ENDBRANCH  18  20
ENDBRANCH   1  18
TORSDOF 8
