REMARK  Name = ZINC63291218
REMARK  7 active torsions:
REMARK  status: ('A' for Active; 'I' for Inactive)
REMARK    1  A    between atoms: C_4  and  C_7
REMARK    2  A    between atoms: C_7  and  N_8
REMARK    3  A    between atoms: C_9  and  C_11
REMARK    4  A    between atoms: C_20  and  N_22
REMARK    5  A    between atoms: C_23  and  C_25
REMARK    6  A    between atoms: C_25  and  S_26
REMARK    7  A    between atoms: S_26  and  C_27
REMARK                            x       y       z     vdW  Elec       q    Type
REMARK                         _______ _______ _______ _____ _____    ______ ____
ROOT
ATOM      1  C   UNL     1       5.753  -1.847   2.950  0.00  0.00    +0.045 C 
ATOM      2  C   UNL     1       6.879  -2.470   3.187  0.00  0.00    -0.046 C 
ATOM      3  C   UNL     1       7.890  -2.900   2.124  0.00  0.00    +0.032 C 
ATOM      4  C   UNL     1       8.882  -3.836   2.822  0.00  0.00    +0.004 C 
ATOM      5  C   UNL     1       9.613  -3.143   3.962  0.00  0.00    +0.002 C 
ATOM      6  C   UNL     1       8.703  -2.241   4.793  0.00  0.00    +0.018 C 
ATOM      7  C   UNL     1       7.254  -2.713   4.656  0.00  0.00    +0.075 C 
ATOM      8  S   UNL     1       6.126  -1.538   5.507  0.00  0.00    -0.126 S 
ATOM      9  C   UNL     1       4.915  -1.376   4.125  0.00  0.00    +0.167 C 
ENDROOT
BRANCH   1  11
ATOM     10  N   UNL     1       4.152  -0.952   1.338  0.00  0.00    -0.307 N 
ATOM     11  C   UNL     1       5.311  -1.601   1.569  0.00  0.00    +0.243 C 
ATOM     12  O   UNL     1       5.991  -1.982   0.635  0.00  0.00    -0.270 OA
ATOM     13  H   UNL     1       3.610  -0.648   2.082  0.00  0.00    +0.149 HD
BRANCH  10  14
ATOM     14  C   UNL     1       3.711  -0.707  -0.038  0.00  0.00    +0.139 C 
BRANCH  14  18
ATOM     15  C   UNL     1      -0.017   1.378   0.010  0.00  0.00    +0.000 A 
ATOM     16  C   UNL     1       1.171   2.086   0.002  0.00  0.00    +0.000 A 
ATOM     17  C   UNL     1       2.377   1.411  -0.013  0.00  0.00    +0.005 A 
ATOM     18  C   UNL     1       2.396   0.029  -0.020  0.00  0.00    -0.030 A 
ATOM     19  C   UNL     1       1.208  -0.679  -0.012  0.00  0.00    +0.005 A 
ATOM     20  C   UNL     1       0.002  -0.004   0.002  0.00  0.00    +0.000 A 
ENDBRANCH  14  18
ENDBRANCH  10  14
ENDBRANCH   1  11
BRANCH   9  21
ATOM     21  N   UNL     1       3.759  -2.252   4.333  0.00  0.00    -0.299 N 
ATOM     22  C   UNL     1       3.439  -2.661   5.577  0.00  0.00    +0.224 C 
ATOM     23  O   UNL     1       4.108  -2.304   6.523  0.00  0.00    -0.275 OA
ATOM     24  H   UNL     1       3.224  -2.538   3.576  0.00  0.00    +0.150 HD
BRANCH  22  25
ATOM     25  C   UNL     1       2.250  -3.561   5.791  0.00  0.00    +0.168 C 
BRANCH  25  26
ATOM     26  S   UNL     1       2.083  -3.931   7.559  0.00  0.00    -0.106 S 
BRANCH  26  27
ATOM     27  C   UNL     1       0.627  -5.010   7.646  0.00  0.00    +0.236 C 
ATOM     28  N   UNL     1       0.822  -6.189   6.793  0.00  0.00    -0.355 N 
ATOM     29  C   UNL     1      -0.116  -6.179   5.891  0.00  0.00    +0.061 A 
ATOM     30  C   UNL     1      -0.442  -7.081   4.778  0.00  0.00    +0.027 A 
ATOM     31  C   UNL     1      -1.501  -6.809   3.989  0.00  0.00    +0.002 A 
ATOM     32  C   UNL     1      -2.322  -5.685   4.184  0.00  0.00    +0.002 A 
ATOM     33  C   UNL     1      -2.113  -4.795   5.175  0.00  0.00    +0.027 A 
ATOM     34  C   UNL     1      -0.986  -4.989   6.098  0.00  0.00    +0.061 A 
ATOM     35  N   UNL     1      -0.552  -4.309   7.119  0.00  0.00    -0.355 N 
ATOM     36  H   UNL     1       1.522  -6.855   6.886  0.00  0.00    +0.162 HD
ATOM     37  H   UNL     1      -0.936  -3.490   7.469  0.00  0.00    +0.162 HD
ENDBRANCH  26  27
ENDBRANCH  25  26
ENDBRANCH  22  25
ENDBRANCH   9  21
TORSDOF 7
