REMARK  Name = ZINC54426257
REMARK  5 active torsions:
REMARK  status: ('A' for Active; 'I' for Inactive)
REMARK    1  A    between atoms: C_1  and  C_2
REMARK    2  A    between atoms: C_2  and  C_3
REMARK    3  A    between atoms: C_3  and  O_4
REMARK    4  A    between atoms: O_4  and  C_5
REMARK    5  A    between atoms: C_9  and  C_11
REMARK                            x       y       z     vdW  Elec       q    Type
REMARK                         _______ _______ _______ _____ _____    ______ ____
ROOT
ATOM      1  C   UNL     1      -3.956  -6.129   0.018  0.00  0.00    +0.209 C 
ATOM      2  N   UNL     1      -5.063  -6.589  -0.839  0.00  0.00    -0.294 N 
ATOM      3  C   UNL     1      -6.340  -6.622  -0.346  0.00  0.00    +0.160 C 
ATOM      4  N   UNL     1      -6.578  -6.826   0.938  0.00  0.00    -0.302 N 
ATOM      5  C   UNL     1      -5.522  -6.941   1.778  0.00  0.00    +0.213 A 
ATOM      6  N   UNL     1      -4.238  -6.622   1.371  0.00  0.00    -0.286 N 
ATOM      7  C   UNL     1      -3.390  -6.850   2.430  0.00  0.00    +0.076 A 
ATOM      8  C   UNL     1      -2.019  -6.731   2.618  0.00  0.00    +0.077 A 
ATOM      9  C   UNL     1      -1.462  -7.048   3.842  0.00  0.00    +0.164 A 
ATOM     10  C   UNL     1      -2.265  -7.489   4.890  0.00  0.00    +0.164 A 
ATOM     11  C   UNL     1      -3.628  -7.614   4.721  0.00  0.00    +0.079 A 
ATOM     12  C   UNL     1      -4.206  -7.295   3.487  0.00  0.00    +0.095 A 
ATOM     13  N   UNL     1      -5.494  -7.319   3.029  0.00  0.00    -0.212 NA
ATOM     14  O   UNL     1      -1.695  -7.796   6.092  0.00  0.00    -0.488 OA
ATOM     15  C   UNL     1      -0.857  -8.953   6.109  0.00  0.00    +0.232 C 
ATOM     16  C   UNL     1       0.553  -8.604   5.659  0.00  0.00    +0.082 C 
ATOM     17  C   UNL     1       0.602  -8.154   4.207  0.00  0.00    +0.232 C 
ATOM     18  O   UNL     1      -0.114  -6.930   4.031  0.00  0.00    -0.488 OA
ATOM     19  N   UNL     1      -7.393  -6.439  -1.201  0.00  0.00    -0.332 N 
ATOM     20  H   UNL     1      -4.887  -6.868  -1.752  0.00  0.00    +0.151 HD
ATOM     21  H   UNL     1      -7.231  -6.289  -2.145  0.00  0.00    +0.145 HD
ATOM     22  H   UNL     1      -8.302  -6.461  -0.863  0.00  0.00    +0.145 HD
ATOM     23  H   UNL     1      -7.487  -6.892   1.271  0.00  0.00    +0.171 HD
ENDROOT
BRANCH   1  28
ATOM     24  C   UNL     1      -2.616  -2.596   0.013  0.00  0.00    +0.121 A 
ATOM     25  C   UNL     1      -3.791  -1.857   0.022  0.00  0.00    +0.045 A 
ATOM     26  C   UNL     1      -5.012  -2.503   0.030  0.00  0.00    +0.004 A 
ATOM     27  C   UNL     1      -5.064  -3.885   0.029  0.00  0.00    +0.007 A 
ATOM     28  C   UNL     1      -3.895  -4.623   0.020  0.00  0.00    -0.003 A 
ATOM     29  C   UNL     1      -2.671  -3.982   0.006  0.00  0.00    +0.053 A 
BRANCH  24  30
ATOM     30  O   UNL     1      -1.414  -1.962   0.005  0.00  0.00    -0.492 OA
BRANCH  30  31
ATOM     31  C   UNL     1      -1.433  -0.534   0.013  0.00  0.00    +0.229 C 
BRANCH  31  33
ATOM     32  C   UNL     1      -0.019   1.526   0.010  0.00  0.00    +0.007 C 
ATOM     33  C   UNL     1       0.002  -0.004   0.002  0.00  0.00    +0.038 C 
ENDBRANCH  31  33
ENDBRANCH  30  31
ENDBRANCH  24  30
ENDBRANCH   1  28
TORSDOF 4
