REMARK  Name = ZINC66190805
REMARK  9 active torsions:
REMARK  status: ('A' for Active; 'I' for Inactive)
REMARK    1  A    between atoms: C_1  and  C_2
REMARK    2  A    between atoms: C_4  and  C_8
REMARK    3  A    between atoms: C_5  and  C_7
REMARK    4  A    between atoms: C_8  and  C_10
REMARK    5  A    between atoms: C_8  and  N_11
REMARK    6  A    between atoms: N_14  and  C_15
REMARK    7  A    between atoms: N_14  and  C_16
REMARK    8  A    between atoms: N_19  and  C_22
REMARK    9  A    between atoms: C_25  and  C_28
REMARK                            x       y       z     vdW  Elec       q    Type
REMARK                         _______ _______ _______ _____ _____    ______ ____
ROOT
ATOM      1  N   UNL     1      -2.752  -3.099  -0.586  0.00  0.00    -0.293 N 
ATOM      2  C   UNL     1      -3.473  -4.086  -1.154  0.00  0.00    +0.303 C 
ATOM      3  O   UNL     1      -3.031  -5.219  -1.188  0.00  0.00    -0.253 OA
ATOM      4  N   UNL     1      -4.682  -3.818  -1.684  0.00  0.00    -0.286 N 
ATOM      5  C   UNL     1      -5.215  -2.454  -1.642  0.00  0.00    +0.134 C 
ATOM      6  H   UNL     1      -3.105  -2.196  -0.558  0.00  0.00    +0.151 HD
ENDROOT
BRANCH   4   7
ATOM      7  C   UNL     1      -5.465  -4.892  -2.301  0.00  0.00    +0.074 C 
ATOM      8  C   UNL     1      -5.736  -4.549  -3.769  0.00  0.00    +0.004 C 
ATOM      9  C   UNL     1      -6.620  -5.634  -4.386  0.00  0.00    -0.077 C 
ATOM     10  N   UNL     1      -7.892  -5.707  -3.657  0.00  0.00    +0.382 N 
ATOM     11  C   UNL     1      -7.646  -6.106  -2.266  0.00  0.00    -0.077 C 
ATOM     12  C   UNL     1      -6.801  -5.039  -1.567  0.00  0.00    +0.004 C 
ATOM     13  H   UNL     1      -8.340  -4.803  -3.672  0.00  0.00    -0.081 HD
BRANCH  10  14
ATOM     14  C   UNL     1      -8.768  -6.696  -4.301  0.00  0.00    -0.069 C 
ATOM     15  C   UNL     1     -10.094  -6.774  -3.541  0.00  0.00    -0.015 C 
ATOM     16  C   UNL     1     -11.006  -7.803  -4.212  0.00  0.00    +0.002 C 
ATOM     17  C   UNL     1     -11.271  -7.384  -5.659  0.00  0.00    -0.014 C 
ATOM     18  C   UNL     1      -9.945  -7.306  -6.418  0.00  0.00    +0.002 C 
ATOM     19  C   UNL     1      -9.033  -6.277  -5.748  0.00  0.00    -0.015 C 
ATOM     20  C   UNL     1     -12.183  -8.413  -6.330  0.00  0.00    +0.007 C 
ENDBRANCH  10  14
ENDBRANCH   4   7
BRANCH   1  21
ATOM     21  C   UNL     1      -1.437  -3.390  -0.009  0.00  0.00    +0.105 C 
ATOM     22  C   UNL     1      -1.609  -3.892   1.426  0.00  0.00    +0.033 C 
BRANCH  21  26
ATOM     23  C   UNL     1      -0.018   1.503   0.010  0.00  0.00    +0.086 C 
ATOM     24  C   UNL     1       0.002  -0.004   0.002  0.00  0.00    +0.103 A 
ATOM     25  C   UNL     1      -1.078  -0.805   0.003  0.00  0.00    +0.050 A 
ATOM     26  C   UNL     1      -0.601  -2.136  -0.007  0.00  0.00    +0.013 A 
ATOM     27  C   UNL     1       0.742  -2.069  -0.013  0.00  0.00    +0.107 A 
ATOM     28  O   UNL     1       1.102  -0.775  -0.013  0.00  0.00    -0.465 OA
ATOM     29  C   UNL     1       1.684  -3.245  -0.023  0.00  0.00    +0.086 C 
ENDBRANCH  21  26
ENDBRANCH   1  21
TORSDOF 4
