REMARK  Name = ZINC40735092
REMARK  7 active torsions:
REMARK  status: ('A' for Active; 'I' for Inactive)
REMARK    1  A    between atoms: C_1  and  C_2
REMARK    2  A    between atoms: C_7  and  C_9
REMARK    3  A    between atoms: C_7  and  C_10
REMARK    4  A    between atoms: C_14  and  N_30
REMARK    5  A    between atoms: C_15  and  N_19
REMARK    6  A    between atoms: N_19  and  N_20
REMARK    7  A    between atoms: C_21  and  C_23
REMARK                            x       y       z     vdW  Elec       q    Type
REMARK                         _______ _______ _______ _____ _____    ______ ____
ROOT
ATOM      1  C   UNL     1       0.397   0.161   1.984  0.00  0.00    +0.013 C 
ATOM      2  C   UNL     1      -0.009  -1.300   1.738  0.00  0.00    -0.014 C 
ATOM      3  C   UNL     1       0.953  -2.023   0.756  0.00  0.00    +0.030 C 
ATOM      4  C   UNL     1       0.053  -3.214   0.342  0.00  0.00    +0.076 C 
ATOM      5  C   UNL     1       0.045  -4.202   1.506  0.00  0.00    +0.029 C 
ATOM      6  C   UNL     1      -0.383  -3.592   2.829  0.00  0.00    -0.033 C 
ATOM      7  C   UNL     1      -0.048  -2.125   3.024  0.00  0.00    +0.014 C 
ATOM      8  C   UNL     1       0.344  -4.379   3.949  0.00  0.00    +0.011 C 
ATOM      9  C   UNL     1      -1.886  -3.821   3.044  0.00  0.00    +0.011 C 
ATOM     10  N   UNL     1      -1.297  -2.635   0.191  0.00  0.00    -0.310 N 
ATOM     11  C   UNL     1      -1.369  -1.419   1.015  0.00  0.00    +0.113 C 
ATOM     12  C   UNL     1      -2.320  -3.142  -0.602  0.00  0.00    +0.148 A 
ATOM     13  C   UNL     1      -3.590  -2.562  -0.578  0.00  0.00    +0.107 A 
ATOM     14  C   UNL     1      -4.580  -3.110  -1.393  0.00  0.00    +0.161 A 
ATOM     15  N   UNL     1      -4.280  -4.157  -2.158  0.00  0.00    -0.217 NA
ATOM     16  C   UNL     1      -3.068  -4.675  -2.151  0.00  0.00    +0.225 A 
ATOM     17  N   UNL     1      -2.103  -4.185  -1.400  0.00  0.00    -0.219 NA
ENDROOT
BRANCH  13  18
ATOM     18  N   UNL     1      -3.862  -1.457   0.246  0.00  0.00    -0.353 N 
ATOM     19  H   UNL     1      -3.180  -0.784   0.396  0.00  0.00    +0.143 HD
ATOM     20  H   UNL     1      -4.733  -1.367   0.664  0.00  0.00    +0.143 HD
ENDBRANCH  13  18
BRANCH  14  21
ATOM     21  N   UNL     1      -5.862  -2.571  -1.407  0.00  0.00    -0.247 N 
ATOM     22  H   UNL     1      -6.072  -1.808  -0.846  0.00  0.00    +0.172 HD
BRANCH  21  23
ATOM     23  N   UNL     1      -6.848  -3.130  -2.230  0.00  0.00    -0.231 N 
ATOM     24  C   UNL     1      -8.090  -2.607  -2.243  0.00  0.00    +0.260 C 
ATOM     25  O   UNL     1      -8.355  -1.651  -1.541  0.00  0.00    -0.269 OA
ATOM     26  H   UNL     1      -6.637  -3.893  -2.790  0.00  0.00    +0.173 HD
BRANCH  24  27
ATOM     27  C   UNL     1      -9.131  -3.197  -3.111  0.00  0.00    +0.038 A 
ATOM     28  C   UNL     1      -8.832  -4.299  -3.914  0.00  0.00    +0.014 A 
ATOM     29  C   UNL     1      -9.807  -4.845  -4.722  0.00  0.00    +0.016 A 
ATOM     30  C   UNL     1     -11.081  -4.302  -4.737  0.00  0.00    +0.018 A 
ATOM     31  C   UNL     1     -11.384  -3.209  -3.943  0.00  0.00    +0.016 A 
ATOM     32  C   UNL     1     -10.418  -2.658  -3.127  0.00  0.00    +0.014 A 
ATOM     33 BR   UNL     1     -12.413  -5.057  -5.848  0.00  0.00    -0.050 Br
ENDBRANCH  24  27
ENDBRANCH  21  23
ENDBRANCH  14  21
TORSDOF 4
