REMARK  Name = ZINC35172507
REMARK  12 active torsions:
REMARK  status: ('A' for Active; 'I' for Inactive)
REMARK    1  A    between atoms: C_1  and  C_2
REMARK    2  A    between atoms: C_7  and  N_8
REMARK    3  A    between atoms: C_9  and  N_17
REMARK    4  A    between atoms: C_11  and  C_13
REMARK    5  A    between atoms: C_13  and  C_14
REMARK    6  A    between atoms: C_13  and  C_15
REMARK    7  A    between atoms: C_13  and  C_16
REMARK    8  A    between atoms: C_18  and  C_20
REMARK    9  A    between atoms: C_20  and  N_21
REMARK   10  A    between atoms: N_21  and  C_22
REMARK   11  A    between atoms: C_22  and  C_23
REMARK   12  A    between atoms: C_28  and  C_30
REMARK                            x       y       z     vdW  Elec       q    Type
REMARK                         _______ _______ _______ _____ _____    ______ ____
ROOT
ATOM      1  N   UNL     1       0.286  -2.966   3.581  0.00  0.00    -0.269 N 
ATOM      2  C   UNL     1       0.394  -2.995   4.924  0.00  0.00    +0.236 C 
ATOM      3  O   UNL     1       0.016  -2.049   5.583  0.00  0.00    -0.274 OA
ATOM      4  H   UNL     1       0.588  -3.723   3.054  0.00  0.00    +0.156 HD
ENDROOT
BRANCH   1   6
ATOM      5  N   UNL     1      -0.532  -1.729   1.621  0.00  0.00    -0.218 N 
ATOM      6  C   UNL     1      -0.259  -1.849   2.949  0.00  0.00    +0.129 A 
ATOM      7  C   UNL     1      -0.616  -0.680   3.546  0.00  0.00    +0.069 A 
ATOM      8  C   UNL     1      -1.118   0.172   2.558  0.00  0.00    +0.071 A 
ATOM      9  N   UNL     1      -1.063  -0.450   1.408  0.00  0.00    -0.169 NA
BRANCH   5  16
ATOM     10  C   UNL     1      -2.646  -2.307  -0.195  0.00  0.00    +0.046 C 
ATOM     11  C   UNL     1      -1.319  -3.019  -0.265  0.00  0.00    -0.025 A 
ATOM     12  C   UNL     1      -1.100  -3.980  -1.233  0.00  0.00    +0.005 A 
ATOM     13  C   UNL     1       0.116  -4.634  -1.297  0.00  0.00    +0.000 A 
ATOM     14  C   UNL     1       1.117  -4.329  -0.393  0.00  0.00    +0.002 A 
ATOM     15  C   UNL     1       0.904  -3.370   0.578  0.00  0.00    +0.028 A 
ATOM     16  C   UNL     1      -0.315  -2.707   0.641  0.00  0.00    +0.070 A 
ENDBRANCH   5  16
BRANCH   8  17
ATOM     17  C   UNL     1      -1.631   1.571   2.778  0.00  0.00    +0.006 C 
ATOM     18  C   UNL     1      -0.449   2.518   3.000  0.00  0.00    +0.017 C 
ATOM     19  C   UNL     1      -2.423   2.024   1.550  0.00  0.00    +0.017 C 
ATOM     20  C   UNL     1      -2.540   1.594   4.009  0.00  0.00    +0.017 C 
ENDBRANCH   8  17
ENDBRANCH   1   6
BRANCH   2  21
ATOM     21  C   UNL     1       0.983  -4.202   5.608  0.00  0.00    +0.204 C 
BRANCH  21  22
ATOM     22  N   UNL     1       0.989  -3.988   7.057  0.00  0.00    -0.281 N 
ATOM     23  C   UNL     1       2.127  -3.621   7.679  0.00  0.00    +0.248 C 
ATOM     24  O   UNL     1       2.138  -3.469   8.886  0.00  0.00    -0.270 OA
BRANCH  23  25
ATOM     25  C   UNL     1       3.359  -3.403   6.896  0.00  0.00    +0.041 A 
ATOM     26  C   UNL     1       3.279  -3.091   5.537  0.00  0.00    +0.017 A 
ATOM     27  C   UNL     1       4.430  -2.887   4.808  0.00  0.00    +0.050 A 
ATOM     28  C   UNL     1       5.672  -2.992   5.420  0.00  0.00    +0.166 A 
ATOM     29  C   UNL     1       5.759  -3.304   6.777  0.00  0.00    +0.167 A 
ATOM     30  C   UNL     1       4.608  -3.504   7.514  0.00  0.00    +0.062 A 
ATOM     31  O   UNL     1       7.077  -3.346   7.130  0.00  0.00    -0.453 OA
ATOM     32  C   UNL     1       7.803  -3.461   5.892  0.00  0.00    +0.466 C 
ATOM     33  O   UNL     1       6.935  -2.839   4.927  0.00  0.00    -0.453 OA
ENDBRANCH  23  25
BRANCH  22  34
ATOM     34  C   UNL     1      -0.242  -4.173   7.830  0.00  0.00    +0.182 C 
BRANCH  34  35
ATOM     35  C   UNL     1      -0.282  -5.574   8.383  0.00  0.00    +0.122 A 
ATOM     36  C   UNL     1       0.120  -5.947   9.611  0.00  0.00    +0.046 A 
ATOM     37  C   UNL     1      -0.094  -7.341   9.706  0.00  0.00    +0.041 A 
ATOM     38  C   UNL     1      -0.614  -7.737   8.530  0.00  0.00    +0.195 A 
ATOM     39  O   UNL     1      -0.731  -6.661   7.734  0.00  0.00    -0.466 OA
ENDBRANCH  34  35
ENDBRANCH  22  34
ENDBRANCH  21  22
ENDBRANCH   2  21
TORSDOF 8
