REMARK  Name = ZINC23339927
REMARK  3 active torsions:
REMARK  status: ('A' for Active; 'I' for Inactive)
REMARK    1  A    between atoms: C_4  and  C_7
REMARK    2  A    between atoms: C_7  and  C_8
REMARK    3  A    between atoms: N_22  and  C_23
REMARK                            x       y       z     vdW  Elec       q    Type
REMARK                         _______ _______ _______ _____ _____    ______ ____
ROOT
ATOM      1  C   UNL     1      -0.405   7.235   3.293  0.00  0.00    +0.072 A 
ATOM      2  C   UNL     1      -0.350   5.924   2.831  0.00  0.00    +0.014 A 
ATOM      3  C   UNL     1       0.770   5.346   3.342  0.00  0.00    +0.042 A 
ATOM      4  N   UNL     1       1.399   6.260   4.095  0.00  0.00    -0.281 N 
ATOM      5  H   UNL     1       2.338   6.000   4.605  0.00  0.00    +0.189 HD
ATOM      6  N   UNL     1       0.644   7.443   4.053  0.00  0.00    -0.178 NA
ATOM      7  C   UNL     1       1.162   3.917   3.061  0.00  0.00    +0.074 C 
ATOM      8  C   UNL     1      -0.068   3.195   2.491  0.00  0.00    +0.114 C 
ATOM      9  N   UNL     1      -0.652   3.997   1.407  0.00  0.00    -0.294 N 
ATOM     10  C   UNL     1      -1.318   5.204   1.927  0.00  0.00    +0.146 C 
ATOM     11  C   UNL     1      -1.524   3.239   0.645  0.00  0.00    +0.243 A 
ATOM     12  N   UNL     1      -2.783   3.518   0.390  0.00  0.00    -0.092 NA
ATOM     13  N   UNL     1      -3.305   2.606  -0.350  0.00  0.00    -0.021 NA
ATOM     14  N   UNL     1      -2.433   1.696  -0.623  0.00  0.00    -0.038 NA
ATOM     15  N   UNL     1      -1.240   2.070   0.019  0.00  0.00    -0.181 N 
ENDROOT
BRANCH  15  16
ATOM     16  C   UNL     1      -0.017   1.384   0.010  0.00  0.00    +0.071 A 
ATOM     17  C   UNL     1       1.177   2.092   0.002  0.00  0.00    +0.028 A 
ATOM     18  C   UNL     1       2.381   1.413  -0.013  0.00  0.00    +0.002 A 
ATOM     19  C   UNL     1       2.396   0.031  -0.021  0.00  0.00    +0.000 A 
ATOM     20  C   UNL     1       1.208  -0.677  -0.013  0.00  0.00    +0.002 A 
ATOM     21  C   UNL     1       0.002  -0.004   0.002  0.00  0.00    +0.028 A 
ENDBRANCH  15  16
BRANCH   1  22
ATOM     22  C   UNL     1      -1.481   8.241   2.975  0.00  0.00    +0.092 C 
BRANCH  22  26
ATOM     23  C   UNL     1      -4.588   7.972   5.894  0.00  0.00    +0.000 A 
ATOM     24  C   UNL     1      -3.523   8.829   6.096  0.00  0.00    +0.000 A 
ATOM     25  C   UNL     1      -2.517   8.916   5.152  0.00  0.00    +0.004 A 
ATOM     26  C   UNL     1      -2.577   8.146   4.005  0.00  0.00    -0.042 A 
ATOM     27  C   UNL     1      -3.645   7.293   3.801  0.00  0.00    +0.004 A 
ATOM     28  C   UNL     1      -4.648   7.202   4.748  0.00  0.00    +0.000 A 
ENDBRANCH  22  26
ENDBRANCH   1  22
TORSDOF 3
