REMARK  Name = ZINC39388329
REMARK  7 active torsions:
REMARK  status: ('A' for Active; 'I' for Inactive)
REMARK    1  A    between atoms: C_1  and  C_2
REMARK    2  A    between atoms: C_2  and  C_18
REMARK    3  A    between atoms: N_5  and  C_9
REMARK    4  A    between atoms: N_21  and  C_24
REMARK    5  A    between atoms: C_24  and  C_25
REMARK    6  A    between atoms: C_33  and  C_34
REMARK    7  A    between atoms: C_33  and  C_35
REMARK                            x       y       z     vdW  Elec       q    Type
REMARK                         _______ _______ _______ _____ _____    ______ ____
ROOT
ATOM      1  C   UNL     1      -0.019   1.526   0.010  0.00  0.00    +0.042 C 
ATOM      2  C   UNL     1       0.002  -0.004   0.002  0.00  0.00    +0.112 C 
ATOM      3  C   UNL     1      -1.403  -0.557   0.139  0.00  0.00    +0.247 C 
ATOM      4  O   UNL     1      -2.332  -0.392  -0.621  0.00  0.00    -0.273 OA
ATOM      5  N   UNL     1      -1.403  -1.272   1.282  0.00  0.00    -0.221 N 
ATOM      6  C   UNL     1      -0.206  -1.247   1.879  0.00  0.00    +0.310 C 
ATOM      7  O   UNL     1       0.040  -1.819   2.924  0.00  0.00    -0.252 OA
ATOM      8  N   UNL     1       0.695  -0.520   1.195  0.00  0.00    -0.285 N 
ATOM      9  H   UNL     1       1.621  -0.365   1.440  0.00  0.00    +0.151 HD
ENDROOT
BRANCH   5  10
ATOM     10  C   UNL     1      -2.569  -1.986   1.805  0.00  0.00    +0.094 C 
ATOM     11  C   UNL     1      -2.849  -1.583   3.269  0.00  0.00    +0.058 C 
ATOM     12  C   UNL     1      -3.349  -2.845   3.939  0.00  0.00    -0.042 A 
ATOM     13  C   UNL     1      -4.037  -3.017   5.129  0.00  0.00    +0.004 A 
ATOM     14  C   UNL     1      -4.396  -4.283   5.547  0.00  0.00    +0.000 A 
ATOM     15  C   UNL     1      -4.068  -5.383   4.776  0.00  0.00    +0.000 A 
ATOM     16  C   UNL     1      -3.382  -5.214   3.590  0.00  0.00    +0.004 A 
ATOM     17  C   UNL     1      -3.021  -3.945   3.168  0.00  0.00    -0.042 A 
ATOM     18  C   UNL     1      -2.278  -3.497   1.928  0.00  0.00    +0.058 C 
ENDBRANCH   5  10
BRANCH   2  19
ATOM     19  C   UNL     1       0.667  -0.525  -1.274  0.00  0.00    +0.018 C 
ATOM     20  C   UNL     1       0.700  -2.056  -1.246  0.00  0.00    -0.013 C 
ATOM     21  C   UNL     1       1.437  -2.567  -2.486  0.00  0.00    -0.078 C 
ATOM     22  N   UNL     1       2.809  -2.047  -2.494  0.00  0.00    +0.382 N 
ATOM     23  C   UNL     1       2.786  -0.582  -2.593  0.00  0.00    -0.078 C 
ATOM     24  C   UNL     1       2.101   0.006  -1.357  0.00  0.00    -0.013 C 
ATOM     25  H   UNL     1       3.275  -2.318  -1.641  0.00  0.00    -0.081 HD
BRANCH  22  26
ATOM     26  C   UNL     1       3.535  -2.602  -3.643  0.00  0.00    -0.047 C 
BRANCH  26  27
ATOM     27  C   UNL     1       4.977  -2.167  -3.585  0.00  0.00    -0.086 C 
ATOM     28  C   UNL     1       5.899  -2.932  -3.047  0.00  0.00    -0.029 C 
ATOM     29  C   UNL     1       7.330  -2.456  -3.001  0.00  0.00    +0.031 C 
ATOM     30  C   UNL     1       7.447  -1.099  -3.710  0.00  0.00    -0.000 C 
ATOM     31  C   UNL     1       6.690  -1.059  -5.049  0.00  0.00    +0.012 C 
ATOM     32  C   UNL     1       5.421  -0.829  -4.151  0.00  0.00    +0.019 C 
ATOM     33  C   UNL     1       6.386  -0.112  -3.183  0.00  0.00    -0.025 C 
ATOM     34  C   UNL     1       6.043  -0.303  -1.704  0.00  0.00    +0.012 C 
ATOM     35  C   UNL     1       6.661   1.347  -3.552  0.00  0.00    +0.012 C 
ENDBRANCH  26  27
ENDBRANCH  22  26
ENDBRANCH   2  19
TORSDOF 4
