REMARK  Name = ZINC16482550
REMARK  7 active torsions:
REMARK  status: ('A' for Active; 'I' for Inactive)
REMARK    1  A    between atoms: C_1  and  C_2
REMARK    2  A    between atoms: C_2  and  O_3
REMARK    3  A    between atoms: O_3  and  C_4
REMARK    4  A    between atoms: C_4  and  C_6
REMARK    5  A    between atoms: C_12  and  C_13
REMARK    6  A    between atoms: C_12  and  N_61
REMARK    7  A    between atoms: N_18  and  C_19
REMARK                            x       y       z     vdW  Elec       q    Type
REMARK                         _______ _______ _______ _____ _____    ______ ____
ROOT
ATOM      1  C   UNL     1      -0.584   1.878  -8.478  0.00  0.00    +0.204 C 
ATOM      2  O   UNL     1      -1.558   2.593  -8.371  0.00  0.00    -0.277 OA
ATOM      3  N   UNL     1      -0.023   1.680  -9.687  0.00  0.00    -0.242 N 
ATOM      4  C   UNL     1      -0.545   2.276 -10.778  0.00  0.00    +0.306 C 
ATOM      5  O   UNL     1      -1.521   2.992 -10.671  0.00  0.00    -0.252 OA
ATOM      6  N   UNL     1       0.016   2.077 -11.987  0.00  0.00    -0.294 N 
ATOM      7  H   UNL     1       0.756   1.108  -9.772  0.00  0.00    +0.159 HD
ATOM      8  H   UNL     1       0.795   1.506 -12.072  0.00  0.00    +0.151 HD
ENDROOT
BRANCH   6   9
ATOM      9  C   UNL     1      -0.550   2.725 -13.173  0.00  0.00    +0.037 C 
ATOM     10  C   UNL     1      -0.511   4.244 -12.992  0.00  0.00    +0.029 C 
ATOM     11  C   UNL     1      -1.103   4.920 -14.230  0.00  0.00    -0.008 C 
ATOM     12  C   UNL     1      -0.285   4.532 -15.463  0.00  0.00    +0.007 C 
ATOM     13  C   UNL     1      -0.324   3.013 -15.644  0.00  0.00    -0.008 C 
ATOM     14  C   UNL     1       0.268   2.337 -14.406  0.00  0.00    +0.029 C 
ATOM     15  C   UNL     1      -1.773   2.559 -15.830  0.00  0.00    +0.007 C 
ATOM     16  C   UNL     1      -2.591   2.947 -14.597  0.00  0.00    -0.008 C 
ATOM     17  C   UNL     1      -2.552   4.466 -14.416  0.00  0.00    +0.007 C 
ATOM     18  C   UNL     1      -1.999   2.271 -13.358  0.00  0.00    +0.029 C 
ENDBRANCH   6   9
BRANCH   1  19
ATOM     19  C   UNL     1      -0.002   1.212  -7.258  0.00  0.00    +0.019 C 
BRANCH  19  25
ATOM     20  C   UNL     1      -0.887   1.682  -3.629  0.00  0.00    +0.081 C 
ATOM     21  C   UNL     1      -2.321   1.148  -3.667  0.00  0.00    +0.011 C 
ATOM     22  C   UNL     1      -2.980   1.571  -4.983  0.00  0.00    -0.018 C 
ATOM     23  C   UNL     1      -2.150   1.045  -6.156  0.00  0.00    -0.078 C 
ATOM     24  C   UNL     1      -0.118   1.152  -4.841  0.00  0.00    -0.064 C 
ATOM     25  N   UNL     1      -0.789   1.615  -6.074  0.00  0.00    +0.386 N 
ATOM     26  H   UNL     1      -0.857   2.639  -6.052  0.00  0.00    -0.081 HD
BRANCH  20  27
ATOM     27  C   UNL     1      -0.211   1.220  -2.363  0.00  0.00    +0.308 C 
ATOM     28  O   UNL     1       0.783   0.536  -2.424  0.00  0.00    -0.251 OA
BRANCH  27  29
ATOM     29  O   UNL     1      -0.715   1.567  -1.168  0.00  0.00    -0.465 OA
BRANCH  29  31
ATOM     30  C   UNL     1      -0.729   1.579   1.267  0.00  0.00    +0.048 C 
ATOM     31  C   UNL     1      -0.013   1.086   0.008  0.00  0.00    +0.229 C 
ENDBRANCH  29  31
ENDBRANCH  27  29
ENDBRANCH  20  27
ENDBRANCH  19  25
ENDBRANCH   1  19
TORSDOF 6
