REMARK  Name = ZINC04513747
REMARK  4 active torsions:
REMARK  status: ('A' for Active; 'I' for Inactive)
REMARK    1  A    between atoms: C_1  and  C_2
REMARK    2  A    between atoms: C_2  and  C_19
REMARK    3  A    between atoms: N_5  and  C_9
REMARK    4  A    between atoms: C_9  and  C_10
REMARK                            x       y       z     vdW  Elec       q    Type
REMARK                         _______ _______ _______ _____ _____    ______ ____
ROOT
ATOM      1  C   UNL     1      -1.845   0.996   4.334  0.00  0.00    +0.047 C 
ATOM      2  C   UNL     1      -2.084   1.743   3.020  0.00  0.00    +0.136 C 
ATOM      3  C   UNL     1      -1.684   0.883   1.837  0.00  0.00    +0.251 C 
ATOM      4  O   UNL     1      -2.153  -0.188   1.519  0.00  0.00    -0.272 OA
ATOM      5  N   UNL     1      -0.698   1.558   1.213  0.00  0.00    -0.220 N 
ATOM      6  C   UNL     1      -0.420   2.710   1.834  0.00  0.00    +0.310 C 
ATOM      7  O   UNL     1       0.435   3.489   1.460  0.00  0.00    -0.252 OA
ATOM      8  N   UNL     1      -1.194   2.912   2.915  0.00  0.00    -0.281 N 
ATOM      9  H   UNL     1      -1.168   3.676   3.512  0.00  0.00    +0.152 HD
ENDROOT
BRANCH   2  10
ATOM     10  C   UNL     1      -3.527   2.163   2.906  0.00  0.00    +0.003 A 
ATOM     11  C   UNL     1      -3.854   3.506   2.856  0.00  0.00    +0.009 A 
ATOM     12  C   UNL     1      -5.176   3.892   2.746  0.00  0.00    +0.020 A 
ATOM     13  C   UNL     1      -6.175   2.935   2.697  0.00  0.00    +0.042 A 
ATOM     14  C   UNL     1      -5.849   1.592   2.753  0.00  0.00    +0.040 A 
ATOM     15  C   UNL     1      -4.524   1.206   2.858  0.00  0.00    +0.048 A 
ATOM     16 CL   UNL     1      -4.114  -0.479   2.929  0.00  0.00    -0.083 Cl
ATOM     17 CL   UNL     1      -7.836   3.420   2.566  0.00  0.00    -0.083 Cl
ENDBRANCH   2  10
BRANCH   5  18
ATOM     18  C   UNL     1      -0.013   1.086   0.008  0.00  0.00    +0.153 C 
BRANCH  18  19
ATOM     19  C   UNL     1      -0.742   1.585  -1.213  0.00  0.00    -0.026 A 
ATOM     20  C   UNL     1      -1.750   0.823  -1.774  0.00  0.00    +0.009 A 
ATOM     21  C   UNL     1      -2.424   1.279  -2.891  0.00  0.00    +0.050 A 
ATOM     22  C   UNL     1      -2.084   2.497  -3.458  0.00  0.00    +0.166 A 
ATOM     23  C   UNL     1      -1.065   3.262  -2.896  0.00  0.00    +0.167 A 
ATOM     24  C   UNL     1      -0.397   2.801  -1.773  0.00  0.00    +0.054 A 
ATOM     25  O   UNL     1      -0.922   4.404  -3.629  0.00  0.00    -0.453 OA
ATOM     26  C   UNL     1      -2.134   4.521  -4.398  0.00  0.00    +0.466 C 
ATOM     27  O   UNL     1      -2.580   3.160  -4.543  0.00  0.00    -0.453 OA
ENDBRANCH  18  19
ENDBRANCH   5  18
TORSDOF 3
