REMARK  Name = ZINC19891133
REMARK  5 active torsions:
REMARK  status: ('A' for Active; 'I' for Inactive)
REMARK    1  A    between atoms: C_4  and  C_7
REMARK    2  A    between atoms: C_7  and  C_8
REMARK    3  A    between atoms: C_7  and  N_14
REMARK    4  A    between atoms: N_17  and  C_20
REMARK    5  A    between atoms: C_20  and  C_21
REMARK                            x       y       z     vdW  Elec       q    Type
REMARK                         _______ _______ _______ _____ _____    ______ ____
ROOT
ATOM      1  C   UNL     1       4.221  -4.565  -4.057  0.00  0.00    +0.158 C 
ENDROOT
BRANCH   1   2
ATOM      2  C   UNL     1       5.578  -5.177  -4.289  0.00  0.00    +0.127 A 
ATOM      3  N   UNL     1       5.970  -6.209  -3.562  0.00  0.00    -0.315 N 
ATOM      4  C   UNL     1       7.168  -6.752  -3.765  0.00  0.00    +0.195 A 
ATOM      5  N   UNL     1       7.971  -6.255  -4.699  0.00  0.00    -0.183 NA
ATOM      6  C   UNL     1       7.574  -5.218  -5.428  0.00  0.00    +0.227 A 
ATOM      7  N   UNL     1       6.372  -4.683  -5.224  0.00  0.00    -0.200 NA
ATOM      8  N   UNL     1       8.405  -4.697  -6.401  0.00  0.00    -0.269 N 
ATOM      9  C   UNL     1       7.929  -3.640  -7.303  0.00  0.00    +0.114 C 
ATOM     10  C   UNL     1       8.375  -4.002  -8.726  0.00  0.00    +0.024 C 
ATOM     11  C   UNL     1       9.902  -4.009  -8.778  0.00  0.00    +0.038 C 
ATOM     12  C   UNL     1      10.464  -4.861  -7.670  0.00  0.00    -0.026 A 
ATOM     13  C   UNL     1       9.719  -5.165  -6.540  0.00  0.00    +0.040 A 
ATOM     14  C   UNL     1      10.269  -5.946  -5.531  0.00  0.00    +0.024 A 
ATOM     15  C   UNL     1      11.561  -6.420  -5.651  0.00  0.00    +0.002 A 
ATOM     16  C   UNL     1      12.305  -6.116  -6.775  0.00  0.00    +0.000 A 
ATOM     17  C   UNL     1      11.756  -5.345  -7.786  0.00  0.00    +0.005 A 
ATOM     18  N   UNL     1       7.576  -7.829  -3.005  0.00  0.00    -0.329 N 
ATOM     19  H   UNL     1       6.989  -8.191  -2.322  0.00  0.00    +0.145 HD
ATOM     20  H   UNL     1       8.449  -8.224  -3.153  0.00  0.00    +0.145 HD
ATOM     21  H   UNL     1       5.383  -6.571  -2.880  0.00  0.00    +0.170 HD
ENDBRANCH   1   2
BRANCH   1  25
ATOM     22  N   UNL     1       3.712  -1.867  -0.846  0.00  0.00    -0.289 NA
ATOM     23  C   UNL     1       3.295  -1.430  -2.186  0.00  0.00    +0.100 C 
ATOM     24  C   UNL     1       3.096  -2.655  -3.080  0.00  0.00    +0.100 C 
ATOM     25  N   UNL     1       4.349  -3.420  -3.146  0.00  0.00    -0.293 NA
ATOM     26  C   UNL     1       4.767  -3.857  -1.806  0.00  0.00    +0.100 C 
ATOM     27  C   UNL     1       4.966  -2.631  -0.911  0.00  0.00    +0.100 C 
BRANCH  22  28
ATOM     28  C   UNL     1       3.841  -0.722   0.065  0.00  0.00    +0.117 C 
BRANCH  28  32
ATOM     29  C   UNL     1       0.151   1.427   0.179  0.00  0.00    +0.000 A 
ATOM     30  C   UNL     1       1.351   2.114   0.171  0.00  0.00    +0.000 A 
ATOM     31  C   UNL     1       2.545   1.418   0.134  0.00  0.00    +0.005 A 
ATOM     32  C   UNL     1       2.539   0.036   0.106  0.00  0.00    -0.026 A 
ATOM     33  C   UNL     1       1.339  -0.651   0.115  0.00  0.00    +0.005 A 
ATOM     34  C   UNL     1       0.145   0.045   0.150  0.00  0.00    +0.000 A 
ENDBRANCH  28  32
BRANCH  28  35
ATOM     35  C   UNL     1       4.178  -1.216   1.448  0.00  0.00    -0.026 A 
ATOM     36  C   UNL     1       3.574  -2.358   1.941  0.00  0.00    +0.005 A 
ATOM     37  C   UNL     1       3.884  -2.812   3.209  0.00  0.00    +0.000 A 
ATOM     38  C   UNL     1       4.797  -2.123   3.986  0.00  0.00    +0.000 A 
ATOM     39  C   UNL     1       5.401  -0.982   3.493  0.00  0.00    +0.000 A 
ATOM     40  C   UNL     1       5.095  -0.531   2.223  0.00  0.00    +0.005 A 
ENDBRANCH  28  35
ENDBRANCH  22  28
ENDBRANCH   1  25
TORSDOF 5
