REMARK  Name = ZINC40010925
REMARK  9 active torsions:
REMARK  status: ('A' for Active; 'I' for Inactive)
REMARK    1  A    between atoms: C_1  and  C_2
REMARK    2  A    between atoms: C_8  and  C_14
REMARK    3  A    between atoms: C_18  and  O_31
REMARK    4  A    between atoms: C_19  and  O_29
REMARK    5  A    between atoms: N_24  and  C_25
REMARK    6  A    between atoms: C_25  and  N_27
REMARK    7  A    between atoms: N_27  and  C_28
REMARK    8  A    between atoms: O_29  and  C_30
REMARK    9  A    between atoms: O_31  and  C_32
REMARK                            x       y       z     vdW  Elec       q    Type
REMARK                         _______ _______ _______ _____ _____    ______ ____
ROOT
ATOM      1  C   UNL     1       1.285  -2.567   4.405  0.00  0.00    +0.121 C 
ATOM      2  C   UNL     1       1.382  -1.732   5.657  0.00  0.00    -0.019 A 
ATOM      3  C   UNL     1       1.716  -0.391   5.515  0.00  0.00    +0.055 A 
ATOM      4  C   UNL     1       1.811   0.431   6.623  0.00  0.00    +0.162 A 
ATOM      5  C   UNL     1       1.568  -0.093   7.889  0.00  0.00    +0.162 A 
ATOM      6  C   UNL     1       1.240  -1.429   8.026  0.00  0.00    +0.053 A 
ATOM      7  C   UNL     1       1.151  -2.254   6.910  0.00  0.00    -0.037 A 
ATOM      8  C   UNL     1       0.816  -3.704   7.142  0.00  0.00    +0.054 C 
ATOM      9  C   UNL     1       0.289  -4.352   5.862  0.00  0.00    +0.112 C 
ATOM     10  N   UNL     1       1.198  -3.986   4.764  0.00  0.00    -0.304 N 
ENDROOT
BRANCH   1  18
ATOM     11  C   UNL     1      -3.083  -5.475   1.222  0.00  0.00    +0.045 C 
ATOM     12  C   UNL     1      -3.137  -4.708   2.518  0.00  0.00    -0.029 A 
ATOM     13  C   UNL     1      -4.215  -4.838   3.334  0.00  0.00    +0.005 A 
ATOM     14  C   UNL     1      -4.327  -4.158   4.547  0.00  0.00    +0.001 A 
ATOM     15  C   UNL     1      -3.352  -3.317   4.980  0.00  0.00    +0.009 A 
ATOM     16  C   UNL     1      -2.163  -3.130   4.148  0.00  0.00    -0.007 A 
ATOM     17  C   UNL     1      -1.158  -2.297   4.542  0.00  0.00    -0.003 C 
ATOM     18  C   UNL     1       0.037  -2.163   3.619  0.00  0.00    +0.123 C 
ATOM     19  C   UNL     1       0.017  -2.964   2.337  0.00  0.00    +0.226 C 
ATOM     20  O   UNL     1       0.950  -2.895   1.559  0.00  0.00    -0.275 OA
ATOM     21  N   UNL     1      -1.018  -3.741   2.064  0.00  0.00    -0.284 N 
ATOM     22  C   UNL     1      -2.068  -3.866   2.876  0.00  0.00    +0.043 A 
ATOM     23  H   UNL     1      -1.011  -4.247   1.236  0.00  0.00    +0.155 HD
ENDBRANCH   1  18
BRANCH  10  24
ATOM     24  C   UNL     1       1.920  -4.920   4.113  0.00  0.00    +0.133 C 
ATOM     25  S   UNL     1       1.692  -6.579   4.468  0.00  0.00    -0.019 S 
BRANCH  24  26
ATOM     26  N   UNL     1       2.821  -4.547   3.183  0.00  0.00    -0.329 N 
ATOM     27  C   UNL     1       3.524  -5.563   2.395  0.00  0.00    +0.127 C 
ATOM     28  H   UNL     1       3.004  -3.606   3.035  0.00  0.00    +0.147 HD
ENDBRANCH  24  26
ENDBRANCH  10  24
BRANCH   5  29
ATOM     29  O   UNL     1       1.653   0.705   8.987  0.00  0.00    -0.491 OA
ATOM     30  C   UNL     1       1.390   0.097  10.253  0.00  0.00    +0.277 C 
ENDBRANCH   5  29
BRANCH   4  31
ATOM     31  O   UNL     1       2.140   1.742   6.476  0.00  0.00    -0.491 OA
ATOM     32  C   UNL     1       2.375   2.207   5.145  0.00  0.00    +0.277 C 
ENDBRANCH   4  31
TORSDOF 5
