REMARK  Name = ZINC19651300
REMARK  9 active torsions:
REMARK  status: ('A' for Active; 'I' for Inactive)
REMARK    1  A    between atoms: C_1  and  C_2
REMARK    2  A    between atoms: C_7  and  N_8
REMARK    3  A    between atoms: C_9  and  C_11
REMARK    4  A    between atoms: C_11  and  C_13
REMARK    5  A    between atoms: C_11  and  N_14
REMARK    6  A    between atoms: C_25  and  C_29
REMARK    7  A    between atoms: C_29  and  C_30
REMARK    8  A    between atoms: C_29  and  C_31
REMARK    9  A    between atoms: C_29  and  C_32
REMARK                            x       y       z     vdW  Elec       q    Type
REMARK                         _______ _______ _______ _____ _____    ______ ____
ROOT
ATOM      1  N   UNL     1       1.585  -6.319   0.683  0.00  0.00    -0.199 N 
ATOM      2  C   UNL     1       1.241  -5.055   1.030  0.00  0.00    +0.279 A 
ATOM      3  O   UNL     1       0.946  -4.753   2.173  0.00  0.00    -0.265 OA
ATOM      4  C   UNL     1       1.245  -4.094  -0.039  0.00  0.00    +0.079 A 
ATOM      5  C   UNL     1       0.918  -2.685   0.065  0.00  0.00    -0.023 A 
ATOM      6  C   UNL     1       0.987  -1.958  -1.076  0.00  0.00    -0.004 A 
ATOM      7  S   UNL     1       1.488  -3.111  -2.330  0.00  0.00    -0.071 S 
ATOM      8  C   UNL     1       1.603  -4.558  -1.324  0.00  0.00    +0.138 A 
ATOM      9  N   UNL     1       1.932  -5.816  -1.601  0.00  0.00    -0.123 NA
ATOM     10  N   UNL     1       1.923  -6.670  -0.625  0.00  0.00    -0.061 NA
ATOM     11  C   UNL     1       0.702  -0.498  -1.240  0.00  0.00    +0.046 C 
ATOM     12  C   UNL     1      -0.044  -0.005   0.008  0.00  0.00    -0.000 C 
ATOM     13  C   UNL     1       0.693  -0.512   1.251  0.00  0.00    +0.009 C 
ATOM     14  C   UNL     1       0.512  -2.025   1.381  0.00  0.00    +0.037 C 
ENDROOT
BRANCH  12  15
ATOM     15  C   UNL     1      -0.074   1.525   0.018  0.00  0.00    -0.035 C 
ATOM     16  C   UNL     1       1.358   2.063   0.015  0.00  0.00    +0.011 C 
ATOM     17  C   UNL     1      -0.810   2.028  -1.225  0.00  0.00    +0.011 C 
ATOM     18  C   UNL     1      -0.799   2.013   1.274  0.00  0.00    +0.011 C 
ENDBRANCH  12  15
BRANCH   1  19
ATOM     19  C   UNL     1       1.603  -7.354   1.719  0.00  0.00    +0.195 C 
ATOM     20  C   UNL     1       3.012  -7.941   1.829  0.00  0.00    +0.043 C 
BRANCH  19  22
ATOM     21  N   UNL     1       0.478  -9.511   2.167  0.00  0.00    -0.284 N 
ATOM     22  C   UNL     1       0.631  -8.447   1.355  0.00  0.00    +0.242 C 
ATOM     23  O   UNL     1      -0.013  -8.367   0.330  0.00  0.00    -0.273 OA
ATOM     24  H   UNL     1       1.126  -9.628   3.048  0.00  0.00    +0.155 HD
BRANCH  21  31
ATOM     25  C   UNL     1       0.843 -12.147   3.175  0.00  0.00    +0.045 C 
ATOM     26  C   UNL     1      -0.367 -11.765   2.361  0.00  0.00    -0.029 A 
ATOM     27  C   UNL     1      -1.339 -12.707   2.086  0.00  0.00    +0.005 A 
ATOM     28  C   UNL     1      -2.450 -12.357   1.341  0.00  0.00    +0.000 A 
ATOM     29  C   UNL     1      -2.592 -11.065   0.869  0.00  0.00    +0.002 A 
ATOM     30  C   UNL     1      -1.625 -10.118   1.146  0.00  0.00    +0.023 A 
ATOM     31  C   UNL     1      -0.506 -10.467   1.889  0.00  0.00    +0.036 A 
ENDBRANCH  21  31
ENDBRANCH  19  22
ENDBRANCH   1  19
TORSDOF 4
