REMARK  Name = ZINC67028334
REMARK  5 active torsions:
REMARK  status: ('A' for Active; 'I' for Inactive)
REMARK    1  A    between atoms: C_1  and  C_2
REMARK    2  A    between atoms: C_3  and  C_16
REMARK    3  A    between atoms: C_4  and  C_11
REMARK    4  A    between atoms: N_9  and  C_10
REMARK    5  A    between atoms: N_18  and  C_19
REMARK                            x       y       z     vdW  Elec       q    Type
REMARK                         _______ _______ _______ _____ _____    ______ ____
ROOT
ATOM      1  C   UNL     1       0.734   1.147   0.702  0.00  0.00    +0.061 C 
ATOM      2  C   UNL     1       0.463  -0.311   0.430  0.00  0.00    +0.019 C 
ATOM      3  C   UNL     1      -0.805  -0.771   0.479  0.00  0.00    +0.058 C 
ATOM      4  C   UNL     1      -1.033  -2.242   0.200  0.00  0.00    +0.160 C 
ATOM      5  N   UNL     1       0.156  -3.055  -0.105  0.00  0.00    -0.314 N 
ATOM      6  C   UNL     1       1.361  -2.451  -0.117  0.00  0.00    +0.137 C 
ATOM      7  S   UNL     1       2.752  -3.384  -0.471  0.00  0.00    -0.018 S 
ATOM      8  N   UNL     1       1.504  -1.143   0.132  0.00  0.00    -0.289 N 
ATOM      9  C   UNL     1       2.853  -0.575   0.090  0.00  0.00    +0.137 C 
ATOM     10  H   UNL     1       0.074  -4.004  -0.293  0.00  0.00    +0.149 HD
ENDROOT
BRANCH   4  11
ATOM     11  C   UNL     1      -1.711  -2.844   1.403  0.00  0.00    +0.097 A 
ATOM     12  C   UNL     1      -2.882  -3.526   1.316  0.00  0.00    +0.094 A 
ATOM     13  S   UNL     1      -3.157  -3.954   2.917  0.00  0.00    +0.028 S 
ATOM     14  N   UNL     1      -1.848  -3.290   3.597  0.00  0.00    -0.110 NA
ATOM     15  N   UNL     1      -1.208  -2.754   2.617  0.00  0.00    -0.144 NA
ENDBRANCH   4  11
BRANCH   3  16
ATOM     16  C   UNL     1      -1.886   0.093   0.783  0.00  0.00    +0.248 C 
ATOM     17  O   UNL     1      -1.679   1.272   1.004  0.00  0.00    -0.270 OA
ATOM     18  N   UNL     1      -3.143  -0.390   0.826  0.00  0.00    -0.279 N 
ATOM     19  H   UNL     1      -3.304  -1.337   0.690  0.00  0.00    +0.155 HD
BRANCH  18  20
ATOM     20  C   UNL     1      -4.217   0.474   1.066  0.00  0.00    +0.071 A 
ATOM     21  C   UNL     1      -4.048   1.608   1.856  0.00  0.00    +0.028 A 
ATOM     22  C   UNL     1      -5.141   2.433   2.064  0.00  0.00    +0.022 A 
ATOM     23  C   UNL     1      -6.354   2.108   1.487  0.00  0.00    +0.112 A 
ATOM     24  N   UNL     1      -6.482   1.026   0.743  0.00  0.00    -0.242 NA
ATOM     25  C   UNL     1      -5.467   0.216   0.515  0.00  0.00    +0.150 A 
ATOM     26 CL   UNL     1      -5.695  -1.190  -0.478  0.00  0.00    -0.060 Cl
ENDBRANCH  18  20
ENDBRANCH   3  16
TORSDOF 3
