REMARK  Name = ZINC02236020
REMARK  6 active torsions:
REMARK  status: ('A' for Active; 'I' for Inactive)
REMARK    1  A    between atoms: N_9  and  C_12
REMARK    2  A    between atoms: C_12  and  C_13
REMARK    3  A    between atoms: C_16  and  C_19
REMARK    4  A    between atoms: N_21  and  C_22
REMARK    5  A    between atoms: C_22  and  C_23
REMARK    6  A    between atoms: C_26  and  C_29
REMARK                            x       y       z     vdW  Elec       q    Type
REMARK                         _______ _______ _______ _____ _____    ______ ____
ROOT
ATOM      1  C   UNL     1      -4.096   6.886   5.524  0.00  0.00    +0.011 C 
ATOM      2  C   UNL     1      -2.667   7.417   5.387  0.00  0.00    +0.006 C 
ATOM      3  C   UNL     1      -2.063   6.922   4.071  0.00  0.00    +0.013 C 
ATOM      4  C   UNL     1      -2.043   5.392   4.063  0.00  0.00    +0.075 C 
ATOM      5  C   UNL     1      -3.471   4.862   4.199  0.00  0.00    +0.013 C 
ATOM      6  C   UNL     1      -4.075   5.357   5.515  0.00  0.00    +0.006 C 
ENDROOT
BRANCH   4   7
ATOM      7  C   UNL     1      -1.448   4.905   2.767  0.00  0.00    +0.216 C 
ATOM      8  O   UNL     1      -1.077   5.703   1.932  0.00  0.00    -0.276 OA
ATOM      9  N   UNL     1      -1.328   3.583   2.535  0.00  0.00    -0.315 N 
ATOM     10  H   UNL     1      -1.625   2.945   3.203  0.00  0.00    +0.149 HD
BRANCH   9  11
ATOM     11  C   UNL     1      -0.750   3.109   1.275  0.00  0.00    +0.107 C 
BRANCH  11  12
ATOM     12  C   UNL     1      -0.729   1.579   1.267  0.00  0.00    +0.006 C 
ATOM     13  C   UNL     1      -0.013   1.086   0.008  0.00  0.00    +0.006 C 
ATOM     14  C   UNL     1      -0.753   1.593  -1.232  0.00  0.00    +0.015 C 
ATOM     15  C   UNL     1      -2.188   1.063  -1.221  0.00  0.00    +0.102 C 
ATOM     16  C   UNL     1      -2.904   1.556   0.038  0.00  0.00    +0.015 C 
ATOM     17  C   UNL     1      -2.164   1.050   1.278  0.00  0.00    +0.006 C 
BRANCH  15  18
ATOM     18  C   UNL     1      -2.917   1.562  -2.442  0.00  0.00    +0.359 C 
ATOM     19  O   UNL     1      -2.347   2.269  -3.239  0.00  0.00    -0.246 OA
ATOM     20  O   UNL     1      -4.199   1.222  -2.644  0.00  0.00    -0.246 OA
ENDBRANCH  15  18
ENDBRANCH  11  12
ENDBRANCH   9  11
ENDBRANCH   4   7
BRANCH   1  21
ATOM     21  C   UNL     1      -4.700   7.381   6.839  0.00  0.00    +0.152 C 
BRANCH  21  30
ATOM     22  C   UNL     1      -9.652   3.949   8.095  0.00  0.00    +0.001 A 
ATOM     23  C   UNL     1     -10.571   4.848   7.571  0.00  0.00    +0.002 A 
ATOM     24  C   UNL     1     -10.157   6.039   7.019  0.00  0.00    +0.030 A 
ATOM     25  C   UNL     1      -8.795   6.350   6.985  0.00  0.00    +0.100 A 
ATOM     26  C   UNL     1      -7.863   5.434   7.519  0.00  0.00    +0.068 A 
ATOM     27  C   UNL     1      -8.304   4.233   8.074  0.00  0.00    +0.015 A 
ATOM     28  C   UNL     1      -6.436   5.785   7.473  0.00  0.00    +0.278 A 
ATOM     29  O   UNL     1      -5.585   5.037   7.918  0.00  0.00    -0.265 OA
ATOM     30  N   UNL     1      -6.105   6.974   6.915  0.00  0.00    -0.210 N 
ATOM     31  N   UNL     1      -7.104   7.816   6.417  0.00  0.00    -0.062 NA
ATOM     32  N   UNL     1      -8.351   7.515   6.450  0.00  0.00    -0.131 NA
ENDBRANCH  21  30
ENDBRANCH   1  21
TORSDOF 6
