REMARK  Name = ZINC11762812
REMARK  5 active torsions:
REMARK  status: ('A' for Active; 'I' for Inactive)
REMARK    1  A    between atoms: C_1  and  C_2
REMARK    2  A    between atoms: N_11  and  C_15
REMARK    3  A    between atoms: C_15  and  C_16
REMARK    4  A    between atoms: N_25  and  C_28
REMARK    5  A    between atoms: C_28  and  C_29
REMARK                            x       y       z     vdW  Elec       q    Type
REMARK                         _______ _______ _______ _____ _____    ______ ____
ROOT
ATOM      1  C   UNL     1       3.277   2.951   2.373  0.00  0.00    +0.237 C 
ATOM      2  O   UNL     1       2.353   3.293   1.666  0.00  0.00    -0.274 OA
ATOM      3  N   UNL     1       4.255   3.827   2.674  0.00  0.00    -0.263 N 
ATOM      4  C   UNL     1       4.205   5.124   2.175  0.00  0.00    +0.165 A 
ATOM      5  N   UNL     1       3.287   5.668   1.405  0.00  0.00    -0.229 NA
ATOM      6  C   UNL     1       3.371   6.929   1.002  0.00  0.00    +0.050 A 
ATOM      7  C   UNL     1       4.468   7.602   1.441  0.00  0.00    -0.002 A 
ATOM      8  S   UNL     1       5.302   6.381   2.413  0.00  0.00    -0.059 S 
ATOM      9  C   UNL     1       4.828   9.017   1.147  0.00  0.00    -0.033 C 
ATOM     10  N   UNL     1       4.008   9.474   0.007  0.00  0.00    +0.386 N 
ATOM     11  C   UNL     1       2.597   9.154   0.258  0.00  0.00    -0.072 C 
ATOM     12  C   UNL     1       2.358   7.647   0.119  0.00  0.00    +0.038 C 
ATOM     13  H   UNL     1       4.995   3.554   3.240  0.00  0.00    +0.157 HD
ATOM     14  H   UNL     1       4.314   9.010  -0.835  0.00  0.00    -0.081 HD
ENDROOT
BRANCH   1  15
ATOM     15  C   UNL     1       3.332   1.546   2.915  0.00  0.00    +0.214 C 
BRANCH  15  25
ATOM     16  C   UNL     1      -0.019   1.526   0.010  0.00  0.00    +0.010 C 
ATOM     17  C   UNL     1       0.002  -0.004   0.002  0.00  0.00    +0.018 C 
ATOM     18  C   UNL     1       0.718  -0.497  -1.258  0.00  0.00    +0.006 C 
ATOM     19  C   UNL     1       0.756  -2.027  -1.256  0.00  0.00    +0.000 C 
ATOM     20  C   UNL     1       1.519  -2.517  -0.023  0.00  0.00    +0.003 C 
ATOM     21  C   UNL     1       0.807  -2.032   1.242  0.00  0.00    +0.035 C 
ATOM     22  C   UNL     1       0.739  -0.509   1.238  0.00  0.00    +0.115 C 
ATOM     23  C   UNL     1       2.128   0.083   1.303  0.00  0.00    +0.247 C 
ATOM     24  O   UNL     1       3.022  -0.055   0.496  0.00  0.00    -0.273 OA
ATOM     25  N   UNL     1       2.163   0.796   2.447  0.00  0.00    -0.215 N 
ATOM     26  C   UNL     1       0.998   0.734   3.103  0.00  0.00    +0.310 C 
ATOM     27  O   UNL     1       0.786   1.296   4.159  0.00  0.00    -0.252 OA
ATOM     28  N   UNL     1       0.086  -0.021   2.460  0.00  0.00    -0.285 N 
ATOM     29  H   UNL     1      -0.822  -0.205   2.747  0.00  0.00    +0.151 HD
ENDBRANCH  15  25
ENDBRANCH   1  15
BRANCH  10  30
ATOM     30  C   UNL     1       4.160  10.926  -0.153  0.00  0.00    -0.043 C 
BRANCH  30  31
ATOM     31  C   UNL     1       5.583  11.244  -0.533  0.00  0.00    -0.064 A 
ATOM     32  C   UNL     1       6.524  11.482   0.451  0.00  0.00    +0.002 A 
ATOM     33  C   UNL     1       7.830  11.774   0.102  0.00  0.00    +0.000 A 
ATOM     34  C   UNL     1       8.194  11.827  -1.230  0.00  0.00    +0.000 A 
ATOM     35  C   UNL     1       7.253  11.588  -2.214  0.00  0.00    +0.000 A 
ATOM     36  C   UNL     1       5.948  11.292  -1.865  0.00  0.00    +0.002 A 
ENDBRANCH  30  31
ENDBRANCH  10  30
TORSDOF 4
