REMARK  Name = ZINC13500679
REMARK  13 active torsions:
REMARK  status: ('A' for Active; 'I' for Inactive)
REMARK    1  A    between atoms: C_1  and  C_2
REMARK    2  A    between atoms: C_2  and  O_3
REMARK    3  A    between atoms: O_3  and  C_4
REMARK    4  A    between atoms: C_11  and  C_16
REMARK    5  A    between atoms: C_16  and  N_73
REMARK    6  A    between atoms: C_17  and  N_73
REMARK    7  A    between atoms: C_23  and  C_25
REMARK    8  A    between atoms: C_23  and  C_36
REMARK    9  A    between atoms: C_23  and  N_73
REMARK   10  A    between atoms: N_29  and  C_30
REMARK   11  A    between atoms: C_30  and  C_31
REMARK   12  A    between atoms: C_36  and  C_37
REMARK   13  A    between atoms: C_36  and  C_38
REMARK                            x       y       z     vdW  Elec       q    Type
REMARK                         _______ _______ _______ _____ _____    ______ ____
ROOT
ATOM      1  N   UNL     1      -1.177   0.209   2.909  0.00  0.00    +0.391 N 
ATOM      2  H   UNL     1      -1.819  -0.470   2.484  0.00  0.00    -0.080 HD
ENDROOT
BRANCH   1   3
ATOM      3  C   UNL     1      -0.032  -0.517   3.497  0.00  0.00    -0.067 C 
ATOM      4  C   UNL     1       0.876  -1.020   2.373  0.00  0.00    -0.015 C 
ATOM      5  C   UNL     1       2.050  -1.796   2.973  0.00  0.00    -0.002 C 
ATOM      6  C   UNL     1       1.518  -2.988   3.772  0.00  0.00    -0.000 C 
ATOM      7  C   UNL     1       0.611  -2.485   4.896  0.00  0.00    -0.002 C 
ATOM      8  C   UNL     1      -0.563  -1.709   4.296  0.00  0.00    -0.015 C 
ENDBRANCH   1   3
BRANCH   1   9
ATOM      9  C   UNL     1      -1.897   0.956   3.962  0.00  0.00    -0.036 C 
BRANCH   9  17
ATOM     10  C   UNL     1      -3.916  -2.082   8.973  0.00  0.00    +0.121 A 
ATOM     11  C   UNL     1      -4.841  -2.879   8.303  0.00  0.00    +0.047 A 
ATOM     12  C   UNL     1      -5.004  -2.769   6.939  0.00  0.00    +0.030 A 
ATOM     13  C   UNL     1      -4.240  -1.857   6.219  0.00  0.00    +0.049 A 
ATOM     14  C   UNL     1      -3.304  -1.050   6.893  0.00  0.00    +0.002 A 
ATOM     15  C   UNL     1      -3.148  -1.170   8.278  0.00  0.00    +0.055 A 
ATOM     16  C   UNL     1      -2.507  -0.092   6.123  0.00  0.00    +0.017 A 
ATOM     17  C   UNL     1      -2.700  -0.018   4.783  0.00  0.00    +0.001 A 
ATOM     18  C   UNL     1      -3.656  -0.846   4.156  0.00  0.00    +0.251 A 
ATOM     19  O   UNL     1      -3.817  -0.759   2.951  0.00  0.00    -0.268 OA
ATOM     20  N   UNL     1      -4.388  -1.732   4.853  0.00  0.00    -0.322 N 
ATOM     21  H   UNL     1      -5.033  -2.289   4.389  0.00  0.00    +0.169 HD
BRANCH  10  22
ATOM     22  O   UNL     1      -3.768  -2.203  10.319  0.00  0.00    -0.492 OA
BRANCH  22  24
ATOM     23  C   UNL     1      -4.288  -3.159  12.477  0.00  0.00    +0.048 C 
ATOM     24  C   UNL     1      -4.594  -3.166  10.978  0.00  0.00    +0.225 C 
ENDBRANCH  22  24
ENDBRANCH  10  22
ENDBRANCH   9  17
ENDBRANCH   1   9
BRANCH   1  25
ATOM     25  C   UNL     1      -0.702   1.140   1.863  0.00  0.00    +0.006 C 
BRANCH  25  26
ATOM     26  C   UNL     1      -1.859   1.483   0.961  0.00  0.00    +0.139 A 
ATOM     27  N   UNL     1      -3.049   1.888   1.333  0.00  0.00    -0.115 NA
ATOM     28  N   UNL     1      -3.755   2.077   0.272  0.00  0.00    -0.023 NA
ATOM     29  N   UNL     1      -3.046   1.803  -0.767  0.00  0.00    -0.044 NA
ATOM     30  N   UNL     1      -1.870   1.438  -0.385  0.00  0.00    -0.223 N 
BRANCH  30  31
ATOM     31  C   UNL     1      -0.755   1.045  -1.251  0.00  0.00    +0.221 C 
BRANCH  31  32
ATOM     32  C   UNL     1      -0.812  -0.440  -1.500  0.00  0.00    +0.126 A 
ATOM     33  C   UNL     1      -1.469  -1.044  -2.506  0.00  0.00    +0.046 A 
ATOM     34  C   UNL     1      -1.253  -2.434  -2.359  0.00  0.00    +0.041 A 
ATOM     35  C   UNL     1      -0.483  -2.596  -1.268  0.00  0.00    +0.195 A 
ATOM     36  O   UNL     1      -0.219  -1.385  -0.751  0.00  0.00    -0.466 OA
ENDBRANCH  31  32
ENDBRANCH  30  31
ENDBRANCH  25  26
BRANCH  25  37
ATOM     37  C   UNL     1      -0.152   2.420   2.496  0.00  0.00    -0.024 C 
ATOM     38  C   UNL     1       0.218   3.415   1.395  0.00  0.00    +0.006 C 
ATOM     39  C   UNL     1       1.092   2.086   3.322  0.00  0.00    +0.006 C 
ENDBRANCH  25  37
ENDBRANCH   1  25
TORSDOF 10
