REMARK  Name = ZINC21263912
REMARK  17 active torsions:
REMARK  status: ('A' for Active; 'I' for Inactive)
REMARK    1  A    between atoms: C_1  and  C_2
REMARK    2  A    between atoms: C_2  and  O_3
REMARK    3  A    between atoms: O_3  and  C_4
REMARK    4  A    between atoms: C_9  and  C_10
REMARK    5  A    between atoms: C_10  and  N_11
REMARK    6  A    between atoms: N_11  and  C_12
REMARK    7  A    between atoms: N_11  and  C_22
REMARK    8  A    between atoms: C_14  and  C_20
REMARK    9  A    between atoms: C_14  and  C_21
REMARK   10  A    between atoms: C_16  and  C_18
REMARK   11  A    between atoms: C_16  and  C_19
REMARK   12  A    between atoms: C_22  and  N_24
REMARK   13  A    between atoms: N_24  and  C_25
REMARK   14  A    between atoms: C_27  and  C_33
REMARK   15  A    between atoms: C_27  and  C_34
REMARK   16  A    between atoms: C_29  and  C_31
REMARK   17  A    between atoms: C_29  and  C_32
REMARK                            x       y       z     vdW  Elec       q    Type
REMARK                         _______ _______ _______ _____ _____    ______ ____
ROOT
ATOM      1  N   UNL     1      -0.210   7.117  -2.647  0.00  0.00    -0.305 N 
ENDROOT
BRANCH   1   2
ATOM      2  C   UNL     1       0.323   7.653  -1.388  0.00  0.00    +0.073 C 
ATOM      3  C   UNL     1       1.805   7.297  -1.277  0.00  0.00    +0.009 C 
ATOM      4  C   UNL     1       2.382   7.822   0.035  0.00  0.00    -0.072 C 
ATOM      5  N   UNL     1       1.575   7.477   1.186  0.00  0.00    +0.386 N 
ATOM      6  C   UNL     1       0.130   7.539   1.110  0.00  0.00    -0.072 C 
ATOM      7  C   UNL     1      -0.419   7.014  -0.215  0.00  0.00    +0.009 C 
ATOM      8  C   UNL     1      -0.377   8.966   1.345  0.00  0.00    -0.010 C 
ATOM      9  C   UNL     1      -0.451   6.656   2.236  0.00  0.00    -0.010 C 
ATOM     10  C   UNL     1       2.584   9.339  -0.065  0.00  0.00    -0.010 C 
ATOM     11  C   UNL     1       3.779   7.187   0.217  0.00  0.00    -0.010 C 
ATOM     12  H   UNL     1       1.778   6.436   1.478  0.00  0.00    -0.084 HD
ATOM     13  H   UNL     1       1.823   8.147   2.022  0.00  0.00    -0.084 HD
ENDBRANCH   1   2
BRANCH   1  14
ATOM     14  C   UNL     1      -0.117   5.799  -2.911  0.00  0.00    +0.134 C 
ATOM     15  S   UNL     1      -0.608   5.194  -4.436  0.00  0.00    -0.019 S 
BRANCH  14  16
ATOM     16  N   UNL     1       0.362   4.956  -1.975  0.00  0.00    -0.324 N 
ATOM     17  H   UNL     1       0.759   5.353  -1.029  0.00  0.00    +0.148 HD
BRANCH  16  18
ATOM     18  C   UNL     1       0.353   3.508  -2.217  0.00  0.00    +0.069 C 
ATOM     19  C   UNL     1       1.446   2.850  -1.375  0.00  0.00    +0.009 C 
ATOM     20  C   UNL     1       1.447   1.339  -1.592  0.00  0.00    -0.072 C 
ATOM     21  N   UNL     1       0.131   0.750  -1.463  0.00  0.00    +0.386 N 
ATOM     22  C   UNL     1      -1.028   1.424  -2.011  0.00  0.00    -0.072 C 
ATOM     23  C   UNL     1      -0.998   2.934  -1.792  0.00  0.00    +0.009 C 
ATOM     24  C   UNL     1      -1.187   1.126  -3.506  0.00  0.00    -0.010 C 
ATOM     25  C   UNL     1      -2.285   0.875  -1.300  0.00  0.00    -0.010 C 
ATOM     26  C   UNL     1       2.363   0.715  -0.516  0.00  0.00    -0.010 C 
ATOM     27  C   UNL     1       2.067   1.018  -2.958  0.00  0.00    -0.010 C 
ATOM     28  H   UNL     1       0.120  -0.234  -1.956  0.00  0.00    -0.084 HD
ATOM     29  H   UNL     1      -0.114   0.629  -0.398  0.00  0.00    -0.084 HD
ENDBRANCH  16  18
ENDBRANCH  14  16
ENDBRANCH   1  14
BRANCH   1  30
ATOM     30  C   UNL     1      -0.843   8.015  -3.616  0.00  0.00    +0.145 C 
BRANCH  30  36
ATOM     31  C   UNL     1      -2.860   8.957  -2.461  0.00  0.00    +0.125 A 
ATOM     32  C   UNL     1      -4.229   8.991  -2.240  0.00  0.00    +0.046 A 
ATOM     33  C   UNL     1      -5.059   8.120  -2.918  0.00  0.00    +0.004 A 
ATOM     34  C   UNL     1      -4.527   7.217  -3.820  0.00  0.00    +0.001 A 
ATOM     35  C   UNL     1      -3.164   7.183  -4.045  0.00  0.00    +0.009 A 
ATOM     36  C   UNL     1      -2.329   8.053  -3.370  0.00  0.00    +0.011 A 
BRANCH  31  37
ATOM     37  O   UNL     1      -2.040   9.809  -1.792  0.00  0.00    -0.492 OA
BRANCH  37  39
ATOM     38  C   UNL     1      -1.606  11.661  -0.301  0.00  0.00    +0.048 C 
ATOM     39  C   UNL     1      -2.651  10.681  -0.838  0.00  0.00    +0.225 C 
ENDBRANCH  37  39
ENDBRANCH  31  37
ENDBRANCH  30  36
ENDBRANCH   1  30
TORSDOF 8
