REMARK  Name = ZINC14996363
REMARK  11 active torsions:
REMARK  status: ('A' for Active; 'I' for Inactive)
REMARK    1  A    between atoms: C_1  and  C_2
REMARK    2  A    between atoms: C_2  and  C_4
REMARK    3  A    between atoms: C_2  and  C_10
REMARK    4  A    between atoms: C_4  and  C_5
REMARK    5  A    between atoms: C_5  and  C_6
REMARK    6  A    between atoms: C_7  and  C_8
REMARK    7  A    between atoms: C_7  and  C_9
REMARK    8  A    between atoms: C_10  and  N_71
REMARK    9  A    between atoms: C_13  and  C_16
REMARK   10  A    between atoms: C_13  and  O_33
REMARK   11  A    between atoms: C_23  and  C_25
REMARK                            x       y       z     vdW  Elec       q    Type
REMARK                         _______ _______ _______ _____ _____    ______ ____
ROOT
ATOM      1  C   UNL     1       0.235  -3.755   0.743  0.00  0.00    -0.076 C 
ATOM      2  C   UNL     1      -0.341  -2.356   0.971  0.00  0.00    +0.021 C 
ATOM      3  C   UNL     1      -1.726  -2.477   1.613  0.00  0.00    +0.088 C 
ATOM      4  C   UNL     1      -1.605  -3.257   2.925  0.00  0.00    +0.021 C 
ATOM      5  C   UNL     1      -0.992  -4.630   2.641  0.00  0.00    -0.076 C 
ATOM      6  N   UNL     1       0.349  -4.444   2.046  0.00  0.00    +0.380 N 
ATOM      7  H   UNL     1       0.917  -3.869   2.679  0.00  0.00    -0.082 HD
ENDROOT
BRANCH   3   8
ATOM      8  C   UNL     1      -2.272  -1.101   1.894  0.00  0.00    -0.015 A 
ATOM      9  C   UNL     1      -1.401  -0.056   2.171  0.00  0.00    +0.010 A 
ATOM     10  C   UNL     1      -1.879   1.210   2.430  0.00  0.00    +0.047 A 
ATOM     11  C   UNL     1      -3.249   1.449   2.417  0.00  0.00    +0.136 A 
ATOM     12  C   UNL     1      -4.128   0.386   2.136  0.00  0.00    +0.021 A 
ATOM     13  C   UNL     1      -3.622  -0.889   1.870  0.00  0.00    +0.018 A 
ATOM     14  C   UNL     1      -5.473   0.956   2.199  0.00  0.00    +0.063 A 
ATOM     15  C   UNL     1      -5.310   2.270   2.501  0.00  0.00    +0.191 A 
ATOM     16  O   UNL     1      -3.996   2.550   2.627  0.00  0.00    -0.450 OA
BRANCH  15  17
ATOM     17  C   UNL     1      -6.401   3.241   2.666  0.00  0.00    +0.282 C 
ATOM     18  O   UNL     1      -7.521   2.857   2.945  0.00  0.00    -0.267 OA
ATOM     19  N   UNL     1      -6.161   4.558   2.508  0.00  0.00    -0.293 N 
ATOM     20  C   UNL     1      -4.840   5.003   2.061  0.00  0.00    +0.119 C 
ATOM     21  C   UNL     1      -4.967   5.645   0.669  0.00  0.00    +0.088 C 
ATOM     22  S   UNL     1      -6.159   7.014   0.768  0.00  0.00    -0.158 S 
ATOM     23  C   UNL     1      -7.631   6.230   1.492  0.00  0.00    +0.088 C 
ATOM     24  C   UNL     1      -7.223   5.526   2.790  0.00  0.00    +0.119 C 
ENDBRANCH  15  17
ENDBRANCH   3   8
BRANCH   3  25
ATOM     25  O   UNL     1      -2.606  -3.168   0.725  0.00  0.00    -0.384 OA
ATOM     26  H   UNL     1      -3.502  -3.283   1.069  0.00  0.00    +0.211 HD
ENDBRANCH   3  25
BRANCH   6  27
ATOM     27  C   UNL     1       1.008  -5.755   1.868  0.00  0.00    -0.076 C 
BRANCH  27  29
ATOM     28  C   UNL     1       1.632  -7.883   3.018  0.00  0.00    +0.005 C 
ATOM     29  C   UNL     1       0.998  -6.503   3.202  0.00  0.00    -0.030 C 
BRANCH  29  30
ATOM     30  C   UNL     1       1.795  -5.710   4.239  0.00  0.00    +0.005 C 
BRANCH  30  31
ATOM     31  C   UNL     1       1.682  -6.394   5.603  0.00  0.00    +0.027 C 
BRANCH  31  32
ATOM     32  C   UNL     1       2.467  -5.612   6.624  0.00  0.00    -0.028 C 
ATOM     33  C   UNL     1       1.860  -5.098   7.664  0.00  0.00    -0.080 C 
ATOM     34  C   UNL     1       0.368  -5.244   7.814  0.00  0.00    +0.038 C 
ATOM     35  C   UNL     1       2.653  -4.359   8.711  0.00  0.00    +0.038 C 
ENDBRANCH  31  32
ENDBRANCH  30  31
ENDBRANCH  29  30
ENDBRANCH  27  29
ENDBRANCH   6  27
TORSDOF 8
