REMARK  Name = ZINC22607186
REMARK  4 active torsions:
REMARK  status: ('A' for Active; 'I' for Inactive)
REMARK    1  A    between atoms: N_9  and  N_28
REMARK    2  A    between atoms: C_10  and  S_12
REMARK    3  A    between atoms: S_12  and  C_13
REMARK    4  A    between atoms: N_18  and  C_21
REMARK                            x       y       z     vdW  Elec       q    Type
REMARK                         _______ _______ _______ _____ _____    ______ ____
ROOT
ATOM      1  S   UNL     1       5.057  -2.316  -0.199  0.00  0.00    -0.073 S 
ENDROOT
BRANCH   1  11
ATOM      2  C   UNL     1       0.686   2.645  -0.754  0.00  0.00    +0.001 A 
ATOM      3  C   UNL     1       1.983   3.136  -0.677  0.00  0.00    +0.002 A 
ATOM      4  C   UNL     1       3.050   2.291  -0.559  0.00  0.00    +0.028 A 
ATOM      5  C   UNL     1       2.837   0.910  -0.513  0.00  0.00    +0.079 A 
ATOM      6  C   UNL     1       1.515   0.413  -0.591  0.00  0.00    +0.066 A 
ATOM      7  C   UNL     1       0.446   1.299  -0.713  0.00  0.00    +0.015 A 
ATOM      8  C   UNL     1       1.317  -1.042  -0.541  0.00  0.00    +0.279 A 
ATOM      9  O   UNL     1       0.203  -1.529  -0.604  0.00  0.00    -0.265 OA
ATOM     10  N   UNL     1       2.418  -1.819  -0.422  0.00  0.00    -0.209 N 
ATOM     11  C   UNL     1       3.660  -1.254  -0.353  0.00  0.00    +0.190 A 
ATOM     12  N   UNL     1       3.860   0.040  -0.396  0.00  0.00    -0.222 NA
BRANCH  10  13
ATOM     13  N   UNL     1       2.287  -3.178  -0.371  0.00  0.00    -0.293 N 
ATOM     14  H   UNL     1       1.317  -3.450  -0.432  0.00  0.00    +0.163 HD
ATOM     15  H   UNL     1       2.833  -3.622  -1.094  0.00  0.00    +0.163 HD
ENDBRANCH  10  13
ENDBRANCH   1  11
BRANCH   1  16
ATOM     16  C   UNL     1       6.469  -1.177  -0.143  0.00  0.00    +0.150 C 
ATOM     17  C   UNL     1       7.796  -1.961  -0.078  0.00  0.00    +0.120 C 
ATOM     18  C   UNL     1       8.399  -1.528   1.240  0.00  0.00    +0.228 C 
ATOM     19  O   UNL     1       9.459  -1.911   1.687  0.00  0.00    -0.275 OA
ATOM     20  N   UNL     1       7.578  -0.654   1.835  0.00  0.00    -0.209 N 
ATOM     21  C   UNL     1       6.460  -0.381   1.144  0.00  0.00    +0.240 C 
ATOM     22  O   UNL     1       5.583   0.379   1.493  0.00  0.00    -0.274 OA
BRANCH  20  23
ATOM     23  C   UNL     1       7.863  -0.069   3.077  0.00  0.00    +0.044 A 
ATOM     24  C   UNL     1       8.918   0.824   3.200  0.00  0.00    +0.025 A 
ATOM     25  C   UNL     1       9.196   1.399   4.425  0.00  0.00    +0.022 A 
ATOM     26  C   UNL     1       8.424   1.084   5.529  0.00  0.00    +0.041 A 
ATOM     27  C   UNL     1       7.372   0.193   5.410  0.00  0.00    +0.022 A 
ATOM     28  C   UNL     1       7.086  -0.379   4.186  0.00  0.00    +0.025 A 
ATOM     29 CL   UNL     1       8.777   1.808   7.067  0.00  0.00    -0.084 Cl
ENDBRANCH  20  23
ENDBRANCH   1  16
TORSDOF 4
