REMARK  Name = ZINC02352801
REMARK  6 active torsions:
REMARK  status: ('A' for Active; 'I' for Inactive)
REMARK    1  A    between atoms: C_1  and  C_2
REMARK    2  A    between atoms: N_8  and  C_9
REMARK    3  A    between atoms: C_9  and  C_10
REMARK    4  A    between atoms: C_16  and  C_24
REMARK    5  A    between atoms: C_18  and  C_22
REMARK    6  A    between atoms: C_19  and  N_21
REMARK                            x       y       z     vdW  Elec       q    Type
REMARK                         _______ _______ _______ _____ _____    ______ ____
ROOT
ATOM      1  C   UNL     1       0.672   3.514  -1.039  0.00  0.00    +0.064 C 
ATOM      2  C   UNL     1      -0.500   2.758  -1.611  0.00  0.00    +0.023 A 
ATOM      3  C   UNL     1      -1.327   3.372  -2.483  0.00  0.00    +0.068 A 
ATOM      4  C   UNL     1      -2.424   2.669  -3.022  0.00  0.00    +0.141 A 
ATOM      5  C   UNL     1      -2.630   1.360  -2.642  0.00  0.00    +0.072 A 
ATOM      6  C   UNL     1      -1.743   0.762  -1.738  0.00  0.00    +0.259 A 
ATOM      7  O   UNL     1      -1.910  -0.399  -1.397  0.00  0.00    -0.267 OA
ATOM      8  N   UNL     1      -0.709   1.467  -1.241  0.00  0.00    -0.308 N 
ATOM      9  C   UNL     1      -3.788   0.573  -3.192  0.00  0.00    +0.106 C 
ATOM     10  C   UNL     1      -4.344   1.254  -4.412  0.00  0.00    +0.098 C 
ATOM     11  C   UNL     1      -4.051   2.546  -4.689  0.00  0.00    +0.199 C 
ATOM     12  O   UNL     1      -3.253   3.281  -3.895  0.00  0.00    -0.441 OA
ENDROOT
BRANCH   9  13
ATOM     13  C   UNL     1      -4.863   0.472  -2.142  0.00  0.00    +0.002 A 
ATOM     14  C   UNL     1      -5.451   1.620  -1.641  0.00  0.00    +0.046 A 
ATOM     15  C   UNL     1      -6.442   1.527  -0.680  0.00  0.00    +0.020 A 
ATOM     16  C   UNL     1      -6.838   0.288  -0.213  0.00  0.00    +0.003 A 
ATOM     17  C   UNL     1      -6.248  -0.859  -0.709  0.00  0.00    +0.020 A 
ATOM     18  C   UNL     1      -5.260  -0.767  -1.674  0.00  0.00    +0.046 A 
ATOM     19 CL   UNL     1      -4.519  -2.208  -2.297  0.00  0.00    -0.083 Cl
ATOM     20 CL   UNL     1      -4.949   3.177  -2.222  0.00  0.00    -0.083 Cl
ENDBRANCH   9  13
BRANCH  11  21
ATOM     21  N   UNL     1      -4.584   3.123  -5.815  0.00  0.00    -0.328 N 
ATOM     22  H   UNL     1      -4.356   4.172  -6.055  0.00  0.00    +0.145 HD
ATOM     23  H   UNL     1      -5.239   2.537  -6.476  0.00  0.00    +0.145 HD
ENDBRANCH  11  21
BRANCH  10  24
ATOM     24  C   UNL     1      -5.199   0.522  -5.296  0.00  0.00    +0.101 C 
ATOM     25  N   UNL     1      -5.878  -0.059  -5.998  0.00  0.00    -0.191 NA
ENDBRANCH  10  24
BRANCH   8  26
ATOM     26  C   UNL     1       0.208   0.831  -0.292  0.00  0.00    +0.160 C 
BRANCH  26  27
ATOM     27  C   UNL     1       1.358   0.211  -1.044  0.00  0.00    -0.028 A 
ATOM     28  C   UNL     1       1.232  -1.057  -1.578  0.00  0.00    +0.005 A 
ATOM     29  C   UNL     1       2.285  -1.623  -2.272  0.00  0.00    +0.000 A 
ATOM     30  C   UNL     1       3.469  -0.924  -2.422  0.00  0.00    +0.000 A 
ATOM     31  C   UNL     1       3.597   0.342  -1.882  0.00  0.00    +0.000 A 
ATOM     32  C   UNL     1       2.542   0.910  -1.193  0.00  0.00    +0.005 A 
ENDBRANCH  26  27
ENDBRANCH   8  26
TORSDOF 5
