REMARK  Name = ZINC38965390
REMARK  6 active torsions:
REMARK  status: ('A' for Active; 'I' for Inactive)
REMARK    1  A    between atoms: C_4  and  C_7
REMARK    2  A    between atoms: C_9  and  C_13
REMARK    3  A    between atoms: C_17  and  S_29
REMARK    4  A    between atoms: N_19  and  N_20
REMARK    5  A    between atoms: C_21  and  C_22
REMARK    6  A    between atoms: C_23  and  C_24
REMARK                            x       y       z     vdW  Elec       q    Type
REMARK                         _______ _______ _______ _____ _____    ______ ____
ROOT
ATOM      1  C   UNL     1       5.813  -2.804  -1.218  0.00  0.00    +0.206 C 
ATOM      2  N   UNL     1       5.574  -2.023  -2.452  0.00  0.00    -0.231 NA
ATOM      3  N   UNL     1       6.570  -2.534  -3.407  0.00  0.00    -0.225 NA
ATOM      4  C   UNL     1       7.763  -2.767  -2.552  0.00  0.00    +0.231 C 
ATOM      5  N   UNL     1       7.207  -3.278  -1.282  0.00  0.00    -0.207 N 
ATOM      6  H   UNL     1       4.636  -2.167  -2.796  0.00  0.00    +0.143 HD
ATOM      7  H   UNL     1       6.256  -3.394  -3.831  0.00  0.00    +0.143 HD
ENDROOT
BRANCH   1  10
ATOM      8  C   UNL     1       4.196  -0.160   0.054  0.00  0.00    +0.091 C 
ATOM      9  C   UNL     1       4.163  -1.503   0.151  0.00  0.00    +0.034 C 
ATOM     10  C   UNL     1       5.618  -1.914   0.012  0.00  0.00    +0.190 C 
ATOM     11  N   UNL     1       6.315  -0.628  -0.157  0.00  0.00    -0.176 NA
ATOM     12  N   UNL     1       5.472   0.271  -0.128  0.00  0.00    -0.154 NA
BRANCH   8  16
ATOM     13  C   UNL     1       0.787   2.373   0.270  0.00  0.00    +0.000 A 
ATOM     14  C   UNL     1       2.043   2.922   0.083  0.00  0.00    +0.001 A 
ATOM     15  C   UNL     1       3.153   2.105   0.012  0.00  0.00    +0.010 A 
ATOM     16  C   UNL     1       3.007   0.724   0.130  0.00  0.00    +0.002 A 
ATOM     17  C   UNL     1       1.739   0.176   0.319  0.00  0.00    +0.010 A 
ATOM     18  C   UNL     1       0.636   1.003   0.388  0.00  0.00    +0.001 A 
ENDBRANCH   8  16
ENDBRANCH   1  10
BRANCH   5  19
ATOM     19  N   UNL     1       7.872  -4.058  -0.327  0.00  0.00    -0.189 NA
ATOM     20  C   UNL     1       7.221  -4.526   0.700  0.00  0.00    +0.130 C 
BRANCH  20  21
ATOM     21  C   UNL     1       7.914  -5.222   1.721  0.00  0.00    +0.025 C 
ATOM     22  C   UNL     1       7.238  -5.709   2.787  0.00  0.00    +0.048 C 
BRANCH  22  23
ATOM     23  C   UNL     1       7.953  -6.427   3.841  0.00  0.00    +0.128 A 
ATOM     24  C   UNL     1       7.395  -6.972   4.963  0.00  0.00    +0.049 A 
ATOM     25  C   UNL     1       8.444  -7.561   5.692  0.00  0.00    +0.042 A 
ATOM     26  C   UNL     1       9.579  -7.352   4.993  0.00  0.00    +0.195 A 
ATOM     27  O   UNL     1       9.279  -6.673   3.873  0.00  0.00    -0.464 OA
ENDBRANCH  22  23
ENDBRANCH  20  21
ENDBRANCH   5  19
BRANCH   4  28
ATOM     28  S   UNL     1       8.857  -4.000  -3.310  0.00  0.00    -0.138 S 
ATOM     29  H   UNL     1       9.217  -3.441  -4.479  0.00  0.00    +0.105 HD
ENDBRANCH   4  28
TORSDOF 6
