REMARK  Name = ZINC54718438
REMARK  8 active torsions:
REMARK  status: ('A' for Active; 'I' for Inactive)
REMARK    1  A    between atoms: C_1  and  C_2
REMARK    2  A    between atoms: C_2  and  C_4
REMARK    3  A    between atoms: C_2  and  N_10
REMARK    4  A    between atoms: C_13  and  N_16
REMARK    5  A    between atoms: N_19  and  N_20
REMARK    6  A    between atoms: N_20  and  C_21
REMARK    7  A    between atoms: C_21  and  N_23
REMARK    8  A    between atoms: N_23  and  C_24
REMARK                            x       y       z     vdW  Elec       q    Type
REMARK                         _______ _______ _______ _____ _____    ______ ____
ROOT
ATOM      1  N   UNL     1      -0.602  -1.292   4.452  0.00  0.00    -0.297 N 
ATOM      2  C   UNL     1      -0.334  -1.746   5.693  0.00  0.00    +0.316 C 
ATOM      3  O   UNL     1       0.818  -1.923   6.040  0.00  0.00    -0.251 OA
ATOM      4  N   UNL     1      -1.343  -2.003   6.549  0.00  0.00    -0.219 N 
ATOM      5  H   UNL     1      -1.521  -1.151   4.175  0.00  0.00    +0.150 HD
ATOM      6  H   UNL     1      -1.150  -2.329   7.441  0.00  0.00    +0.174 HD
ENDROOT
BRANCH   1  10
ATOM      7  N   UNL     1       0.713  -0.491   1.192  0.00  0.00    +0.385 N 
ATOM      8  C   UNL     1       0.638  -1.972   1.272  0.00  0.00    -0.076 C 
ATOM      9  C   UNL     1       0.891  -2.295   2.760  0.00  0.00    +0.002 C 
ATOM     10  C   UNL     1       0.495  -1.013   3.522  0.00  0.00    +0.056 C 
ATOM     11  C   UNL     1       0.035  -0.024   2.429  0.00  0.00    -0.056 C 
ATOM     12  H   UNL     1       1.674  -0.184   1.179  0.00  0.00    -0.081 HD
BRANCH   7  14
ATOM     13  C   UNL     1      -0.019   1.526   0.010  0.00  0.00    -0.008 C 
ATOM     14  C   UNL     1       0.002  -0.004   0.002  0.00  0.00    -0.041 C 
BRANCH  14  15
ATOM     15  C   UNL     1       0.707  -0.490  -1.238  0.00  0.00    -0.061 A 
ATOM     16  C   UNL     1       2.089  -0.511  -1.284  0.00  0.00    +0.002 A 
ATOM     17  C   UNL     1       2.736  -0.957  -2.421  0.00  0.00    +0.000 A 
ATOM     18  C   UNL     1       2.002  -1.382  -3.512  0.00  0.00    +0.000 A 
ATOM     19  C   UNL     1       0.620  -1.362  -3.466  0.00  0.00    +0.000 A 
ATOM     20  C   UNL     1      -0.027  -0.920  -2.327  0.00  0.00    +0.002 A 
ENDBRANCH  14  15
ENDBRANCH   7  14
ENDBRANCH   1  10
BRANCH   4  21
ATOM     21  N   UNL     1      -2.670  -1.798   6.149  0.00  0.00    -0.245 N 
ATOM     22  H   UNL     1      -2.863  -1.472   5.256  0.00  0.00    +0.172 HD
BRANCH  21  23
ATOM     23  C   UNL     1      -3.679  -2.056   7.005  0.00  0.00    +0.147 C 
ATOM     24  S   UNL     1      -5.300  -1.806   6.516  0.00  0.00    -0.017 S 
BRANCH  23  25
ATOM     25  N   UNL     1      -3.411  -2.509   8.245  0.00  0.00    -0.323 N 
ATOM     26  H   UNL     1      -2.492  -2.650   8.522  0.00  0.00    +0.148 HD
BRANCH  25  27
ATOM     27  C   UNL     1      -4.507  -2.788   9.176  0.00  0.00    +0.072 C 
ATOM     28  C   UNL     1      -4.875  -1.510   9.958  0.00  0.00    +0.022 C 
ATOM     29  C   UNL     1      -5.215  -2.020  11.380  0.00  0.00    +0.002 C 
ATOM     30  C   UNL     1      -4.175  -3.147  11.598  0.00  0.00    +0.002 C 
ATOM     31  C   UNL     1      -4.062  -3.829  10.218  0.00  0.00    +0.022 C 
ENDBRANCH  25  27
ENDBRANCH  23  25
ENDBRANCH  21  23
ENDBRANCH   4  21
TORSDOF 7
