REMARK  Name = ZINC39676918
REMARK  7 active torsions:
REMARK  status: ('A' for Active; 'I' for Inactive)
REMARK    1  A    between atoms: C_1  and  C_2
REMARK    2  A    between atoms: C_5  and  C_34
REMARK    3  A    between atoms: C_6  and  C_8
REMARK    4  A    between atoms: C_8  and  C_9
REMARK    5  A    between atoms: C_9  and  N_10
REMARK    6  A    between atoms: C_11  and  C_13
REMARK    7  A    between atoms: C_24  and  C_26
REMARK                            x       y       z     vdW  Elec       q    Type
REMARK                         _______ _______ _______ _____ _____    ______ ____
ROOT
ATOM      1  C   UNL     1       2.882  -4.427   5.939  0.00  0.00    +0.100 C 
ATOM      2  C   UNL     1       2.284  -3.811   7.223  0.00  0.00    +0.121 C 
ATOM      3  N   UNL     1       3.152  -4.309   8.316  0.00  0.00    -0.296 N 
ATOM      4  C   UNL     1       4.521  -4.264   7.750  0.00  0.00    +0.115 C 
ATOM      5  C   UNL     1       4.350  -4.723   6.288  0.00  0.00    -0.004 C 
ATOM      6  C   UNL     1       4.631  -6.217   6.167  0.00  0.00    -0.010 C 
ATOM      7  C   UNL     1       6.110  -6.479   6.465  0.00  0.00    -0.082 C 
ATOM      8  N   UNL     1       6.942  -5.726   5.518  0.00  0.00    +0.379 N 
ATOM      9  C   UNL     1       6.734  -4.285   5.704  0.00  0.00    -0.082 C 
ATOM     10  C   UNL     1       5.281  -3.931   5.375  0.00  0.00    -0.010 C 
ATOM     11  C   UNL     1       2.780  -4.713   9.547  0.00  0.00    +0.247 C 
ATOM     12  O   UNL     1       1.601  -4.814   9.823  0.00  0.00    -0.270 OA
ATOM     13  H   UNL     1       7.913  -5.948   5.676  0.00  0.00    -0.086 HD
ATOM     14  H   UNL     1       6.691  -5.982   4.574  0.00  0.00    -0.086 HD
ENDROOT
BRANCH  11  15
ATOM     15  C   UNL     1       3.807  -5.033  10.562  0.00  0.00    +0.040 A 
ATOM     16  C   UNL     1       5.102  -4.529  10.431  0.00  0.00    +0.033 A 
ATOM     17  C   UNL     1       6.056  -4.831  11.382  0.00  0.00    +0.043 A 
ATOM     18  C   UNL     1       5.731  -5.632  12.464  0.00  0.00    +0.040 A 
ATOM     19  C   UNL     1       4.448  -6.135  12.599  0.00  0.00    +0.043 A 
ATOM     20  C   UNL     1       3.483  -5.835  11.658  0.00  0.00    +0.033 A 
ATOM     21 CL   UNL     1       4.050  -7.139  13.957  0.00  0.00    -0.083 Cl
ATOM     22 CL   UNL     1       7.668  -4.206  11.221  0.00  0.00    -0.083 Cl
ENDBRANCH  11  15
BRANCH   1  24
ATOM     23  N   UNL     1       2.676  -3.889   3.533  0.00  0.00    -0.315 N 
ATOM     24  C   UNL     1       2.801  -3.444   4.799  0.00  0.00    +0.218 C 
ATOM     25  O   UNL     1       2.849  -2.253   5.021  0.00  0.00    -0.275 OA
ATOM     26  H   UNL     1       2.639  -4.842   3.355  0.00  0.00    +0.149 HD
BRANCH  23  27
ATOM     27  C   UNL     1       2.599  -2.934   2.425  0.00  0.00    +0.109 C 
BRANCH  27  28
ATOM     28  C   UNL     1       2.462  -3.695   1.104  0.00  0.00    +0.054 C 
BRANCH  28  34
ATOM     29  C   UNL     1      -0.268  -0.979  -2.092  0.00  0.00    +0.044 C 
ATOM     30  C   UNL     1       1.075  -1.414  -1.565  0.00  0.00    -0.050 A 
ATOM     31  C   UNL     1       2.234  -0.910  -2.127  0.00  0.00    +0.003 A 
ATOM     32  C   UNL     1       3.466  -1.309  -1.644  0.00  0.00    +0.004 A 
ATOM     33  C   UNL     1       3.540  -2.210  -0.598  0.00  0.00    -0.047 A 
ATOM     34  C   UNL     1       2.381  -2.712  -0.035  0.00  0.00    -0.043 A 
ATOM     35  C   UNL     1       1.149  -2.311  -0.516  0.00  0.00    +0.007 A 
ATOM     36  C   UNL     1       4.883  -2.645  -0.071  0.00  0.00    +0.044 C 
ENDBRANCH  28  34
ENDBRANCH  27  28
ENDBRANCH  23  27
ENDBRANCH   1  24
TORSDOF 5
