REMARK  Name = ZINC06851924
REMARK  7 active torsions:
REMARK  status: ('A' for Active; 'I' for Inactive)
REMARK    1  A    between atoms: C_1  and  C_2
REMARK    2  A    between atoms: C_2  and  C_3
REMARK    3  A    between atoms: C_3  and  C_5
REMARK    4  A    between atoms: C_10  and  O_11
REMARK    5  A    between atoms: O_11  and  C_12
REMARK    6  A    between atoms: C_12  and  C_13
REMARK    7  A    between atoms: C_26  and  C_28
REMARK                            x       y       z     vdW  Elec       q    Type
REMARK                         _______ _______ _______ _____ _____    ______ ____
ROOT
ATOM      1  C   UNL     1      -0.421   5.962   1.042  0.00  0.00    +0.258 C 
ATOM      2  O   UNL     1      -0.426   7.174   0.993  0.00  0.00    -0.272 OA
ATOM      3  N   UNL     1      -0.072   5.245  -0.044  0.00  0.00    -0.264 N 
ATOM      4  C   UNL     1      -0.062   3.845  -0.002  0.00  0.00    +0.058 A 
ATOM      5  C   UNL     1      -1.249   3.131   0.020  0.00  0.00    +0.025 A 
ATOM      6  C   UNL     1      -1.221   1.748   0.017  0.00  0.00    +0.002 A 
ATOM      7  C   UNL     1      -0.013   1.076   0.008  0.00  0.00    +0.002 A 
ATOM      8  C   UNL     1       1.177   1.781   0.000  0.00  0.00    +0.025 A 
ATOM      9  C   UNL     1       1.157   3.166  -0.000  0.00  0.00    +0.055 A 
ATOM     10  N   UNL     1       2.347   3.902   0.025  0.00  0.00    -0.284 N 
ATOM     11  C   UNL     1       2.540   4.924  -0.837  0.00  0.00    +0.219 C 
ATOM     12  O   UNL     1       3.540   5.605  -0.750  0.00  0.00    -0.275 OA
ATOM     13  C   UNL     1       1.522   5.225  -1.905  0.00  0.00    +0.118 C 
ATOM     14  C   UNL     1       0.303   5.915  -1.291  0.00  0.00    +0.087 C 
ATOM     15  C   UNL     1      -0.867   5.851  -2.275  0.00  0.00    +0.029 C 
ATOM     16  H   UNL     1       3.039   3.676   0.667  0.00  0.00    +0.155 HD
ENDROOT
BRANCH   1  17
ATOM     17  C   UNL     1      -0.805   5.258   2.318  0.00  0.00    +0.325 C 
BRANCH  17  18
ATOM     18  O   UNL     1      -1.131   6.227   3.317  0.00  0.00    -0.482 OA
BRANCH  18  24
ATOM     19  C   UNL     1      -1.834   6.649   5.565  0.00  0.00    +0.060 A 
ATOM     20  C   UNL     1      -2.214   6.149   6.816  0.00  0.00    +0.035 A 
ATOM     21  C   UNL     1      -2.258   4.788   7.027  0.00  0.00    +0.042 A 
ATOM     22  C   UNL     1      -1.927   3.911   6.005  0.00  0.00    +0.023 A 
ATOM     23  C   UNL     1      -1.555   4.389   4.765  0.00  0.00    +0.048 A 
ATOM     24  C   UNL     1      -1.500   5.756   4.534  0.00  0.00    +0.132 A 
ATOM     25 CL   UNL     1      -2.729   4.169   8.579  0.00  0.00    -0.084 Cl
BRANCH  19  26
ATOM     26  C   UNL     1      -1.786   8.098   5.331  0.00  0.00    +0.166 C 
ATOM     27  O   UNL     1      -1.456   8.526   4.246  0.00  0.00    -0.292 OA
BRANCH  26  29
ATOM     28  C   UNL     1      -2.014  10.491   5.938  0.00  0.00    +0.012 C 
ATOM     29  C   UNL     1      -2.146   9.052   6.441  0.00  0.00    +0.076 C 
ENDBRANCH  26  29
ENDBRANCH  19  26
ENDBRANCH  18  24
ENDBRANCH  17  18
ENDBRANCH   1  17
TORSDOF 5
