REMARK  Name = ZINC59293291
REMARK  7 active torsions:
REMARK  status: ('A' for Active; 'I' for Inactive)
REMARK    1  A    between atoms: C_1  and  C_2
REMARK    2  A    between atoms: C_2  and  O_3
REMARK    3  A    between atoms: O_3  and  C_4
REMARK    4  A    between atoms: C_4  and  C_6
REMARK    5  A    between atoms: C_7  and  N_29
REMARK    6  A    between atoms: C_11  and  C_28
REMARK    7  A    between atoms: N_23  and  C_26
REMARK                            x       y       z     vdW  Elec       q    Type
REMARK                         _______ _______ _______ _____ _____    ______ ____
ROOT
ATOM      1  C   UNL     1      -2.788  -2.392  -0.008  0.00  0.00    +0.117 C 
ATOM      2  C   UNL     1      -2.937  -3.740  -0.087  0.00  0.00    +0.196 C 
ATOM      3  O   UNL     1      -4.146  -4.324  -0.058  0.00  0.00    -0.441 OA
ATOM      4  C   UNL     1      -5.254  -3.599  -0.311  0.00  0.00    +0.145 A 
ATOM      5  C   UNL     1      -6.465  -4.243  -0.653  0.00  0.00    +0.088 A 
ATOM      6  C   UNL     1      -7.563  -3.505  -0.902  0.00  0.00    +0.110 A 
ATOM      7  O   UNL     1      -7.547  -2.169  -0.835  0.00  0.00    -0.427 OA
ATOM      8  C   UNL     1      -6.419  -1.517  -0.515  0.00  0.00    +0.345 A 
ATOM      9  O   UNL     1      -6.421  -0.298  -0.459  0.00  0.00    -0.245 OA
ATOM     10  C   UNL     1      -5.240  -2.221  -0.243  0.00  0.00    +0.103 A 
ATOM     11  C   UNL     1      -3.980  -1.488   0.121  0.00  0.00    +0.145 C 
ATOM     12  C   UNL     1      -4.069  -0.912   1.500  0.00  0.00    -0.001 A 
ATOM     13  C   UNL     1      -4.227  -1.512   2.731  0.00  0.00    +0.022 A 
ATOM     14  C   UNL     1      -4.272  -0.674   3.840  0.00  0.00    +0.018 A 
ATOM     15  C   UNL     1      -4.164   0.697   3.711  0.00  0.00    +0.017 A 
ATOM     16  C   UNL     1      -4.005   1.306   2.476  0.00  0.00    +0.025 A 
ATOM     17  C   UNL     1      -3.958   0.476   1.355  0.00  0.00    +0.041 A 
ATOM     18  N   UNL     1      -3.809   0.809   0.020  0.00  0.00    -0.273 N 
ATOM     19  C   UNL     1      -3.810  -0.279  -0.777  0.00  0.00    +0.240 C 
ATOM     20  O   UNL     1      -3.696  -0.288  -1.984  0.00  0.00    -0.274 OA
ATOM     21  C   UNL     1      -3.667   2.183  -0.470  0.00  0.00    +0.138 C 
ATOM     22 BR   UNL     1      -4.487  -1.427   5.562  0.00  0.00    -0.050 Br
ATOM     23  C   UNL     1      -8.847  -4.204  -1.266  0.00  0.00    +0.086 C 
ENDROOT
BRANCH   2  24
ATOM     24  N   UNL     1      -1.822  -4.526  -0.202  0.00  0.00    -0.329 N 
ATOM     25  H   UNL     1      -0.939  -4.129  -0.135  0.00  0.00    +0.145 HD
ATOM     26  H   UNL     1      -1.914  -5.480  -0.349  0.00  0.00    +0.145 HD
ENDBRANCH   2  24
BRANCH   1  27
ATOM     27  C   UNL     1      -1.500  -1.836  -0.042  0.00  0.00    +0.342 C 
ATOM     28  O   UNL     1      -0.966  -1.474   0.991  0.00  0.00    -0.245 OA
BRANCH  27  29
ATOM     29  O   UNL     1      -0.852  -1.703  -1.220  0.00  0.00    -0.462 OA
BRANCH  29  31
ATOM     30  C   UNL     1       1.026  -1.060  -2.598  0.00  0.00    +0.048 C 
ATOM     31  C   UNL     1       0.456  -1.129  -1.179  0.00  0.00    +0.229 C 
ENDBRANCH  29  31
ENDBRANCH  27  29
ENDBRANCH   1  27
TORSDOF 4
