REMARK  Name = ZINC29434738
REMARK  5 active torsions:
REMARK  status: ('A' for Active; 'I' for Inactive)
REMARK    1  A    between atoms: C_4  and  C_7
REMARK    2  A    between atoms: C_10  and  C_19
REMARK    3  A    between atoms: N_12  and  C_13
REMARK    4  A    between atoms: N_21  and  N_22
REMARK    5  A    between atoms: C_23  and  C_25
REMARK                            x       y       z     vdW  Elec       q    Type
REMARK                         _______ _______ _______ _____ _____    ______ ____
ROOT
ATOM      1  C   UNL     1      -3.785   3.198   0.054  0.00  0.00    +0.134 C 
ATOM      2  C   UNL     1      -4.750   4.399   0.069  0.00  0.00    +0.091 C 
ATOM      3  C   UNL     1      -3.836   5.603   0.066  0.00  0.00    +0.124 C 
ATOM      4  N   UNL     1      -2.603   5.208   0.059  0.00  0.00    -0.178 NA
ATOM      5  N   UNL     1      -2.453   3.823   0.045  0.00  0.00    -0.216 N 
ENDROOT
BRANCH   1   9
ATOM      6  C   UNL     1      -4.367   0.847  -3.464  0.00  0.00    +0.000 A 
ATOM      7  C   UNL     1      -4.849   0.401  -2.248  0.00  0.00    +0.000 A 
ATOM      8  C   UNL     1      -4.661   1.162  -1.109  0.00  0.00    +0.005 A 
ATOM      9  C   UNL     1      -3.990   2.369  -1.187  0.00  0.00    -0.025 A 
ATOM     10  C   UNL     1      -3.513   2.817  -2.405  0.00  0.00    +0.005 A 
ATOM     11  C   UNL     1      -3.698   2.054  -3.542  0.00  0.00    +0.000 A 
ENDBRANCH   1   9
BRANCH   5  12
ATOM     12  C   UNL     1      -1.236   3.139   0.030  0.00  0.00    +0.052 A 
ATOM     13  C   UNL     1      -1.218   1.749   0.017  0.00  0.00    +0.025 A 
ATOM     14  C   UNL     1      -0.013   1.076   0.008  0.00  0.00    +0.002 A 
ATOM     15  C   UNL     1       1.176   1.783   0.000  0.00  0.00    +0.000 A 
ATOM     16  C   UNL     1       1.162   3.166   0.007  0.00  0.00    +0.002 A 
ATOM     17  C   UNL     1      -0.040   3.846   0.022  0.00  0.00    +0.025 A 
ENDBRANCH   5  12
BRANCH   3  18
ATOM     18  C   UNL     1      -4.275   6.999   0.078  0.00  0.00    +0.276 C 
ATOM     19  O   UNL     1      -5.463   7.262   0.091  0.00  0.00    -0.267 OA
ATOM     20  N   UNL     1      -3.364   7.992   0.073  0.00  0.00    -0.229 N 
ATOM     21  H   UNL     1      -2.291   7.754   0.062  0.00  0.00    +0.173 HD
BRANCH  20  22
ATOM     22  N   UNL     1      -3.785   9.328   0.084  0.00  0.00    -0.230 N 
ATOM     23  C   UNL     1      -2.875  10.322   0.080  0.00  0.00    +0.260 C 
ATOM     24  O   UNL     1      -1.688  10.058   0.067  0.00  0.00    -0.269 OA
ATOM     25  H   UNL     1      -4.859   9.567   0.096  0.00  0.00    +0.173 HD
BRANCH  23  26
ATOM     26  C   UNL     1      -3.318  11.730   0.092  0.00  0.00    +0.042 A 
ATOM     27  C   UNL     1      -4.681  12.034   0.101  0.00  0.00    +0.017 A 
ATOM     28  C   UNL     1      -5.094  13.349   0.118  0.00  0.00    +0.050 A 
ATOM     29  C   UNL     1      -4.158  14.375   0.114  0.00  0.00    +0.166 A 
ATOM     30  C   UNL     1      -2.795  14.077   0.099  0.00  0.00    +0.167 A 
ATOM     31  C   UNL     1      -2.376  12.761   0.088  0.00  0.00    +0.062 A 
ATOM     32  O   UNL     1      -2.093  15.248   0.097  0.00  0.00    -0.453 OA
ATOM     33  C   UNL     1      -3.029  16.256   0.525  0.00  0.00    +0.466 C 
ATOM     34  O   UNL     1      -4.307  15.730   0.122  0.00  0.00    -0.453 OA
ENDBRANCH  23  26
ENDBRANCH  20  22
ENDBRANCH   3  18
TORSDOF 5
