REMARK  Name = ZINC16925521
REMARK  8 active torsions:
REMARK  status: ('A' for Active; 'I' for Inactive)
REMARK    1  A    between atoms: C_1  and  C_2
REMARK    2  A    between atoms: C_2  and  C_3
REMARK    3  A    between atoms: C_6  and  N_9
REMARK    4  A    between atoms: C_12  and  C_17
REMARK    5  A    between atoms: C_17  and  C_18
REMARK    6  A    between atoms: N_20  and  C_21
REMARK    7  A    between atoms: C_24  and  N_28
REMARK    8  A    between atoms: C_26  and  O_27
REMARK                            x       y       z     vdW  Elec       q    Type
REMARK                         _______ _______ _______ _____ _____    ______ ____
ROOT
ATOM      1  C   UNL     1       1.181   1.807  -0.091  0.00  0.00    +0.120 C 
ENDROOT
BRANCH   1   5
ATOM      2  N   UNL     1       2.836   4.723   0.802  0.00  0.00    -0.200 N 
ATOM      3  C   UNL     1       2.429   3.993  -0.223  0.00  0.00    +0.241 C 
ATOM      4  O   UNL     1       3.095   3.858  -1.227  0.00  0.00    -0.274 OA
ATOM      5  C   UNL     1       1.068   3.333  -0.054  0.00  0.00    +0.151 C 
ATOM      6  S   UNL     1       0.634   3.931   1.628  0.00  0.00    -0.054 S 
ATOM      7  C   UNL     1       2.114   4.887   1.926  0.00  0.00    +0.286 C 
ATOM      8  O   UNL     1       2.401   5.535   2.914  0.00  0.00    -0.262 OA
BRANCH   2  12
ATOM      9  C   UNL     1       6.541   6.615   0.537  0.00  0.00    -0.048 A 
ATOM     10  C   UNL     1       5.403   7.359   0.788  0.00  0.00    +0.005 A 
ATOM     11  C   UNL     1       4.174   6.735   0.876  0.00  0.00    +0.024 A 
ATOM     12  C   UNL     1       4.082   5.359   0.713  0.00  0.00    +0.045 A 
ATOM     13  C   UNL     1       5.227   4.614   0.467  0.00  0.00    +0.024 A 
ATOM     14  C   UNL     1       6.453   5.244   0.374  0.00  0.00    +0.005 A 
BRANCH   9  16
ATOM     15  C   UNL     1       8.528   7.348   1.828  0.00  0.00    +0.009 C 
ATOM     16  C   UNL     1       7.881   7.298   0.442  0.00  0.00    +0.032 C 
ENDBRANCH   9  16
ENDBRANCH   2  12
ENDBRANCH   1   5
BRANCH   1  17
ATOM     17  C   UNL     1      -0.197   1.200  -0.044  0.00  0.00    +0.219 C 
ATOM     18  O   UNL     1      -1.174   1.917   0.007  0.00  0.00    -0.275 OA
ATOM     19  N   UNL     1      -0.345  -0.139  -0.066  0.00  0.00    -0.283 N 
ATOM     20  H   UNL     1       0.432  -0.711  -0.168  0.00  0.00    +0.155 HD
BRANCH  19  21
ATOM     21  C   UNL     1      -1.620  -0.706   0.059  0.00  0.00    +0.075 A 
ATOM     22  C   UNL     1      -2.723  -0.063  -0.485  0.00  0.00    +0.029 A 
ATOM     23  C   UNL     1      -3.979  -0.626  -0.365  0.00  0.00    +0.035 A 
ATOM     24  C   UNL     1      -4.142  -1.825   0.305  0.00  0.00    +0.130 A 
ATOM     25  C   UNL     1      -3.049  -2.468   0.854  0.00  0.00    +0.080 A 
ATOM     26  C   UNL     1      -1.786  -1.913   0.734  0.00  0.00    +0.140 A 
BRANCH  24  27
ATOM     27  N   UNL     1      -5.491  -2.421   0.434  0.00  0.00    +0.057 N 
ATOM     28  O   UNL     1      -5.637  -3.476   1.024  0.00  0.00    -0.126 OA
ATOM     29  O   UNL     1      -6.456  -1.855  -0.050  0.00  0.00    -0.126 OA
ENDBRANCH  24  27
BRANCH  26  30
ATOM     30  O   UNL     1      -0.709  -2.544   1.274  0.00  0.00    -0.505 OA
ATOM     31  H   UNL     1      -0.520  -2.287   2.187  0.00  0.00    +0.292 HD
ENDBRANCH  26  30
ENDBRANCH  19  21
ENDBRANCH   1  17
TORSDOF 7
