REMARK  Name = ZINC35566605
REMARK  20 active torsions:
REMARK  status: ('A' for Active; 'I' for Inactive)
REMARK    1  A    between atoms: C_1  and  C_2
REMARK    2  A    between atoms: C_3  and  C_8
REMARK    3  A    between atoms: C_5  and  C_7
REMARK    4  A    between atoms: C_8  and  C_10
REMARK    5  A    between atoms: N_14  and  C_32
REMARK    6  A    between atoms: C_15  and  C_17
REMARK    7  A    between atoms: C_19  and  C_28
REMARK    8  A    between atoms: C_20  and  O_27
REMARK    9  A    between atoms: C_21  and  C_23
REMARK   10  A    between atoms: C_23  and  C_24
REMARK   11  A    between atoms: C_23  and  C_25
REMARK   12  A    between atoms: C_23  and  C_26
REMARK   13  A    between atoms: C_28  and  C_29
REMARK   14  A    between atoms: C_28  and  C_30
REMARK   15  A    between atoms: C_28  and  C_31
REMARK   16  A    between atoms: C_32  and  C_33
REMARK   17  A    between atoms: C_33  and  C_34
REMARK   18  A    between atoms: C_34  and  N_35
REMARK   19  A    between atoms: N_35  and  C_36
REMARK   20  A    between atoms: N_35  and  C_37
REMARK                            x       y       z     vdW  Elec       q    Type
REMARK                         _______ _______ _______ _____ _____    ______ ____
ROOT
ATOM      1  C   UNL     1       0.117  -0.990  -3.188  0.00  0.00    +0.077 C 
ATOM      2  C   UNL     1       0.352  -0.642  -4.474  0.00  0.00    +0.249 C 
ATOM      3  C   UNL     1       0.610  -1.860  -5.269  0.00  0.00    +0.288 C 
ATOM      4  O   UNL     1       0.854  -1.877  -6.459  0.00  0.00    -0.266 OA
ATOM      5  N   UNL     1       0.534  -2.947  -4.480  0.00  0.00    -0.284 N 
ATOM      6  C   UNL     1       0.227  -2.495  -3.118  0.00  0.00    +0.145 C 
ATOM      7  O   UNL     1       0.350   0.623  -4.956  0.00  0.00    -0.282 OA
ENDROOT
BRANCH   6   8
ATOM      8  C   UNL     1      -1.080  -3.089  -2.660  0.00  0.00    -0.022 A 
ATOM      9  C   UNL     1      -2.261  -2.400  -2.865  0.00  0.00    +0.013 A 
ATOM     10  C   UNL     1      -3.461  -2.942  -2.446  0.00  0.00    +0.000 A 
ATOM     11  C   UNL     1      -3.480  -4.180  -1.820  0.00  0.00    +0.124 A 
ATOM     12  C   UNL     1      -2.294  -4.870  -1.616  0.00  0.00    +0.000 A 
ATOM     13  C   UNL     1      -1.097  -4.326  -2.041  0.00  0.00    +0.013 A 
BRANCH  12  14
ATOM     14  C   UNL     1      -2.311  -6.215  -0.936  0.00  0.00    -0.009 C 
ATOM     15  C   UNL     1      -0.887  -6.768  -0.864  0.00  0.00    +0.015 C 
ATOM     16  C   UNL     1      -2.871  -6.063   0.480  0.00  0.00    +0.015 C 
ATOM     17  C   UNL     1      -3.193  -7.178  -1.732  0.00  0.00    +0.015 C 
ENDBRANCH  12  14
BRANCH  10  18
ATOM     18  C   UNL     1      -4.747  -2.189  -2.669  0.00  0.00    -0.009 C 
ATOM     19  C   UNL     1      -4.447  -0.864  -3.373  0.00  0.00    +0.015 C 
ATOM     20  C   UNL     1      -5.685  -3.029  -3.539  0.00  0.00    +0.015 C 
ATOM     21  C   UNL     1      -5.415  -1.911  -1.321  0.00  0.00    +0.015 C 
ENDBRANCH  10  18
BRANCH  11  22
ATOM     22  O   UNL     1      -4.659  -4.715  -1.406  0.00  0.00    -0.506 OA
ATOM     23  H   UNL     1      -5.095  -5.265  -2.071  0.00  0.00    +0.292 HD
ENDBRANCH  11  22
ENDBRANCH   6   8
BRANCH   1  24
ATOM     24  C   UNL     1      -0.180  -0.081  -2.075  0.00  0.00    +0.203 C 
ATOM     25  O   UNL     1      -0.346   1.107  -2.287  0.00  0.00    -0.286 OA
BRANCH  24  28
ATOM     26  C   UNL     1      -1.071   1.490   0.478  0.00  0.00    +0.067 C 
ATOM     27  C   UNL     1      -0.665   0.039   0.463  0.00  0.00    +0.057 A 
ATOM     28  C   UNL     1      -0.278  -0.602  -0.708  0.00  0.00    +0.082 A 
ATOM     29  S   UNL     1       0.066  -2.240  -0.083  0.00  0.00    -0.069 S 
ATOM     30  C   UNL     1      -0.301  -1.953   1.534  0.00  0.00    +0.076 A 
ATOM     31  N   UNL     1      -0.651  -0.687   1.552  0.00  0.00    -0.249 NA
ATOM     32  C   UNL     1      -0.238  -2.919   2.689  0.00  0.00    +0.073 C 
ENDBRANCH  24  28
ENDBRANCH   1  24
BRANCH   5  33
ATOM     33  C   UNL     1       0.730  -4.336  -4.904  0.00  0.00    +0.107 C 
BRANCH  33  34
ATOM     34  C   UNL     1       2.207  -4.709  -4.765  0.00  0.00    +0.000 C 
BRANCH  34  35
ATOM     35  C   UNL     1       2.411  -6.159  -5.208  0.00  0.00    -0.078 C 
BRANCH  35  36
ATOM     36  N   UNL     1       3.829  -6.517  -5.074  0.00  0.00    +0.376 N 
ATOM     37  C   UNL     1       4.006  -7.942  -5.385  0.00  0.00    -0.097 C 
ATOM     38  C   UNL     1       4.628  -5.710  -6.006  0.00  0.00    -0.097 C 
ATOM     39  H   UNL     1       4.133  -6.339  -4.129  0.00  0.00    -0.083 HD
ENDBRANCH  35  36
ENDBRANCH  34  35
ENDBRANCH  33  34
ENDBRANCH   5  33
TORSDOF 10
