REMARK  Name = ZINC08429130
REMARK  3 active torsions:
REMARK  status: ('A' for Active; 'I' for Inactive)
REMARK    1  A    between atoms: N_12  and  C_16
REMARK    2  A    between atoms: C_16  and  C_17
REMARK    3  A    between atoms: N_19  and  C_20
REMARK                            x       y       z     vdW  Elec       q    Type
REMARK                         _______ _______ _______ _____ _____    ______ ____
ROOT
ATOM      1  C   UNL     1       7.836   7.178  -1.707  0.00  0.00    +0.000 A 
ATOM      2  C   UNL     1       6.810   6.296  -1.423  0.00  0.00    +0.000 A 
ATOM      3  C   UNL     1       5.615   6.768  -0.919  0.00  0.00    +0.006 A 
ATOM      4  C   UNL     1       5.437   8.124  -0.695  0.00  0.00    -0.012 A 
ATOM      5  C   UNL     1       6.465   9.007  -0.980  0.00  0.00    -0.042 A 
ATOM      6  C   UNL     1       7.662   8.530  -1.486  0.00  0.00    +0.004 A 
ATOM      7  C   UNL     1       6.032  10.421  -0.652  0.00  0.00    +0.038 C 
ATOM      8  C   UNL     1       4.492  10.358  -0.539  0.00  0.00    +0.045 C 
ATOM      9  C   UNL     1       4.256   8.889  -0.163  0.00  0.00    +0.138 C 
ATOM     10  C   UNL     1       2.959   8.380  -0.736  0.00  0.00    +0.251 C 
ATOM     11  O   UNL     1       2.640   8.327  -1.904  0.00  0.00    -0.272 OA
ATOM     12  N   UNL     1       2.226   7.996   0.332  0.00  0.00    -0.215 N 
ATOM     13  C   UNL     1       2.885   8.200   1.481  0.00  0.00    +0.310 C 
ATOM     14  O   UNL     1       2.430   7.937   2.577  0.00  0.00    -0.252 OA
ATOM     15  N   UNL     1       4.110   8.726   1.284  0.00  0.00    -0.281 N 
ATOM     16  H   UNL     1       4.762   8.955   1.964  0.00  0.00    +0.152 HD
ENDROOT
BRANCH  12  17
ATOM     17  C   UNL     1       0.877   7.432   0.245  0.00  0.00    +0.214 C 
BRANCH  17  18
ATOM     18  C   UNL     1       0.966   5.932   0.124  0.00  0.00    +0.235 C 
ATOM     19  O   UNL     1       2.050   5.388   0.111  0.00  0.00    -0.274 OA
ATOM     20  N   UNL     1      -0.159   5.196   0.030  0.00  0.00    -0.282 N 
ATOM     21  H   UNL     1      -1.021   5.634  -0.042  0.00  0.00    +0.155 HD
BRANCH  20  22
ATOM     22  C   UNL     1      -0.082   3.798   0.035  0.00  0.00    +0.071 A 
ATOM     23  C   UNL     1       1.000   3.152   0.625  0.00  0.00    +0.028 A 
ATOM     24  C   UNL     1       1.031   1.766   0.605  0.00  0.00    +0.022 A 
ATOM     25  C   UNL     1      -0.005   1.076   0.004  0.00  0.00    +0.112 A 
ATOM     26  N   UNL     1      -1.014   1.718  -0.552  0.00  0.00    -0.242 NA
ATOM     27  C   UNL     1      -1.086   3.034  -0.550  0.00  0.00    +0.150 A 
ATOM     28 CL   UNL     1      -2.443   3.822  -1.292  0.00  0.00    -0.060 Cl
ENDBRANCH  20  22
ENDBRANCH  17  18
ENDBRANCH  12  17
TORSDOF 3
