REMARK  Name = ZINC12319922
REMARK  11 active torsions:
REMARK  status: ('A' for Active; 'I' for Inactive)
REMARK    1  A    between atoms: C_4  and  O_16
REMARK    2  A    between atoms: C_5  and  C_7
REMARK    3  A    between atoms: C_7  and  N_54
REMARK    4  A    between atoms: C_8  and  C_9
REMARK    5  A    between atoms: C_8  and  N_54
REMARK    6  A    between atoms: C_9  and  C_10
REMARK    7  A    between atoms: O_16  and  C_17
REMARK    8  A    between atoms: C_17  and  C_18
REMARK    9  A    between atoms: C_18  and  C_20
REMARK   10  A    between atoms: C_18  and  O_26
REMARK   11  A    between atoms: C_20  and  N_57
REMARK                            x       y       z     vdW  Elec       q    Type
REMARK                         _______ _______ _______ _____ _____    ______ ____
ROOT
ATOM      1  C   UNL     1      -8.403   5.975  -2.803  0.00  0.00    +0.000 A 
ATOM      2  C   UNL     1      -8.396   7.341  -2.590  0.00  0.00    +0.004 A 
ATOM      3  C   UNL     1      -7.201   8.007  -2.401  0.00  0.00    +0.046 A 
ATOM      4  C   UNL     1      -6.005   7.303  -2.426  0.00  0.00    +0.122 A 
ATOM      5  C   UNL     1      -6.014   5.933  -2.639  0.00  0.00    -0.023 A 
ATOM      6  C   UNL     1      -7.212   5.272  -2.833  0.00  0.00    +0.005 A 
ENDROOT
BRANCH   5   7
ATOM      7  C   UNL     1      -4.717   5.165  -2.667  0.00  0.00    -0.043 C 
BRANCH   7   8
ATOM      8  N   UNL     1      -4.275   4.914  -1.282  0.00  0.00    +0.382 N 
ATOM      9  H   UNL     1      -4.993   4.368  -0.791  0.00  0.00    -0.085 HD
ATOM     10  H   UNL     1      -4.139   5.811  -0.802  0.00  0.00    -0.085 HD
BRANCH   8  11
ATOM     11  C   UNL     1      -3.005   4.163  -1.279  0.00  0.00    -0.077 C 
BRANCH  11  12
ATOM     12  C   UNL     1      -2.572   3.917   0.168  0.00  0.00    +0.016 C 
BRANCH  12  13
ATOM     13  C   UNL     1      -1.275   3.150   0.180  0.00  0.00    -0.046 A 
ATOM     14  C   UNL     1      -1.271   1.763   0.188  0.00  0.00    +0.023 A 
ATOM     15  C   UNL     1      -0.062   1.094   0.204  0.00  0.00    +0.111 A 
ATOM     16  N   UNL     1       1.077   1.758   0.202  0.00  0.00    -0.263 NA
ATOM     17  C   UNL     1       1.111   3.077   0.190  0.00  0.00    +0.111 A 
ATOM     18  C   UNL     1      -0.058   3.814   0.179  0.00  0.00    +0.023 A 
ENDBRANCH  12  13
ENDBRANCH  11  12
ENDBRANCH   8  11
ENDBRANCH   7   8
ENDBRANCH   5   7
BRANCH   4  19
ATOM     19  O   UNL     1      -4.828   7.955  -2.240  0.00  0.00    -0.489 OA
BRANCH  19  20
ATOM     20  C   UNL     1      -4.894   9.367  -2.025  0.00  0.00    +0.258 C 
BRANCH  20  21
ATOM     21  C   UNL     1      -3.481   9.922  -1.838  0.00  0.00    +0.135 C 
BRANCH  21  22
ATOM     22  O   UNL     1      -2.913   9.384  -0.642  0.00  0.00    -0.390 OA
ATOM     23  H   UNL     1      -3.411   9.595   0.159  0.00  0.00    +0.210 HD
ENDBRANCH  21  22
BRANCH  21  24
ATOM     24  C   UNL     1      -3.542  11.447  -1.733  0.00  0.00    -0.044 C 
BRANCH  24  30
ATOM     25  C   UNL     1      -2.215  13.312  -0.953  0.00  0.00    -0.068 C 
ATOM     26  C   UNL     1      -0.838  13.649  -0.371  0.00  0.00    +0.050 C 
ATOM     27  S   UNL     1       0.372  13.659  -1.731  0.00  0.00    -0.164 S 
ATOM     28  C   UNL     1       0.056  12.070  -2.560  0.00  0.00    +0.050 C 
ATOM     29  C   UNL     1      -1.449  11.958  -2.830  0.00  0.00    -0.068 C 
ATOM     30  N   UNL     1      -2.172  11.952  -1.537  0.00  0.00    +0.382 N 
ATOM     31  H   UNL     1      -1.678  11.330  -0.886  0.00  0.00    -0.082 HD
ENDBRANCH  24  30
ENDBRANCH  21  24
ENDBRANCH  20  21
ENDBRANCH  19  20
ENDBRANCH   4  19
TORSDOF 11
