REMARK  Name = ZINC39710524
REMARK  13 active torsions:
REMARK  status: ('A' for Active; 'I' for Inactive)
REMARK    1  A    between atoms: C_1  and  C_2
REMARK    2  A    between atoms: C_2  and  C_3
REMARK    3  A    between atoms: C_10  and  C_15
REMARK    4  A    between atoms: C_15  and  C_17
REMARK    5  A    between atoms: C_15  and  N_27
REMARK    6  A    between atoms: N_22  and  C_23
REMARK    7  A    between atoms: C_23  and  C_24
REMARK    8  A    between atoms: C_23  and  C_25
REMARK    9  A    between atoms: C_23  and  C_26
REMARK   10  A    between atoms: N_27  and  C_28
REMARK   11  A    between atoms: N_27  and  C_36
REMARK   12  A    between atoms: C_28  and  C_29
REMARK   13  A    between atoms: C_36  and  C_37
REMARK                            x       y       z     vdW  Elec       q    Type
REMARK                         _______ _______ _______ _____ _____    ______ ____
ROOT
ATOM      1  C   UNL     1      -6.358  -2.925  -2.238  0.00  0.00    -0.008 C 
ENDROOT
BRANCH   1   9
ATOM      2  C   UNL     1      -3.558   1.548   0.252  0.00  0.00    -0.047 A 
ATOM      3  C   UNL     1      -4.169   1.307   1.483  0.00  0.00    +0.005 A 
ATOM      4  C   UNL     1      -5.225   0.465   1.625  0.00  0.00    +0.024 A 
ATOM      5  C   UNL     1      -5.754  -0.211   0.510  0.00  0.00    +0.040 A 
ATOM      6  N   UNL     1      -6.791  -1.035   0.661  0.00  0.00    -0.285 N 
ATOM      7  C   UNL     1      -7.336  -1.701  -0.343  0.00  0.00    +0.223 C 
ATOM      8  O   UNL     1      -8.282  -2.439  -0.144  0.00  0.00    -0.275 OA
ATOM      9  C   UNL     1      -6.779  -1.541  -1.740  0.00  0.00    +0.088 C 
ATOM     10  C   UNL     1      -5.600  -0.605  -1.917  0.00  0.00    -0.006 C 
ATOM     11  C   UNL     1      -5.128   0.024  -0.803  0.00  0.00    -0.007 A 
ATOM     12  C   UNL     1      -3.997   0.948  -0.884  0.00  0.00    +0.013 A 
ATOM     13  H   UNL     1      -7.164  -1.151   1.549  0.00  0.00    +0.155 HD
BRANCH   2  15
ATOM     14  C   UNL     1      -2.902   3.917  -0.071  0.00  0.00    +0.009 C 
ATOM     15  C   UNL     1      -2.390   2.498   0.181  0.00  0.00    +0.032 C 
ENDBRANCH   2  15
ENDBRANCH   1   9
BRANCH   1  16
ATOM     16  C   UNL     1      -5.308  -3.510  -1.292  0.00  0.00    +0.205 C 
ATOM     17  N   UNL     1      -5.852  -3.628   0.068  0.00  0.00    -0.152 NA
ATOM     18  N   UNL     1      -5.179  -2.929   0.829  0.00  0.00    -0.070 NA
ATOM     19  N   UNL     1      -4.141  -2.264   0.178  0.00  0.00    -0.179 N 
ATOM     20  N   UNL     1      -4.163  -2.585  -1.157  0.00  0.00    -0.183 NA
ATOM     21  H   UNL     1      -3.503  -1.668   0.602  0.00  0.00    +0.191 HD
BRANCH  20  22
ATOM     22  C   UNL     1      -2.910  -3.235  -1.565  0.00  0.00    +0.035 C 
ATOM     23  C   UNL     1      -3.022  -3.688  -3.022  0.00  0.00    +0.029 C 
ATOM     24  C   UNL     1      -1.753  -2.243  -1.426  0.00  0.00    +0.029 C 
ATOM     25  C   UNL     1      -2.651  -4.449  -0.671  0.00  0.00    +0.029 C 
ENDBRANCH  20  22
ENDBRANCH   1  16
BRANCH   1  26
ATOM     26  N   UNL     1      -7.530  -3.809  -2.276  0.00  0.00    +0.392 N 
ATOM     27  H   UNL     1      -7.839  -3.998  -1.335  0.00  0.00    -0.080 HD
BRANCH  26  28
ATOM     28  C   UNL     1      -7.170  -5.072  -2.936  0.00  0.00    -0.040 C 
BRANCH  28  29
ATOM     29  C   UNL     1      -6.416  -5.947  -1.968  0.00  0.00    -0.046 A 
ATOM     30  C   UNL     1      -5.147  -6.395  -2.285  0.00  0.00    +0.003 A 
ATOM     31  C   UNL     1      -4.456  -7.197  -1.397  0.00  0.00    +0.000 A 
ATOM     32  C   UNL     1      -5.033  -7.553  -0.192  0.00  0.00    +0.001 A 
ATOM     33  C   UNL     1      -6.301  -7.106   0.126  0.00  0.00    +0.020 A 
ATOM     34  C   UNL     1      -6.992  -6.298  -0.760  0.00  0.00    +0.042 A 
ATOM     35 CL   UNL     1      -8.582  -5.731  -0.359  0.00  0.00    -0.083 Cl
ENDBRANCH  28  29
ENDBRANCH  26  28
BRANCH  26  36
ATOM     36  C   UNL     1      -8.612  -3.157  -3.026  0.00  0.00    -0.002 C 
BRANCH  36  37
ATOM     37  C   UNL     1      -9.835  -4.037  -3.011  0.00  0.00    +0.089 A 
ATOM     38  C   UNL     1     -10.848  -3.961  -2.129  0.00  0.00    +0.042 A 
ATOM     39  C   UNL     1     -11.776  -4.967  -2.484  0.00  0.00    +0.041 A 
ATOM     40  C   UNL     1     -11.274  -5.598  -3.561  0.00  0.00    +0.195 A 
ATOM     41  O   UNL     1     -10.101  -5.026  -3.879  0.00  0.00    -0.470 OA
ENDBRANCH  36  37
ENDBRANCH  26  36
ENDBRANCH   1  26
TORSDOF 9
