REMARK  Name = ZINC60474547
REMARK  6 active torsions:
REMARK  status: ('A' for Active; 'I' for Inactive)
REMARK    1  A    between atoms: C_1  and  C_2
REMARK    2  A    between atoms: C_7  and  N_8
REMARK    3  A    between atoms: N_8  and  C_9
REMARK    4  A    between atoms: C_9  and  C_10
REMARK    5  A    between atoms: N_12  and  C_13
REMARK    6  A    between atoms: C_13  and  C_14
REMARK                            x       y       z     vdW  Elec       q    Type
REMARK                         _______ _______ _______ _____ _____    ______ ____
ROOT
ATOM      1  C   UNL     1       0.047  -0.757   3.679  0.00  0.00    +0.197 C 
ENDROOT
BRANCH   1   2
ATOM      2  C   UNL     1       0.045   0.214   4.831  0.00  0.00    +0.230 C 
ATOM      3  O   UNL     1       0.027   1.407   4.618  0.00  0.00    -0.274 OA
ATOM      4  N   UNL     1       0.063  -0.245   6.098  0.00  0.00    -0.307 N 
ATOM      5  H   UNL     1       0.078  -1.200   6.269  0.00  0.00    +0.149 HD
BRANCH   4   6
ATOM      6  C   UNL     1       0.061   0.699   7.219  0.00  0.00    +0.178 C 
BRANCH   6   7
ATOM      7  C   UNL     1       0.084  -0.064   8.518  0.00  0.00    +0.122 A 
ATOM      8  C   UNL     1       1.186  -0.442   9.189  0.00  0.00    +0.046 A 
ATOM      9  C   UNL     1       0.748  -1.127  10.345  0.00  0.00    +0.041 A 
ATOM     10  C   UNL     1      -0.597  -1.126  10.312  0.00  0.00    +0.195 A 
ATOM     11  O   UNL     1      -0.994  -0.475   9.206  0.00  0.00    -0.466 OA
ENDBRANCH   6   7
ENDBRANCH   4   6
ENDBRANCH   1   2
BRANCH   1  12
ATOM     12  N   UNL     1       0.025  -0.016   2.415  0.00  0.00    -0.335 N 
ATOM     13  H   UNL     1       0.012   0.954   2.422  0.00  0.00    +0.147 HD
BRANCH  12  20
ATOM     14  C   UNL     1      -0.018   1.503   0.010  0.00  0.00    +0.045 C 
ATOM     15  C   UNL     1       0.002  -0.004   0.002  0.00  0.00    -0.029 A 
ATOM     16  C   UNL     1       0.006  -0.689  -1.198  0.00  0.00    +0.019 A 
ATOM     17  C   UNL     1       0.024  -2.072  -1.206  0.00  0.00    +0.014 A 
ATOM     18  C   UNL     1       0.039  -2.774  -0.014  0.00  0.00    +0.016 A 
ATOM     19  C   UNL     1       0.035  -2.095   1.189  0.00  0.00    +0.024 A 
ATOM     20  C   UNL     1       0.023  -0.706   1.200  0.00  0.00    +0.031 A 
ATOM     21  I   UNL     1       0.030  -3.106  -3.028  0.00  0.00    -0.044 I 
ENDBRANCH  12  20
ENDBRANCH   1  12
TORSDOF 5
