REMARK  Name = ZINC19732504
REMARK  11 active torsions:
REMARK  status: ('A' for Active; 'I' for Inactive)
REMARK    1  A    between atoms: C_1  and  C_2
REMARK    2  A    between atoms: C_2  and  C_3
REMARK    3  A    between atoms: C_2  and  C_4
REMARK    4  A    between atoms: C_2  and  C_25
REMARK    5  A    between atoms: C_4  and  N_5
REMARK    6  A    between atoms: N_5  and  C_6
REMARK    7  A    between atoms: C_12  and  C_16
REMARK    8  A    between atoms: N_14  and  C_15
REMARK    9  A    between atoms: C_25  and  N_26
REMARK   10  A    between atoms: N_26  and  C_27
REMARK   11  A    between atoms: N_26  and  C_28
REMARK                            x       y       z     vdW  Elec       q    Type
REMARK                         _______ _______ _______ _____ _____    ______ ____
ROOT
ATOM      1  C   UNL     1       2.113   0.547   0.653  0.00  0.00    -0.067 C 
ATOM      2  C   UNL     1       3.394   1.266   1.086  0.00  0.00    -0.009 C 
ATOM      3  C   UNL     1       3.245   2.774   0.846  0.00  0.00    +0.054 C 
ATOM      4  C   UNL     1       1.941   3.225   1.454  0.00  0.00    +0.043 A 
ATOM      5  C   UNL     1       0.938   2.381   1.802  0.00  0.00    +0.004 A 
ATOM      6  C   UNL     1      -0.084   3.192   2.323  0.00  0.00    +0.151 A 
ATOM      7  N   UNL     1       0.354   4.438   2.265  0.00  0.00    -0.166 NA
ATOM      8  N   UNL     1       1.537   4.470   1.755  0.00  0.00    -0.270 N 
ATOM      9  C   UNL     1       2.324   5.685   1.535  0.00  0.00    +0.172 C 
ATOM     10  C   UNL     1       0.979   0.888   1.629  0.00  0.00    +0.023 C 
ENDROOT
BRANCH   6  11
ATOM     11  C   UNL     1      -1.392   2.740   2.838  0.00  0.00    +0.267 C 
ATOM     12  O   UNL     1      -1.627   1.552   2.942  0.00  0.00    -0.268 OA
ATOM     13  N   UNL     1      -2.326   3.645   3.194  0.00  0.00    -0.296 N 
ATOM     14  C   UNL     1      -2.112   5.077   2.946  0.00  0.00    +0.108 C 
ATOM     15  C   UNL     1      -3.316   5.622   2.162  0.00  0.00    +0.019 C 
ATOM     16  C   UNL     1      -4.603   5.301   2.925  0.00  0.00    +0.003 C 
ATOM     17  C   UNL     1      -4.758   3.784   3.052  0.00  0.00    +0.019 C 
ATOM     18  C   UNL     1      -3.574   3.218   3.841  0.00  0.00    +0.108 C 
ENDBRANCH   6  11
BRANCH   1  19
ATOM     19  N   UNL     1       2.342  -0.904   0.657  0.00  0.00    +0.381 N 
ATOM     20  H   UNL     1       1.378  -1.413   0.801  0.00  0.00    -0.085 HD
ATOM     21  H   UNL     1       3.016  -1.153   1.490  0.00  0.00    -0.085 HD
BRANCH  19  22
ATOM     22  C   UNL     1       2.944  -1.345  -0.609  0.00  0.00    -0.078 C 
BRANCH  22  24
ATOM     23  C   UNL     1       4.104  -3.204   0.592  0.00  0.00    +0.007 C 
ATOM     24  C   UNL     1       3.167  -2.858  -0.567  0.00  0.00    -0.065 C 
ATOM     25  C   UNL     1       1.825  -3.566  -0.366  0.00  0.00    +0.007 C 
BRANCH  24  26
ATOM     26  C   UNL     1       3.794  -3.318  -1.885  0.00  0.00    -0.075 C 
BRANCH  26  27
ATOM     27  N   UNL     1       4.109  -4.750  -1.804  0.00  0.00    +0.376 N 
ATOM     28  C   UNL     1       2.935  -5.567  -2.140  0.00  0.00    -0.097 C 
ATOM     29  C   UNL     1       5.250  -5.088  -2.666  0.00  0.00    -0.097 C 
ATOM     30  H   UNL     1       4.392  -4.976  -0.765  0.00  0.00    -0.083 HD
ENDBRANCH  26  27
ENDBRANCH  24  26
ENDBRANCH  22  24
ENDBRANCH  19  22
ENDBRANCH   1  19
TORSDOF 6
