REMARK  Name = ZINC04222237
REMARK  11 active torsions:
REMARK  status: ('A' for Active; 'I' for Inactive)
REMARK    1  A    between atoms: C_1  and  C_2
REMARK    2  A    between atoms: C_2  and  C_3
REMARK    3  A    between atoms: C_2  and  C_4
REMARK    4  A    between atoms: C_4  and  C_5
REMARK    5  A    between atoms: C_5  and  C_7
REMARK    6  A    between atoms: C_5  and  N_68
REMARK    7  A    between atoms: N_9  and  C_10
REMARK    8  A    between atoms: C_24  and  C_29
REMARK    9  A    between atoms: C_32  and  S_35
REMARK   10  A    between atoms: S_35  and  C_36
REMARK   11  A    between atoms: C_37  and  N_68
REMARK                            x       y       z     vdW  Elec       q    Type
REMARK                         _______ _______ _______ _____ _____    ______ ____
ROOT
ATOM      1  C   UNL     1       7.238   0.455   1.896  0.00  0.00    +0.077 C 
ATOM      2  C   UNL     1       6.979  -0.909   1.245  0.00  0.00    +0.041 C 
ATOM      3  C   UNL     1       6.154  -0.690  -0.020  0.00  0.00    +0.111 C 
ATOM      4  N   UNL     1       4.952   0.095   0.266  0.00  0.00    -0.286 N 
ATOM      5  C   UNL     1       4.879   1.099   1.307  0.00  0.00    +0.164 C 
ATOM      6  C   UNL     1       5.907   1.002   2.405  0.00  0.00    +0.054 C 
ATOM      7  C   UNL     1       4.819   2.468   0.697  0.00  0.00    +0.238 C 
ATOM      8  O   UNL     1       5.727   3.249   0.887  0.00  0.00    -0.273 OA
ATOM      9  N   UNL     1       3.780   2.835  -0.052  0.00  0.00    -0.283 N 
ATOM     10  C   UNL     1       2.638   2.072  -0.235  0.00  0.00    +0.046 A 
ATOM     11  C   UNL     1       1.418   2.759  -0.208  0.00  0.00    +0.024 A 
ATOM     12  C   UNL     1       0.226   2.090  -0.339  0.00  0.00    +0.010 A 
ATOM     13  C   UNL     1       0.219   0.703  -0.506  0.00  0.00    -0.017 A 
ATOM     14  C   UNL     1       1.418   0.011  -0.548  0.00  0.00    +0.023 A 
ATOM     15  C   UNL     1       2.640   0.691  -0.421  0.00  0.00    +0.059 A 
ATOM     16  C   UNL     1       3.864  -0.116  -0.503  0.00  0.00    +0.249 C 
ATOM     17  O   UNL     1       3.898  -1.027  -1.308  0.00  0.00    -0.270 OA
ATOM     18  H   UNL     1       3.826   3.695  -0.499  0.00  0.00    +0.155 HD
ENDROOT
BRANCH  13  19
ATOM     19  C   UNL     1      -1.067  -0.025  -0.636  0.00  0.00    -0.018 A 
ATOM     20  C   UNL     1      -1.071  -1.408  -0.807  0.00  0.00    +0.009 A 
ATOM     21  C   UNL     1      -2.267  -2.084  -0.922  0.00  0.00    +0.015 A 
ATOM     22  C   UNL     1      -3.469  -1.384  -0.879  0.00  0.00    +0.008 A 
ATOM     23  C   UNL     1      -3.466  -0.004  -0.713  0.00  0.00    +0.015 A 
ATOM     24  C   UNL     1      -2.272   0.675  -0.592  0.00  0.00    +0.009 A 
BRANCH  22  25
ATOM     25  S   UNL     1      -4.996  -2.249  -1.034  0.00  0.00    -0.129 S 
ATOM     26  C   UNL     1      -4.501  -3.984  -1.225  0.00  0.00    +0.090 C 
ENDBRANCH  22  25
ENDBRANCH  13  19
BRANCH   1  29
ATOM     27  C   UNL     1       9.498   0.301   2.793  0.00  0.00    +0.199 C 
ATOM     28  O   UNL     1       9.924   0.432   1.665  0.00  0.00    -0.278 OA
ATOM     29  N   UNL     1       8.169   0.299   3.017  0.00  0.00    -0.314 N 
ATOM     30  H   UNL     1       7.829   0.194   3.919  0.00  0.00    +0.149 HD
BRANCH  27  31
ATOM     31  C   UNL     1      10.456   0.141   3.946  0.00  0.00    +0.016 C 
BRANCH  31  33
ATOM     32  C   UNL     1      11.644  -1.909   3.445  0.00  0.00    -0.099 C 
ATOM     33  N   UNL     1      11.722  -0.436   3.457  0.00  0.00    +0.385 N 
ATOM     34  H   UNL     1      12.489  -0.142   4.074  0.00  0.00    -0.085 HD
ATOM     35  H   UNL     1      11.902  -0.099   2.504  0.00  0.00    -0.085 HD
ENDBRANCH  31  33
BRANCH  31  36
ATOM     36  C   UNL     1      10.735   1.509   4.571  0.00  0.00    -0.004 C 
BRANCH  36  38
ATOM     37  C   UNL     1      11.989   2.706   6.370  0.00  0.00    +0.007 C 
ATOM     38  C   UNL     1      11.607   1.332   5.816  0.00  0.00    -0.018 C 
ATOM     39  C   UNL     1      10.828   0.553   6.878  0.00  0.00    +0.007 C 
ENDBRANCH  36  38
ENDBRANCH  31  36
ENDBRANCH  27  31
ENDBRANCH   1  29
TORSDOF 7
