REMARK  Name = ZINC41114965
REMARK  8 active torsions:
REMARK  status: ('A' for Active; 'I' for Inactive)
REMARK    1  A    between atoms: C_1  and  C_2
REMARK    2  A    between atoms: C_5  and  C_8
REMARK    3  A    between atoms: C_8  and  C_10
REMARK    4  A    between atoms: C_8  and  C_13
REMARK    5  A    between atoms: C_10  and  C_11
REMARK    6  A    between atoms: C_10  and  C_12
REMARK    7  A    between atoms: C_21  and  S_25
REMARK    8  A    between atoms: S_25  and  N_28
REMARK                            x       y       z     vdW  Elec       q    Type
REMARK                         _______ _______ _______ _____ _____    ______ ____
ROOT
ATOM      1  C   UNL     1       1.276  -4.847   0.694  0.00  0.00    +0.224 C 
ATOM      2  O   UNL     1       2.063  -4.111   1.251  0.00  0.00    -0.275 OA
ATOM      3  N   UNL     1       1.483  -6.179   0.693  0.00  0.00    -0.296 N 
ATOM      4  C   UNL     1       2.708  -6.763   1.264  0.00  0.00    +0.113 C 
ATOM      5  C   UNL     1       2.304  -7.620   2.463  0.00  0.00    +0.054 C 
ATOM      6  C   UNL     1       1.148  -8.520   2.113  0.00  0.00    -0.041 A 
ATOM      7  C   UNL     1       0.936  -9.637   2.913  0.00  0.00    +0.006 A 
ATOM      8  C   UNL     1      -0.110 -10.497   2.654  0.00  0.00    +0.029 A 
ATOM      9  C   UNL     1      -0.958 -10.247   1.591  0.00  0.00    +0.105 A 
ATOM     10  C   UNL     1      -0.748  -9.142   0.793  0.00  0.00    +0.034 A 
ATOM     11  C   UNL     1       0.309  -8.278   1.050  0.00  0.00    -0.025 A 
ATOM     12  C   UNL     1       0.495  -7.104   0.129  0.00  0.00    +0.143 C 
ENDROOT
BRANCH   9  13
ATOM     13  S   UNL     1      -2.302 -11.338   1.256  0.00  0.00    +0.056 S 
ATOM     14  O   UNL     1      -2.618 -11.181  -0.120  0.00  0.00    -0.153 OA
ATOM     15  O   UNL     1      -1.954 -12.595   1.820  0.00  0.00    -0.153 OA
BRANCH  13  16
ATOM     16  N   UNL     1      -3.608 -10.781   2.109  0.00  0.00    -0.204 NA
ATOM     17  H   UNL     1      -4.505 -10.927   1.771  0.00  0.00    +0.144 HD
ATOM     18  H   UNL     1      -3.475 -10.310   2.946  0.00  0.00    +0.144 HD
ENDBRANCH  13  16
ENDBRANCH   9  13
BRANCH   1  19
ATOM     19  C   UNL     1       0.066  -4.272   0.003  0.00  0.00    +0.108 C 
BRANCH  19  24
ATOM     20  C   UNL     1       1.191  -3.620  -5.628  0.00  0.00    +0.044 C 
ATOM     21  C   UNL     1       0.898  -3.790  -4.160  0.00  0.00    -0.050 A 
ATOM     22  C   UNL     1      -0.139  -4.609  -3.752  0.00  0.00    +0.003 A 
ATOM     23  C   UNL     1      -0.408  -4.765  -2.405  0.00  0.00    +0.004 A 
ATOM     24  C   UNL     1       0.360  -4.103  -1.466  0.00  0.00    -0.035 A 
ATOM     25  C   UNL     1       1.397  -3.285  -1.873  0.00  0.00    +0.004 A 
ATOM     26  C   UNL     1       1.669  -3.132  -3.220  0.00  0.00    +0.003 A 
ENDBRANCH  19  24
BRANCH  19  27
ATOM     27  C   UNL     1      -0.273  -2.912   0.615  0.00  0.00    -0.001 C 
ATOM     28  C   UNL     1      -1.428  -2.277  -0.161  0.00  0.00    +0.008 C 
ATOM     29  C   UNL     1      -0.682  -3.099   2.078  0.00  0.00    +0.008 C 
ENDBRANCH  19  27
ENDBRANCH   1  19
TORSDOF 5
