REMARK  Name = ZINC39482785
REMARK  10 active torsions:
REMARK  status: ('A' for Active; 'I' for Inactive)
REMARK    1  A    between atoms: C_1  and  C_2
REMARK    2  A    between atoms: C_2  and  C_3
REMARK    3  A    between atoms: C_2  and  S_4
REMARK    4  A    between atoms: S_4  and  S_7
REMARK    5  A    between atoms: S_7  and  N_10
REMARK    6  A    between atoms: N_10  and  C_11
REMARK    7  A    between atoms: C_14  and  S_25
REMARK    8  A    between atoms: C_16  and  N_17
REMARK    9  A    between atoms: S_25  and  O_28
REMARK   10  A    between atoms: O_28  and  C_29
REMARK                            x       y       z     vdW  Elec       q    Type
REMARK                         _______ _______ _______ _____ _____    ______ ____
ROOT
ATOM      1  C   UNL     1      -3.221  -4.686   0.294  0.00  0.00    +0.097 A 
ATOM      2  C   UNL     1      -2.122  -5.527   0.387  0.00  0.00    +0.030 A 
ATOM      3  C   UNL     1      -2.304  -6.894   0.489  0.00  0.00    +0.032 A 
ATOM      4  C   UNL     1      -3.580  -7.427   0.498  0.00  0.00    +0.130 A 
ATOM      5  C   UNL     1      -4.681  -6.596   0.406  0.00  0.00    +0.055 A 
ATOM      6  C   UNL     1      -4.508  -5.223   0.309  0.00  0.00    +0.057 A 
ENDROOT
BRANCH   6   7
ATOM      7  N   UNL     1      -5.622  -4.380   0.221  0.00  0.00    -0.323 N 
ATOM      8  C   UNL     1      -6.200  -4.026  -1.085  0.00  0.00    +0.120 C 
ATOM      9  C   UNL     1      -6.335  -2.502  -1.161  0.00  0.00    +0.102 C 
ATOM     10  N   UNL     1      -7.092  -2.022   0.003  0.00  0.00    -0.285 NA
ATOM     11  C   UNL     1      -6.379  -2.306   1.256  0.00  0.00    +0.252 C 
ATOM     12  C   UNL     1      -6.248  -3.828   1.431  0.00  0.00    +0.158 C 
ATOM     13  F   UNL     1      -7.096  -1.773   2.333  0.00  0.00    -0.227 F 
ATOM     14  H   UNL     1      -7.298  -1.038  -0.080  0.00  0.00    +0.125 HD
ENDBRANCH   6   7
BRANCH   4  15
ATOM     15  S   UNL     1      -3.803  -9.170   0.627  0.00  0.00    +0.151 S 
ATOM     16  O   UNL     1      -5.076  -9.459   0.065  0.00  0.00    -0.131 OA
ATOM     17  O   UNL     1      -2.606  -9.769   0.151  0.00  0.00    -0.131 OA
BRANCH  15  18
ATOM     18  O   UNL     1      -3.896  -9.503   2.109  0.00  0.00    -0.342 OA
BRANCH  18  19
ATOM     19  C   UNL     1      -5.083  -9.164   2.678  0.00  0.00    +0.157 A 
ATOM     20  C   UNL     1      -5.252  -7.905   3.235  0.00  0.00    +0.048 A 
ATOM     21  C   UNL     1      -6.459  -7.562   3.813  0.00  0.00    +0.004 A 
ATOM     22  C   UNL     1      -7.499  -8.473   3.836  0.00  0.00    +0.000 A 
ATOM     23  C   UNL     1      -7.333  -9.729   3.282  0.00  0.00    +0.004 A 
ATOM     24  C   UNL     1      -6.130 -10.074   2.698  0.00  0.00    +0.048 A 
ENDBRANCH  18  19
ENDBRANCH  15  18
ENDBRANCH   4  15
BRANCH   1  25
ATOM     25  N   UNL     1      -3.039  -3.302   0.192  0.00  0.00    -0.080 NA
BRANCH  25  26
ATOM     26  S   UNL     1      -1.509  -2.667   0.175  0.00  0.00    +0.187 S 
ATOM     27  O   UNL     1      -0.898  -3.113  -1.028  0.00  0.00    -0.130 OA
ATOM     28  O   UNL     1      -0.949  -2.923   1.455  0.00  0.00    -0.130 OA
BRANCH  26  29
ATOM     29  S   UNL     1      -1.700  -0.632   0.015  0.00  0.00    +0.106 S 
ATOM     30  O   UNL     1      -2.359  -0.234   1.209  0.00  0.00    -0.151 OA
ATOM     31  O   UNL     1      -2.308  -0.423  -1.252  0.00  0.00    -0.151 OA
BRANCH  29  33
ATOM     32  C   UNL     1      -0.019   1.526   0.010  0.00  0.00    +0.033 C 
ATOM     33  C   UNL     1       0.002  -0.004   0.002  0.00  0.00    +0.150 C 
ATOM     34  C   UNL     1       0.742  -0.511   1.242  0.00  0.00    +0.033 C 
ENDBRANCH  29  33
ENDBRANCH  26  29
ENDBRANCH  25  26
ENDBRANCH   1  25
TORSDOF 8
