REMARK  Name = ZINC39337848
REMARK  6 active torsions:
REMARK  status: ('A' for Active; 'I' for Inactive)
REMARK    1  A    between atoms: C_1  and  C_2
REMARK    2  A    between atoms: C_4  and  C_7
REMARK    3  A    between atoms: C_10  and  C_33
REMARK    4  A    between atoms: C_19  and  C_21
REMARK    5  A    between atoms: C_21  and  C_22
REMARK    6  A    between atoms: C_22  and  C_23
REMARK                            x       y       z     vdW  Elec       q    Type
REMARK                         _______ _______ _______ _____ _____    ______ ____
ROOT
ATOM      1  C   UNL     1      -1.999  -3.093  -0.006  0.00  0.00    +0.050 C 
ATOM      2  N   UNL     1      -1.690  -4.272  -0.853  0.00  0.00    +0.396 N 
ATOM      3  C   UNL     1      -2.656  -4.253  -1.988  0.00  0.00    -0.053 C 
ATOM      4  C   UNL     1      -3.079  -2.776  -2.044  0.00  0.00    +0.058 C 
ATOM      5  N   UNL     1      -3.174  -2.450  -0.592  0.00  0.00    -0.306 NA
ATOM      6  C   UNL     1      -3.318  -1.013  -0.421  0.00  0.00    +0.102 C 
ATOM      7  C   UNL     1      -4.683  -0.609  -1.006  0.00  0.00    +0.123 C 
ATOM      8  N   UNL     1      -4.827  -1.152  -2.363  0.00  0.00    -0.299 N 
ATOM      9  C   UNL     1      -4.462  -2.560  -2.653  0.00  0.00    +0.125 C 
ATOM     10  C   UNL     1      -5.283  -0.367  -3.360  0.00  0.00    +0.216 C 
ATOM     11  O   UNL     1      -5.401  -0.818  -4.480  0.00  0.00    -0.276 OA
ATOM     12  C   UNL     1      -3.856  -5.155  -1.693  0.00  0.00    -0.012 C 
ATOM     13  H   UNL     1      -0.746  -4.205  -1.204  0.00  0.00    -0.083 HD
ATOM     14  H   UNL     1      -1.803  -5.120  -0.319  0.00  0.00    -0.083 HD
ENDROOT
BRANCH   1  18
ATOM     15  C   UNL     1       1.474  -0.318  -2.304  0.00  0.00    +0.073 C 
ATOM     16  C   UNL     1       0.729  -0.891  -1.126  0.00  0.00    +0.075 A 
ATOM     17  N   UNL     1      -0.283  -1.722  -1.129  0.00  0.00    -0.250 NA
ATOM     18  C   UNL     1      -0.834  -2.137  -0.006  0.00  0.00    +0.048 A 
ATOM     19  C   UNL     1      -0.303  -1.665   1.151  0.00  0.00    +0.069 A 
ATOM     20  S   UNL     1       1.001  -0.625   0.514  0.00  0.00    -0.081 S 
ENDBRANCH   1  18
BRANCH  10  21
ATOM     21  C   UNL     1      -5.645   1.069  -3.083  0.00  0.00    +0.102 C 
BRANCH  21  22
ATOM     22  C   UNL     1      -6.130   1.731  -4.375  0.00  0.00    +0.064 C 
BRANCH  22  23
ATOM     23  C   UNL     1      -6.492   3.167  -4.098  0.00  0.00    +0.040 A 
ATOM     24  C   UNL     1      -5.646   4.213  -4.094  0.00  0.00    -0.004 A 
ATOM     25  C   UNL     1      -6.385   5.369  -3.791  0.00  0.00    +0.066 A 
ATOM     26  N   UNL     1      -7.628   5.025  -3.622  0.00  0.00    -0.178 NA
ATOM     27  N   UNL     1      -7.727   3.639  -3.814  0.00  0.00    -0.281 N 
ATOM     28  H   UNL     1      -8.539   3.111  -3.752  0.00  0.00    +0.189 HD
ATOM     29  C   UNL     1      -5.773   6.746  -3.689  0.00  0.00    +0.057 C 
ATOM     30  C   UNL     1      -4.254   6.586  -3.552  0.00  0.00    +0.007 C 
ATOM     31  C   UNL     1      -3.729   5.660  -4.651  0.00  0.00    +0.005 C 
ATOM     32  C   UNL     1      -4.161   4.216  -4.361  0.00  0.00    +0.039 C 
ENDBRANCH  22  23
ENDBRANCH  21  22
ENDBRANCH  10  21
TORSDOF 4
