REMARK  Name = ZINC39716352
REMARK  7 active torsions:
REMARK  status: ('A' for Active; 'I' for Inactive)
REMARK    1  A    between atoms: C_1  and  C_2
REMARK    2  A    between atoms: C_7  and  N_25
REMARK    3  A    between atoms: C_8  and  C_13
REMARK    4  A    between atoms: N_17  and  C_21
REMARK    5  A    between atoms: C_21  and  C_22
REMARK    6  A    between atoms: C_27  and  C_34
REMARK    7  A    between atoms: C_30  and  C_33
REMARK                            x       y       z     vdW  Elec       q    Type
REMARK                         _______ _______ _______ _____ _____    ______ ____
ROOT
ATOM      1  C   UNL     1      -0.213   1.526   0.018  0.00  0.00    +0.045 C 
ATOM      2  C   UNL     1      -0.218   0.019   0.023  0.00  0.00    -0.034 A 
ATOM      3  C   UNL     1      -0.533  -0.683  -1.148  0.00  0.00    +0.008 A 
ATOM      4  C   UNL     1      -0.535  -2.046  -1.135  0.00  0.00    +0.047 A 
ATOM      5  C   UNL     1      -0.220  -2.729   0.054  0.00  0.00    +0.142 A 
ATOM      6  N   UNL     1      -0.224  -4.062   0.057  0.00  0.00    -0.214 NA
ATOM      7  C   UNL     1       0.065  -4.755   1.149  0.00  0.00    +0.136 A 
ATOM      8  C   UNL     1       0.387  -4.072   2.345  0.00  0.00    +0.081 A 
ATOM      9  C   UNL     1       0.388  -2.656   2.330  0.00  0.00    +0.267 A 
ATOM     10  O   UNL     1       0.659  -2.026   3.337  0.00  0.00    -0.267 OA
ATOM     11  N   UNL     1       0.084  -2.016   1.181  0.00  0.00    -0.267 N 
ATOM     12  C   UNL     1       0.087  -0.653   1.156  0.00  0.00    +0.099 A 
ENDROOT
BRANCH   8  13
ATOM     13  C   UNL     1       0.699  -4.785   3.526  0.00  0.00    +0.037 C 
ATOM     14  C   UNL     1      -0.128  -4.705   4.609  0.00  0.00    +0.077 C 
ATOM     15  C   UNL     1      -1.398  -4.075   4.735  0.00  0.00    +0.259 C 
ATOM     16  O   UNL     1      -1.906  -3.495   3.792  0.00  0.00    -0.269 OA
ATOM     17  N   UNL     1      -2.011  -4.137   5.904  0.00  0.00    -0.244 N 
ATOM     18  C   UNL     1      -1.448  -4.780   6.951  0.00  0.00    +0.121 C 
ATOM     19  S   UNL     1      -2.055  -4.984   8.539  0.00  0.00    -0.027 S 
ATOM     20  S   UNL     1       0.087  -5.372   6.254  0.00  0.00    -0.061 S 
BRANCH  17  21
ATOM     21  C   UNL     1      -3.320  -3.498   6.069  0.00  0.00    +0.240 C 
BRANCH  21  22
ATOM     22  C   UNL     1      -4.406  -4.485   5.726  0.00  0.00    +0.373 C 
ATOM     23  O   UNL     1      -4.115  -5.616   5.378  0.00  0.00    -0.245 OA
ATOM     24  O   UNL     1      -5.577  -4.151   5.798  0.00  0.00    -0.245 OA
ENDBRANCH  21  22
ENDBRANCH  17  21
ENDBRANCH   8  13
BRANCH   7  25
ATOM     25  N   UNL     1       0.051  -6.133   1.119  0.00  0.00    -0.310 N 
ATOM     26  C   UNL     1      -0.483  -6.910   2.249  0.00  0.00    +0.138 C 
ATOM     27  C   UNL     1      -1.488  -7.930   1.702  0.00  0.00    +0.133 C 
ATOM     28  O   UNL     1      -0.874  -8.679   0.650  0.00  0.00    -0.371 OA
ATOM     29  C   UNL     1      -0.485  -7.893  -0.479  0.00  0.00    +0.133 C 
ATOM     30  C   UNL     1       0.566  -6.871  -0.046  0.00  0.00    +0.138 C 
ATOM     31  C   UNL     1      -1.708  -7.160  -1.036  0.00  0.00    +0.039 C 
ATOM     32  C   UNL     1      -1.916  -8.878   2.824  0.00  0.00    +0.039 C 
ENDBRANCH   7  25
TORSDOF 4
