REMARK  Name = ZINC39556347
REMARK  7 active torsions:
REMARK  status: ('A' for Active; 'I' for Inactive)
REMARK    1  A    between atoms: C_1  and  C_2
REMARK    2  A    between atoms: C_2  and  N_3
REMARK    3  A    between atoms: C_7  and  C_8
REMARK    4  A    between atoms: N_10  and  C_17
REMARK    5  A    between atoms: C_17  and  C_18
REMARK    6  A    between atoms: N_20  and  C_21
REMARK    7  A    between atoms: C_21  and  C_22
REMARK                            x       y       z     vdW  Elec       q    Type
REMARK                         _______ _______ _______ _____ _____    ______ ____
ROOT
ATOM      1  C   UNL     1       3.519  -1.994   4.562  0.00  0.00    +0.002 A 
ATOM      2  C   UNL     1       2.457  -2.102   5.435  0.00  0.00    +0.095 A 
ATOM      3  N   UNL     1       2.903  -2.546   6.637  0.00  0.00    -0.337 N 
ATOM      4  C   UNL     1       4.268  -2.747   6.603  0.00  0.00    +0.050 A 
ATOM      5  C   UNL     1       4.716  -2.421   5.313  0.00  0.00    +0.007 A 
ATOM      6  C   UNL     1       6.065  -2.538   4.992  0.00  0.00    +0.010 A 
ATOM      7  C   UNL     1       6.958  -2.979   5.945  0.00  0.00    +0.001 A 
ATOM      8  C   UNL     1       6.517  -3.305   7.218  0.00  0.00    +0.002 A 
ATOM      9  C   UNL     1       5.185  -3.186   7.552  0.00  0.00    +0.026 A 
ENDROOT
BRANCH   1  14
ATOM     10  N   UNL     1       0.711  -0.489   1.189  0.00  0.00    -0.245 N 
ATOM     11  C   UNL     1       2.037  -0.730   1.274  0.00  0.00    +0.271 C 
ATOM     12  O   UNL     1       2.870  -0.591   0.395  0.00  0.00    -0.268 OA
ATOM     13  C   UNL     1       2.265  -1.196   2.649  0.00  0.00    +0.129 C 
ATOM     14  C   UNL     1       3.470  -1.566   3.212  0.00  0.00    +0.043 C 
ATOM     15  N   UNL     1       1.039  -1.187   3.257  0.00  0.00    -0.220 NA
ATOM     16  C   UNL     1       0.141  -0.771   2.404  0.00  0.00    +0.175 C 
ATOM     17  S   UNL     1      -1.575  -0.598   2.767  0.00  0.00    -0.013 SA
BRANCH  10  19
ATOM     18  C   UNL     1      -0.019   1.526   0.010  0.00  0.00    +0.025 C 
ATOM     19  C   UNL     1       0.002  -0.004   0.002  0.00  0.00    +0.112 C 
ENDBRANCH  10  19
ENDBRANCH   1  14
BRANCH   3  20
ATOM     20  C   UNL     1       2.054  -2.779   7.808  0.00  0.00    +0.217 C 
BRANCH  20  21
ATOM     21  C   UNL     1       2.069  -1.558   8.690  0.00  0.00    +0.233 C 
ATOM     22  O   UNL     1       2.725  -0.588   8.373  0.00  0.00    -0.274 OA
ATOM     23  N   UNL     1       1.355  -1.543   9.833  0.00  0.00    -0.311 N 
ATOM     24  H   UNL     1       0.830  -2.318  10.087  0.00  0.00    +0.149 HD
BRANCH  23  25
ATOM     25  C   UNL     1       1.370  -0.356  10.691  0.00  0.00    +0.135 C 
BRANCH  25  26
ATOM     26  C   UNL     1       0.483  -0.599  11.914  0.00  0.00    +0.135 C 
ATOM     27  C   UNL     1       0.396   0.688  12.762  0.00  0.00    +0.035 C 
ATOM     28  C   UNL     1       0.443   0.131  14.212  0.00  0.00    +0.031 C 
ATOM     29  C   UNL     1       1.385  -1.087  14.028  0.00  0.00    +0.160 C 
ATOM     30  O   UNL     1       1.057  -1.623  12.735  0.00  0.00    -0.375 OA
ENDBRANCH  25  26
ENDBRANCH  23  25
ENDBRANCH  20  21
ENDBRANCH   3  20
TORSDOF 6
