REMARK  Name = ZINC39693321
REMARK  12 active torsions:
REMARK  status: ('A' for Active; 'I' for Inactive)
REMARK    1  A    between atoms: C_1  and  C_2
REMARK    2  A    between atoms: C_2  and  C_3
REMARK    3  A    between atoms: C_3  and  C_4
REMARK    4  A    between atoms: C_4  and  C_5
REMARK    5  A    between atoms: C_5  and  C_7
REMARK    6  A    between atoms: C_5  and  C_8
REMARK    7  A    between atoms: C_12  and  C_21
REMARK    8  A    between atoms: N_23  and  C_24
REMARK    9  A    between atoms: C_24  and  C_25
REMARK   10  A    between atoms: C_25  and  N_26
REMARK   11  A    between atoms: C_27  and  C_29
REMARK   12  A    between atoms: C_29  and  C_30
REMARK                            x       y       z     vdW  Elec       q    Type
REMARK                         _______ _______ _______ _____ _____    ______ ____
ROOT
ATOM      1  C   UNL     1       3.505  -5.253   6.814  0.00  0.00    +0.218 C 
ATOM      2  O   UNL     1       4.619  -5.383   6.353  0.00  0.00    -0.275 OA
ATOM      3  N   UNL     1       3.315  -5.314   8.147  0.00  0.00    -0.314 N 
ATOM      4  H   UNL     1       2.424  -5.210   8.515  0.00  0.00    +0.149 HD
ENDROOT
BRANCH   1   9
ATOM      5  C   UNL     1       1.419  -4.211   2.486  0.00  0.00    +0.218 C 
ATOM      6  O   UNL     1       0.786  -4.839   1.665  0.00  0.00    -0.275 OA
ATOM      7  N   UNL     1       1.985  -4.847   3.531  0.00  0.00    -0.300 N 
ATOM      8  C   UNL     1       2.782  -4.255   4.631  0.00  0.00    +0.121 C 
ATOM      9  C   UNL     1       2.333  -5.021   5.896  0.00  0.00    +0.100 C 
ATOM     10  C   UNL     1       1.789  -6.361   5.370  0.00  0.00    -0.004 C 
ATOM     11  C   UNL     1       1.944  -6.296   3.844  0.00  0.00    +0.115 C 
ATOM     12  C   UNL     1       2.603  -7.520   5.936  0.00  0.00    -0.010 C 
ATOM     13  C   UNL     1       2.007  -8.843   5.446  0.00  0.00    -0.082 C 
ATOM     14  N   UNL     1       0.608  -8.943   5.880  0.00  0.00    +0.379 N 
ATOM     15  C   UNL     1      -0.187  -7.878   5.257  0.00  0.00    -0.082 C 
ATOM     16  C   UNL     1       0.316  -6.514   5.739  0.00  0.00    -0.010 C 
ATOM     17  H   UNL     1       0.236  -9.841   5.609  0.00  0.00    -0.086 HD
ATOM     18  H   UNL     1       0.562  -8.852   6.884  0.00  0.00    -0.086 HD
BRANCH   5  19
ATOM     19  C   UNL     1       1.573  -2.719   2.339  0.00  0.00    +0.072 C 
ATOM     20  C   UNL     1       3.058  -2.368   2.226  0.00  0.00    +0.017 C 
BRANCH  19  21
ATOM     21  C   UNL     1       0.842  -2.252   1.079  0.00  0.00    +0.012 C 
BRANCH  21  22
ATOM     22  C   UNL     1       0.892  -0.725   0.996  0.00  0.00    +0.000 C 
BRANCH  22  24
ATOM     23  C   UNL     1       0.210   1.268  -0.346  0.00  0.00    +0.004 C 
ATOM     24  C   UNL     1       0.160  -0.259  -0.264  0.00  0.00    -0.003 C 
ENDBRANCH  22  24
ENDBRANCH  21  22
ENDBRANCH  19  21
ENDBRANCH   5  19
ENDBRANCH   1   9
BRANCH   3  25
ATOM     25  C   UNL     1       4.455  -5.539   9.039  0.00  0.00    +0.123 C 
BRANCH  25  26
ATOM     26  C   UNL     1       3.969  -5.566  10.490  0.00  0.00    +0.123 C 
BRANCH  26  27
ATOM     27  N   UNL     1       5.109  -5.790  11.383  0.00  0.00    -0.314 N 
ATOM     28  C   UNL     1       4.919  -5.852  12.716  0.00  0.00    +0.217 C 
ATOM     29  O   UNL     1       3.804  -5.721  13.176  0.00  0.00    -0.275 OA
ATOM     30  H   UNL     1       6.000  -5.895  11.014  0.00  0.00    +0.149 HD
BRANCH  28  31
ATOM     31  C   UNL     1       6.091  -6.083  13.634  0.00  0.00    +0.131 C 
BRANCH  31  32
ATOM     32  C   UNL     1       5.612  -6.109  15.062  0.00  0.00    -0.031 A 
ATOM     33  C   UNL     1       5.654  -4.978  15.819  0.00  0.00    +0.005 A 
ATOM     34  C   UNL     1       5.216  -4.983  17.141  0.00  0.00    +0.001 A 
ATOM     35  C   UNL     1       4.734  -6.120  17.716  0.00  0.00    +0.008 A 
ATOM     36  C   UNL     1       4.676  -7.307  16.967  0.00  0.00    -0.018 A 
ATOM     37  C   UNL     1       5.116  -7.300  15.619  0.00  0.00    -0.014 A 
ATOM     38  C   UNL     1       5.052  -8.486  14.868  0.00  0.00    +0.009 A 
ATOM     39  C   UNL     1       4.565  -9.621  15.441  0.00  0.00    +0.001 A 
ATOM     40  C   UNL     1       4.127  -9.625  16.764  0.00  0.00    +0.001 A 
ATOM     41  C   UNL     1       4.186  -8.499  17.526  0.00  0.00    +0.008 A 
ENDBRANCH  31  32
ENDBRANCH  28  31
ENDBRANCH  26  27
ENDBRANCH  25  26
ENDBRANCH   3  25
TORSDOF 10
