REMARK  Name = ZINC15134067
REMARK  5 active torsions:
REMARK  status: ('A' for Active; 'I' for Inactive)
REMARK    1  A    between atoms: C_1  and  C_2
REMARK    2  A    between atoms: C_5  and  N_8
REMARK    3  A    between atoms: C_12  and  N_13
REMARK    4  A    between atoms: N_13  and  C_14
REMARK    5  A    between atoms: C_24  and  C_26
REMARK                            x       y       z     vdW  Elec       q    Type
REMARK                         _______ _______ _______ _____ _____    ______ ____
ROOT
ATOM      1  N   UNL     1       0.058  -4.171  -0.021  0.00  0.00    -0.156 N 
ATOM      2  C   UNL     1       0.069  -4.949   1.080  0.00  0.00    +0.273 C 
ATOM      3  O   UNL     1       0.064  -4.577   2.242  0.00  0.00    -0.268 OA
ATOM      4  C   UNL     1       0.086  -6.336   0.597  0.00  0.00    +0.075 C 
ATOM      5  C   UNL     1       0.101  -7.494   1.356  0.00  0.00    +0.087 C 
ATOM      6  C   UNL     1       0.084  -6.227  -0.870  0.00  0.00    +0.070 C 
ATOM      7  N   UNL     1       0.062  -4.964  -1.168  0.00  0.00    -0.176 NA
ATOM      8  C   UNL     1       0.099  -7.373  -1.848  0.00  0.00    +0.068 C 
ENDROOT
BRANCH   1  13
ATOM      9  C   UNL     1      -0.018   1.503   0.010  0.00  0.00    +0.044 C 
ATOM     10  C   UNL     1       0.002  -0.004   0.002  0.00  0.00    -0.050 A 
ATOM     11  C   UNL     1       0.006  -0.687  -1.200  0.00  0.00    +0.005 A 
ATOM     12  C   UNL     1       0.024  -2.068  -1.211  0.00  0.00    +0.026 A 
ATOM     13  C   UNL     1       0.040  -2.771  -0.013  0.00  0.00    +0.060 A 
ATOM     14  C   UNL     1       0.036  -2.081   1.192  0.00  0.00    +0.026 A 
ATOM     15  C   UNL     1       0.023  -0.700   1.197  0.00  0.00    +0.005 A 
ENDBRANCH   1  13
BRANCH   5  16
ATOM     16  N   UNL     1       0.100  -7.417   2.704  0.00  0.00    -0.319 N 
ATOM     17  H   UNL     1       0.090  -6.551   3.140  0.00  0.00    +0.152 HD
BRANCH  16  18
ATOM     18  C   UNL     1       0.115  -8.582   3.469  0.00  0.00    +0.039 A 
ATOM     19  C   UNL     1       0.136  -9.817   2.855  0.00  0.00    +0.024 A 
ATOM     20  C   UNL     1       0.150 -10.986   3.609  0.00  0.00    +0.002 A 
ATOM     21  C   UNL     1       0.144 -10.945   4.970  0.00  0.00    +0.008 A 
ATOM     22  C   UNL     1       0.123  -9.707   5.635  0.00  0.00    -0.016 A 
ATOM     23  C   UNL     1       0.115  -8.509   4.878  0.00  0.00    +0.003 A 
ATOM     24  C   UNL     1       0.099  -7.274   5.544  0.00  0.00    +0.010 A 
ATOM     25  C   UNL     1       0.099  -7.241   6.905  0.00  0.00    +0.001 A 
ATOM     26  C   UNL     1       0.114  -8.419   7.650  0.00  0.00    +0.001 A 
ATOM     27  C   UNL     1       0.116  -9.635   7.039  0.00  0.00    +0.008 A 
ENDBRANCH  16  18
ENDBRANCH   5  16
TORSDOF 3
