REMARK  Name = ZINC63827630
REMARK  8 active torsions:
REMARK  status: ('A' for Active; 'I' for Inactive)
REMARK    1  A    between atoms: C_1  and  C_2
REMARK    2  A    between atoms: C_4  and  S_9
REMARK    3  A    between atoms: C_5  and  C_8
REMARK    4  A    between atoms: S_9  and  N_12
REMARK    5  A    between atoms: C_15  and  C_18
REMARK    6  A    between atoms: N_20  and  C_21
REMARK    7  A    between atoms: C_21  and  C_22
REMARK    8  A    between atoms: C_22  and  C_23
REMARK                            x       y       z     vdW  Elec       q    Type
REMARK                         _______ _______ _______ _____ _____    ______ ____
ROOT
ATOM      1  N   UNL     1       0.692   1.342  -3.251  0.00  0.00    -0.177 NA
ATOM      2  C   UNL     1      -0.267   2.433  -3.032  0.00  0.00    +0.110 C 
ATOM      3  C   UNL     1      -0.416   3.227  -4.334  0.00  0.00    +0.030 C 
ATOM      4  C   UNL     1       0.964   3.688  -4.807  0.00  0.00    +0.077 C 
ATOM      5  C   UNL     1       1.845   2.468  -5.084  0.00  0.00    +0.030 C 
ATOM      6  C   UNL     1       2.022   1.666  -3.785  0.00  0.00    +0.110 C 
ENDROOT
BRANCH   4   7
ATOM      7  C   UNL     1       0.817   4.498  -6.069  0.00  0.00    +0.216 C 
ATOM      8  O   UNL     1      -0.283   4.688  -6.544  0.00  0.00    -0.276 OA
ATOM      9  N   UNL     1       1.908   5.013  -6.670  0.00  0.00    -0.315 N 
ATOM     10  H   UNL     1       2.788   4.861  -6.291  0.00  0.00    +0.149 HD
BRANCH   9  11
ATOM     11  C   UNL     1       1.766   5.800  -7.898  0.00  0.00    +0.108 C 
BRANCH  11  12
ATOM     12  C   UNL     1       3.146   6.262  -8.371  0.00  0.00    +0.052 C 
BRANCH  12  13
ATOM     13  C   UNL     1       2.999   7.072  -9.633  0.00  0.00    -0.040 C 
ATOM     14  C   UNL     1       2.920   8.418  -9.730  0.00  0.00    -0.001 A 
ATOM     15  C   UNL     1       2.944   9.491  -8.729  0.00  0.00    +0.010 A 
ATOM     16  C   UNL     1       2.842  10.775  -9.140  0.00  0.00    +0.001 A 
ATOM     17  C   UNL     1       2.713  11.107 -10.496  0.00  0.00    +0.002 A 
ATOM     18  C   UNL     1       2.683  10.177 -11.474  0.00  0.00    +0.026 A 
ATOM     19  C   UNL     1       2.783   8.795 -11.155  0.00  0.00    +0.043 A 
ATOM     20  N   UNL     1       2.778   7.723 -11.910  0.00  0.00    -0.380 N 
ATOM     21  C   UNL     1       2.917   6.544 -11.048  0.00  0.00    +0.144 C 
ATOM     22  H   UNL     1       2.700   7.711 -12.877  0.00  0.00    +0.160 HD
ENDBRANCH  12  13
ENDBRANCH  11  12
ENDBRANCH   9  11
ENDBRANCH   4   7
BRANCH   1  23
ATOM     23  S   UNL     1       0.284  -0.224  -2.897  0.00  0.00    +0.061 S 
ATOM     24  O   UNL     1       1.123  -1.052  -3.691  0.00  0.00    -0.153 OA
ATOM     25  O   UNL     1      -1.134  -0.297  -2.954  0.00  0.00    -0.153 OA
BRANCH  23  28
ATOM     26  C   UNL     1      -0.019   1.526   0.010  0.00  0.00    +0.047 C 
ATOM     27  C   UNL     1       0.002  -0.004   0.002  0.00  0.00    +0.196 C 
ATOM     28  C   UNL     1       0.735  -0.512  -1.218  0.00  0.00    +0.134 C 
ATOM     29  C   UNL     1       1.772  -1.208  -0.801  0.00  0.00    +0.061 C 
ATOM     30  N   UNL     1       1.832  -1.235   0.581  0.00  0.00    -0.268 N 
ATOM     31  O   UNL     1       0.748  -0.498   1.124  0.00  0.00    -0.265 OA
ATOM     32  C   UNL     1       2.763  -1.888  -1.710  0.00  0.00    +0.067 C 
ATOM     33  H   UNL     1       2.513  -1.690   1.100  0.00  0.00    +0.194 HD
ENDBRANCH  23  28
ENDBRANCH   1  23
TORSDOF 6
