REMARK  Name = ZINC19943536
REMARK  11 active torsions:
REMARK  status: ('A' for Active; 'I' for Inactive)
REMARK    1  A    between atoms: C_1  and  C_2
REMARK    2  A    between atoms: C_2  and  O_3
REMARK    3  A    between atoms: O_3  and  C_4
REMARK    4  A    between atoms: C_4  and  C_6
REMARK    5  A    between atoms: C_8  and  C_27
REMARK    6  A    between atoms: C_10  and  C_25
REMARK    7  A    between atoms: C_11  and  S_16
REMARK    8  A    between atoms: C_13  and  C_14
REMARK    9  A    between atoms: C_13  and  O_15
REMARK   10  A    between atoms: S_16  and  C_17
REMARK   11  A    between atoms: C_17  and  C_18
REMARK                            x       y       z     vdW  Elec       q    Type
REMARK                         _______ _______ _______ _____ _____    ______ ____
ROOT
ATOM      1  C   UNL     1       1.085   3.603   0.500  0.00  0.00    +0.160 C 
ATOM      2  C   UNL     1       1.289   2.171   0.001  0.00  0.00    +0.087 C 
ATOM      3  C   UNL     1      -0.017   1.428   0.010  0.00  0.00    +0.065 C 
ATOM      4  C   UNL     1      -1.216   2.067   0.019  0.00  0.00    +0.078 C 
ATOM      5  N   UNL     1      -1.295   3.440   0.044  0.00  0.00    -0.310 N 
ATOM      6  C   UNL     1      -0.092   4.227  -0.261  0.00  0.00    +0.142 C 
ATOM      7  C   UNL     1      -0.292   5.675   0.191  0.00  0.00    +0.064 C 
ATOM      8  H   UNL     1      -2.239   3.950   0.286  0.00  0.00    +0.149 HD
ENDROOT
BRANCH   2   9
ATOM      9  C   UNL     1       2.271   1.464   0.899  0.00  0.00    -0.001 A 
ATOM     10  C   UNL     1       3.474   0.922   0.590  0.00  0.00    +0.012 A 
ATOM     11  C   UNL     1       4.214   0.317   1.588  0.00  0.00    +0.008 A 
ATOM     12  C   UNL     1       3.715   0.283   2.848  0.00  0.00    +0.045 A 
ATOM     13  S   UNL     1       2.156   1.131   2.650  0.00  0.00    -0.101 S 
ENDBRANCH   2   9
BRANCH   1  14
ATOM     14  C   UNL     1       2.334   4.409   0.249  0.00  0.00    +0.316 C 
ATOM     15  O   UNL     1       3.291   3.891  -0.276  0.00  0.00    -0.250 OA
BRANCH  14  16
ATOM     16  O   UNL     1       2.382   5.701   0.608  0.00  0.00    -0.465 OA
BRANCH  16  18
ATOM     17  C   UNL     1       3.484   7.863   0.811  0.00  0.00    +0.048 C 
ATOM     18  C   UNL     1       3.617   6.415   0.336  0.00  0.00    +0.229 C 
ENDBRANCH  16  18
ENDBRANCH  14  16
ENDBRANCH   1  14
BRANCH   6  19
ATOM     19  O   UNL     1       0.167   4.191  -1.666  0.00  0.00    -0.371 OA
ATOM     20  H   UNL     1      -0.572   4.597  -2.373  0.00  0.00    +0.212 HD
ENDBRANCH   6  19
BRANCH   3  21
ATOM     21  C   UNL     1       0.002  -0.004   0.002  0.00  0.00    +0.098 C 
ATOM     22  N   UNL     1       0.018  -1.140  -0.004  0.00  0.00    -0.191 NA
ENDBRANCH   3  21
BRANCH   4  23
ATOM     23  S   UNL     1      -2.700   1.117   0.007  0.00  0.00    -0.105 S 
BRANCH  23  24
ATOM     24  C   UNL     1      -3.925   2.449   0.026  0.00  0.00    +0.110 C 
BRANCH  24  25
ATOM     25  C   UNL     1      -5.311   1.857   0.019  0.00  0.00    -0.037 A 
ATOM     26  C   UNL     1      -5.949   1.607  -1.182  0.00  0.00    +0.006 A 
ATOM     27  C   UNL     1      -7.218   1.058  -1.189  0.00  0.00    +0.020 A 
ATOM     28  C   UNL     1      -7.854   0.770   0.005  0.00  0.00    +0.041 A 
ATOM     29  C   UNL     1      -7.217   1.026   1.206  0.00  0.00    +0.020 A 
ATOM     30  C   UNL     1      -5.946   1.569   1.212  0.00  0.00    +0.006 A 
ATOM     31 CL   UNL     1      -9.450   0.088  -0.003  0.00  0.00    -0.084 Cl
ENDBRANCH  24  25
ENDBRANCH  23  24
ENDBRANCH   4  23
TORSDOF 9
