REMARK  Name = ZINC13017218
REMARK  10 active torsions:
REMARK  status: ('A' for Active; 'I' for Inactive)
REMARK    1  A    between atoms: C_1  and  C_2
REMARK    2  A    between atoms: C_2  and  O_3
REMARK    3  A    between atoms: O_3  and  C_4
REMARK    4  A    between atoms: C_4  and  C_6
REMARK    5  A    between atoms: C_9  and  N_12
REMARK    6  A    between atoms: C_13  and  C_15
REMARK    7  A    between atoms: C_15  and  C_16
REMARK    8  A    between atoms: N_20  and  C_31
REMARK    9  A    between atoms: N_22  and  N_23
REMARK   10  A    between atoms: C_31  and  C_32
REMARK                            x       y       z     vdW  Elec       q    Type
REMARK                         _______ _______ _______ _____ _____    ______ ____
ROOT
ATOM      1  C   UNL     1      -1.097  10.499  -0.248  0.00  0.00    +0.149 C 
ATOM      2  C   UNL     1      -1.080  12.017  -0.327  0.00  0.00    +0.235 C 
ATOM      3  O   UNL     1      -0.629  12.703   0.567  0.00  0.00    -0.274 OA
ATOM      4  N   UNL     1      -1.587  12.542  -1.430  0.00  0.00    -0.241 N 
ATOM      5  C   UNL     1      -2.102  11.764  -2.449  0.00  0.00    +0.186 C 
ATOM      6  N   UNL     1      -2.628  12.159  -3.584  0.00  0.00    -0.125 NA
ATOM      7  S   UNL     1      -1.881  10.092  -1.859  0.00  0.00    -0.075 S 
ENDROOT
BRANCH   6   8
ATOM      8  N   UNL     1      -3.101  11.214  -4.503  0.00  0.00    -0.135 NA
ATOM      9  C   UNL     1      -3.623  11.605  -5.628  0.00  0.00    +0.135 C 
ATOM     10  C   UNL     1      -4.154  10.630  -6.667  0.00  0.00    +0.152 C 
ATOM     11  S   UNL     1      -4.725  11.807  -7.955  0.00  0.00    -0.060 S 
ATOM     12  C   UNL     1      -4.274  13.323  -7.128  0.00  0.00    +0.277 C 
ATOM     13  O   UNL     1      -4.422  14.463  -7.526  0.00  0.00    -0.263 OA
ATOM     14  N   UNL     1      -3.740  12.919  -5.962  0.00  0.00    -0.263 N 
ATOM     15  H   UNL     1      -3.423  13.590  -5.337  0.00  0.00    +0.157 HD
ENDBRANCH   6   8
BRANCH   1  16
ATOM     16  C   UNL     1       0.321   9.932  -0.164  0.00  0.00    +0.120 C 
BRANCH  16  18
ATOM     17  N   UNL     1       1.393   7.712   0.030  0.00  0.00    -0.285 N 
ATOM     18  C   UNL     1       0.257   8.430  -0.057  0.00  0.00    +0.219 C 
ATOM     19  O   UNL     1      -0.818   7.869  -0.050  0.00  0.00    -0.275 OA
ATOM     20  H   UNL     1       2.249   8.163   0.101  0.00  0.00    +0.155 HD
BRANCH  17  24
ATOM     21  C   UNL     1       1.233   3.549  -0.009  0.00  0.00    +0.059 A 
ATOM     22  C   UNL     1       2.207   4.206   0.749  0.00  0.00    +0.017 A 
ATOM     23  C   UNL     1       2.261   5.582   0.755  0.00  0.00    +0.024 A 
ATOM     24  C   UNL     1       1.340   6.319   0.017  0.00  0.00    +0.033 A 
ATOM     25  C   UNL     1       0.365   5.668  -0.734  0.00  0.00    +0.024 A 
ATOM     26  C   UNL     1       0.310   4.293  -0.750  0.00  0.00    +0.017 A 
BRANCH  21  27
ATOM     27  C   UNL     1       1.177   2.076  -0.022  0.00  0.00    +0.339 C 
ATOM     28  O   UNL     1       0.327   1.507  -0.678  0.00  0.00    -0.245 OA
BRANCH  27  29
ATOM     29  O   UNL     1       2.068   1.361   0.692  0.00  0.00    -0.461 OA
BRANCH  29  31
ATOM     30  C   UNL     1       3.041  -0.721   1.499  0.00  0.00    +0.048 C 
ATOM     31  C   UNL     1       1.952  -0.085   0.632  0.00  0.00    +0.229 C 
ENDBRANCH  29  31
ENDBRANCH  27  29
ENDBRANCH  21  27
ENDBRANCH  17  24
ENDBRANCH  16  18
ENDBRANCH   1  16
BRANCH   4  32
ATOM     32  C   UNL     1      -1.603  14.000  -1.576  0.00  0.00    +0.189 C 
BRANCH  32  33
ATOM     33  C   UNL     1      -2.891  14.546  -1.014  0.00  0.00    +0.123 A 
ATOM     34  C   UNL     1      -3.092  14.935   0.258  0.00  0.00    +0.046 A 
ATOM     35  C   UNL     1      -4.433  15.376   0.344  0.00  0.00    +0.041 A 
ATOM     36  C   UNL     1      -4.970  15.230  -0.881  0.00  0.00    +0.195 A 
ATOM     37  O   UNL     1      -4.030  14.733  -1.701  0.00  0.00    -0.466 OA
ENDBRANCH  32  33
ENDBRANCH   4  32
TORSDOF 9
