REMARK  Name = ZINC14459686
REMARK  6 active torsions:
REMARK  status: ('A' for Active; 'I' for Inactive)
REMARK    1  A    between atoms: C_1  and  O_2
REMARK    2  A    between atoms: O_2  and  C_3
REMARK    3  A    between atoms: C_7  and  C_10
REMARK    4  A    between atoms: C_8  and  O_9
REMARK    5  A    between atoms: C_21  and  S_26
REMARK    6  A    between atoms: S_26  and  N_29
REMARK                            x       y       z     vdW  Elec       q    Type
REMARK                         _______ _______ _______ _____ _____    ______ ____
ROOT
ATOM      1  C   UNL     1       1.899   9.277   1.801  0.00  0.00    +0.109 C 
ATOM      2  C   UNL     1       3.245   8.843   1.251  0.00  0.00    +0.029 C 
ATOM      3  C   UNL     1       4.494   9.298   2.018  0.00  0.00    +0.033 C 
ATOM      4  C   UNL     1       5.475   8.164   1.711  0.00  0.00    -0.030 C 
ATOM      5  C   UNL     1       4.808   7.049   1.440  0.00  0.00    -0.023 C 
ATOM      6  C   UNL     1       3.353   7.321   1.571  0.00  0.00    +0.049 C 
ATOM      7  C   UNL     1       2.348   6.613   0.750  0.00  0.00    -0.018 A 
ATOM      8  C   UNL     1       2.565   5.352   0.239  0.00  0.00    +0.034 A 
ATOM      9  C   UNL     1       1.581   4.718  -0.496  0.00  0.00    +0.106 A 
ATOM     10  C   UNL     1       0.373   5.352  -0.726  0.00  0.00    +0.030 A 
ATOM     11  C   UNL     1       0.147   6.615  -0.220  0.00  0.00    +0.025 A 
ATOM     12  C   UNL     1       1.132   7.264   0.515  0.00  0.00    +0.031 A 
ATOM     13  N   UNL     1       0.888   8.556   0.996  0.00  0.00    -0.336 N 
ATOM     14  H   UNL     1       0.042   8.987   0.797  0.00  0.00    +0.147 HD
ENDROOT
BRANCH   1  19
ATOM     15  C   UNL     1       2.094  13.003   2.438  0.00  0.00    +0.162 A 
ATOM     16  C   UNL     1       1.402  13.502   1.346  0.00  0.00    +0.049 A 
ATOM     17  C   UNL     1       0.875  12.635   0.407  0.00  0.00    +0.004 A 
ATOM     18  C   UNL     1       1.040  11.270   0.553  0.00  0.00    +0.009 A 
ATOM     19  C   UNL     1       1.724  10.766   1.643  0.00  0.00    +0.018 A 
ATOM     20  C   UNL     1       2.256  11.629   2.587  0.00  0.00    +0.163 A 
BRANCH  15  22
ATOM     21  C   UNL     1       2.408  15.252   3.145  0.00  0.00    +0.277 C 
ATOM     22  O   UNL     1       2.613  13.855   3.362  0.00  0.00    -0.491 OA
ENDBRANCH  15  22
BRANCH  20  23
ATOM     23  O   UNL     1       2.934  11.135   3.658  0.00  0.00    -0.503 OA
ATOM     24  H   UNL     1       3.884  11.032   3.507  0.00  0.00    +0.292 HD
ENDBRANCH  20  23
ENDBRANCH   1  19
BRANCH   9  25
ATOM     25  S   UNL     1       1.867   3.105  -1.146  0.00  0.00    +0.061 S 
ATOM     26  O   UNL     1       3.276   2.956  -1.258  0.00  0.00    -0.153 OA
ATOM     27  O   UNL     1       0.994   2.954  -2.257  0.00  0.00    -0.153 OA
BRANCH  25  28
ATOM     28  N   UNL     1       1.366   2.019  -0.000  0.00  0.00    -0.177 NA
ATOM     29  C   UNL     1      -0.019   1.528   0.010  0.00  0.00    +0.109 C 
ATOM     30  C   UNL     1       0.002  -0.004   0.002  0.00  0.00    +0.017 C 
ATOM     31  C   UNL     1       0.856  -0.505   1.169  0.00  0.00    +0.003 C 
ATOM     32  C   UNL     1       2.292  -0.002   1.006  0.00  0.00    +0.017 C 
ATOM     33  C   UNL     1       2.297   1.530   1.025  0.00  0.00    +0.109 C 
ENDBRANCH  25  28
ENDBRANCH   9  25
TORSDOF 5
