REMARK  Name = ZINC20852200
REMARK  7 active torsions:
REMARK  status: ('A' for Active; 'I' for Inactive)
REMARK    1  A    between atoms: C_3  and  C_10
REMARK    2  A    between atoms: C_5  and  N_7
REMARK    3  A    between atoms: N_12  and  N_13
REMARK    4  A    between atoms: C_14  and  C_16
REMARK    5  A    between atoms: C_16  and  S_17
REMARK    6  A    between atoms: S_17  and  C_18
REMARK    7  A    between atoms: N_20  and  C_24
REMARK                            x       y       z     vdW  Elec       q    Type
REMARK                         _______ _______ _______ _____ _____    ______ ____
ROOT
ATOM      1  N   UNL     1       1.069   7.414   0.028  0.00  0.00    -0.233 N 
ATOM      2  C   UNL     1       2.227   8.103   0.020  0.00  0.00    +0.239 C 
ATOM      3  O   UNL     1       3.285   7.511   0.007  0.00  0.00    -0.273 OA
ATOM      4  H   UNL     1       0.109   7.951   0.040  0.00  0.00    +0.173 HD
ENDROOT
BRANCH   1   7
ATOM      5  C   UNL     1      -0.070   5.323   0.030  0.00  0.00    +0.260 C 
ATOM      6  O   UNL     1      -1.131   5.916   0.043  0.00  0.00    -0.269 OA
ATOM      7  N   UNL     1       1.088   6.013   0.022  0.00  0.00    -0.230 N 
ATOM      8  H   UNL     1       2.048   5.476   0.009  0.00  0.00    +0.173 HD
BRANCH   5  11
ATOM      9  C   UNL     1       1.178   1.781   0.000  0.00  0.00    +0.003 A 
ATOM     10  C   UNL     1       1.166   3.160   0.007  0.00  0.00    +0.013 A 
ATOM     11  C   UNL     1      -0.050   3.845   0.023  0.00  0.00    +0.040 A 
ATOM     12  C   UNL     1      -1.248   3.127   0.031  0.00  0.00    +0.045 A 
ATOM     13  C   UNL     1      -1.222   1.748   0.017  0.00  0.00    +0.127 A 
ATOM     14  C   UNL     1      -0.013   1.076   0.008  0.00  0.00    +0.033 A 
BRANCH  13  15
ATOM     15  N   UNL     1      -2.491   0.986   0.019  0.00  0.00    +0.056 N 
ATOM     16  O   UNL     1      -2.470  -0.232   0.013  0.00  0.00    -0.126 OA
ATOM     17  O   UNL     1      -3.556   1.577   0.028  0.00  0.00    -0.126 OA
ENDBRANCH  13  15
ENDBRANCH   5  11
ENDBRANCH   1   7
BRANCH   2  18
ATOM     18  C   UNL     1       2.206   9.610   0.028  0.00  0.00    +0.173 C 
BRANCH  18  19
ATOM     19  S   UNL     1       3.904  10.237   0.014  0.00  0.00    -0.088 S 
BRANCH  19  20
ATOM     20  C   UNL     1       3.591  11.970   0.025  0.00  0.00    +0.158 A 
ATOM     21  N   UNL     1       4.445  12.962   0.026  0.00  0.00    -0.151 NA
ATOM     22  N   UNL     1       4.002  14.265   0.031  0.00  0.00    -0.217 N 
ATOM     23  C   UNL     1       2.665  14.497   0.046  0.00  0.00    +0.150 A 
ATOM     24  S   UNL     1       1.821  15.986   0.062  0.00  0.00    -0.023 S 
ATOM     25  S   UNL     1       2.025  12.830   0.045  0.00  0.00    -0.034 S 
BRANCH  22  26
ATOM     26  C   UNL     1       4.911  15.328   0.027  0.00  0.00    +0.067 A 
ATOM     27  C   UNL     1       4.611  16.498  -0.659  0.00  0.00    +0.029 A 
ATOM     28  C   UNL     1       5.507  17.548  -0.657  0.00  0.00    +0.022 A 
ATOM     29  C   UNL     1       6.710  17.432   0.018  0.00  0.00    +0.041 A 
ATOM     30  C   UNL     1       7.015  16.265   0.697  0.00  0.00    +0.022 A 
ATOM     31  C   UNL     1       6.119  15.214   0.703  0.00  0.00    +0.029 A 
ATOM     32 CL   UNL     1       7.838  18.751   0.012  0.00  0.00    -0.084 Cl
ENDBRANCH  22  26
ENDBRANCH  19  20
ENDBRANCH  18  19
ENDBRANCH   2  18
TORSDOF 7
