REMARK  Name = ZINC39664683
REMARK  9 active torsions:
REMARK  status: ('A' for Active; 'I' for Inactive)
REMARK    1  A    between atoms: C_1  and  C_2
REMARK    2  A    between atoms: C_2  and  C_3
REMARK    3  A    between atoms: C_7  and  C_16
REMARK    4  A    between atoms: N_18  and  C_19
REMARK    5  A    between atoms: C_19  and  C_21
REMARK    6  A    between atoms: C_19  and  C_25
REMARK    7  A    between atoms: C_21  and  N_22
REMARK    8  A    between atoms: N_22  and  C_23
REMARK    9  A    between atoms: N_22  and  C_24
REMARK                            x       y       z     vdW  Elec       q    Type
REMARK                         _______ _______ _______ _____ _____    ______ ____
ROOT
ATOM      1  C   UNL     1      -0.343  -0.426   1.002  0.00  0.00    +0.215 C 
ATOM      2  O   UNL     1      -0.029   0.424   1.808  0.00  0.00    -0.276 OA
ATOM      3  N   UNL     1      -0.061  -1.722   1.245  0.00  0.00    -0.300 N 
ATOM      4  C   UNL     1      -0.356  -2.893   0.386  0.00  0.00    +0.121 C 
ATOM      5  C   UNL     1       0.890  -3.797   0.516  0.00  0.00    +0.100 C 
ATOM      6  C   UNL     1       1.522  -3.403   1.862  0.00  0.00    -0.004 C 
ATOM      7  C   UNL     1       0.621  -2.297   2.430  0.00  0.00    +0.115 C 
ATOM      8  C   UNL     1       2.933  -2.865   1.646  0.00  0.00    -0.010 C 
ATOM      9  C   UNL     1       3.562  -2.534   3.002  0.00  0.00    -0.082 C 
ATOM     10  N   UNL     1       3.598  -3.743   3.835  0.00  0.00    +0.379 N 
ATOM     11  C   UNL     1       2.232  -4.200   4.115  0.00  0.00    -0.082 C 
ATOM     12  C   UNL     1       1.547  -4.601   2.805  0.00  0.00    -0.010 C 
ATOM     13  H   UNL     1       4.101  -4.469   3.348  0.00  0.00    -0.086 HD
ATOM     14  H   UNL     1       4.067  -3.537   4.704  0.00  0.00    -0.086 HD
ENDROOT
BRANCH   5  15
ATOM     15  C   UNL     1       0.486  -5.248   0.528  0.00  0.00    +0.219 C 
ATOM     16  O   UNL     1      -0.575  -5.579   1.015  0.00  0.00    -0.275 OA
ATOM     17  N   UNL     1       1.303  -6.180  -0.002  0.00  0.00    -0.310 N 
ATOM     18  H   UNL     1       2.184  -5.928  -0.319  0.00  0.00    +0.149 HD
BRANCH  17  19
ATOM     19  C   UNL     1       0.861  -7.573  -0.098  0.00  0.00    +0.087 C 
BRANCH  19  20
ATOM     20  C   UNL     1       2.062  -8.484  -0.083  0.00  0.00    -0.029 A 
ATOM     21  C   UNL     1       3.207  -8.129  -0.772  0.00  0.00    +0.005 A 
ATOM     22  C   UNL     1       4.308  -8.964  -0.758  0.00  0.00    +0.000 A 
ATOM     23  C   UNL     1       4.265 -10.154  -0.055  0.00  0.00    +0.000 A 
ATOM     24  C   UNL     1       3.120 -10.508   0.634  0.00  0.00    +0.000 A 
ATOM     25  C   UNL     1       2.020  -9.671   0.624  0.00  0.00    +0.005 A 
ENDBRANCH  19  20
BRANCH  19  26
ATOM     26  C   UNL     1       0.086  -7.773  -1.402  0.00  0.00    -0.052 C 
BRANCH  26  27
ATOM     27  N   UNL     1      -0.473  -9.131  -1.436  0.00  0.00    +0.377 N 
ATOM     28  C   UNL     1      -1.490  -9.270  -0.385  0.00  0.00    -0.097 C 
ATOM     29  C   UNL     1      -1.088  -9.375  -2.748  0.00  0.00    -0.097 C 
ATOM     30  H   UNL     1       0.265  -9.802  -1.281  0.00  0.00    -0.083 HD
ENDBRANCH  26  27
ENDBRANCH  19  26
ENDBRANCH  17  19
ENDBRANCH   5  15
BRANCH   1  32
ATOM     31  C   UNL     1      -1.246   1.482  -0.298  0.00  0.00    +0.013 C 
ATOM     32  C   UNL     1      -1.048  -0.035  -0.271  0.00  0.00    +0.092 C 
ENDBRANCH   1  32
TORSDOF 6
