REMARK  Name = ZINC07758539
REMARK  5 active torsions:
REMARK  status: ('A' for Active; 'I' for Inactive)
REMARK    1  A    between atoms: C_1  and  C_2
REMARK    2  A    between atoms: C_2  and  C_3
REMARK    3  A    between atoms: C_13  and  C_15
REMARK    4  A    between atoms: C_15  and  C_17
REMARK    5  A    between atoms: C_15  and  N_18
REMARK                            x       y       z     vdW  Elec       q    Type
REMARK                         _______ _______ _______ _____ _____    ______ ____
ROOT
ATOM      1  C   UNL     1      -6.246  -4.941   6.689  0.00  0.00    -0.046 A 
ATOM      2  C   UNL     1      -5.590  -3.719   6.725  0.00  0.00    +0.006 A 
ATOM      3  C   UNL     1      -4.734  -3.336   5.726  0.00  0.00    +0.029 A 
ATOM      4  C   UNL     1      -4.491  -4.183   4.619  0.00  0.00    +0.080 A 
ATOM      5  C   UNL     1      -5.176  -5.419   4.617  0.00  0.00    +0.041 A 
ATOM      6  C   UNL     1      -6.032  -5.793   5.622  0.00  0.00    +0.021 A 
ATOM      7  S   UNL     1      -4.617  -6.157   3.100  0.00  0.00    -0.052 S 
ATOM      8  C   UNL     1      -3.539  -4.828   2.587  0.00  0.00    +0.165 A 
ATOM      9  N   UNL     1      -3.683  -3.959   3.560  0.00  0.00    -0.225 NA
ATOM     10  N   UNL     1      -2.755  -4.736   1.449  0.00  0.00    -0.263 N 
ATOM     11  C   UNL     1      -2.006  -3.636   1.234  0.00  0.00    +0.239 C 
ATOM     12  O   UNL     1      -2.019  -2.727   2.037  0.00  0.00    -0.273 OA
ATOM     13  H   UNL     1      -2.745  -5.462   0.806  0.00  0.00    +0.157 HD
ENDROOT
BRANCH   1  15
ATOM     14  C   UNL     1      -6.402  -6.079   8.887  0.00  0.00    +0.009 C 
ATOM     15  C   UNL     1      -7.183  -5.335   7.802  0.00  0.00    +0.032 C 
ENDBRANCH   1  15
BRANCH  11  16
ATOM     16  C   UNL     1      -1.153  -3.535  -0.005  0.00  0.00    +0.168 C 
ATOM     17  C   UNL     1      -2.043  -3.625  -1.246  0.00  0.00    +0.038 C 
BRANCH  16  18
ATOM     18  N   UNL     1      -0.442  -2.255  -0.005  0.00  0.00    -0.222 N 
ATOM     19  C   UNL     1      -1.042  -1.051   0.007  0.00  0.00    +0.254 C 
ATOM     20  O   UNL     1      -2.240  -0.856   0.019  0.00  0.00    -0.270 OA
ATOM     21  C   UNL     1       0.002  -0.004   0.002  0.00  0.00    +0.049 A 
ATOM     22  C   UNL     1      -0.017   1.381   0.010  0.00  0.00    +0.014 A 
ATOM     23  C   UNL     1       1.178   2.085   0.002  0.00  0.00    +0.001 A 
ATOM     24  C   UNL     1       2.386   1.414  -0.014  0.00  0.00    +0.001 A 
ATOM     25  C   UNL     1       2.420   0.028  -0.021  0.00  0.00    +0.014 A 
ATOM     26  C   UNL     1       1.234  -0.688  -0.013  0.00  0.00    +0.049 A 
ATOM     27  C   UNL     1       0.897  -2.128  -0.018  0.00  0.00    +0.254 C 
ATOM     28  O   UNL     1       1.696  -3.042  -0.029  0.00  0.00    -0.270 OA
ENDBRANCH  16  18
ENDBRANCH  11  16
TORSDOF 3
