REMARK  Name = ZINC13305567
REMARK  7 active torsions:
REMARK  status: ('A' for Active; 'I' for Inactive)
REMARK    1  A    between atoms: C_1  and  C_2
REMARK    2  A    between atoms: C_3  and  C_12
REMARK    3  A    between atoms: N_13  and  N_14
REMARK    4  A    between atoms: C_15  and  C_17
REMARK    5  A    between atoms: C_17  and  N_24
REMARK    6  A    between atoms: C_18  and  C_19
REMARK    7  A    between atoms: C_25  and  C_27
REMARK                            x       y       z     vdW  Elec       q    Type
REMARK                         _______ _______ _______ _____ _____    ______ ____
ROOT
ATOM      1  N   UNL     1      -2.820   2.390  -1.127  0.00  0.00    -0.202 N 
ATOM      2  C   UNL     1      -3.443   2.126   0.038  0.00  0.00    +0.277 C 
ATOM      3  O   UNL     1      -2.961   2.511   1.088  0.00  0.00    -0.267 OA
ATOM      4  H   UNL     1      -3.239   2.148  -1.968  0.00  0.00    +0.178 HD
ENDROOT
BRANCH   1   6
ATOM      5  C   UNL     1      -1.009   3.359  -2.247  0.00  0.00    +0.140 C 
ATOM      6  N   UNL     1      -1.566   3.016  -1.125  0.00  0.00    -0.187 NA
BRANCH   5   9
ATOM      7  C   UNL     1       0.543   4.282   0.283  0.00  0.00    +0.064 C 
ATOM      8  C   UNL     1       0.947   4.532  -1.147  0.00  0.00    +0.023 A 
ATOM      9  C   UNL     1       0.252   4.119  -2.241  0.00  0.00    +0.023 A 
ATOM     10  C   UNL     1       1.004   4.586  -3.419  0.00  0.00    +0.009 A 
ATOM     11  C   UNL     1       0.807   4.484  -4.795  0.00  0.00    +0.010 A 
ATOM     12  C   UNL     1       1.722   5.046  -5.658  0.00  0.00    +0.001 A 
ATOM     13  C   UNL     1       2.835   5.712  -5.163  0.00  0.00    +0.002 A 
ATOM     14  C   UNL     1       3.042   5.821  -3.806  0.00  0.00    +0.026 A 
ATOM     15  C   UNL     1       2.130   5.259  -2.917  0.00  0.00    +0.047 A 
ATOM     16  N   UNL     1       2.066   5.204  -1.541  0.00  0.00    -0.358 N 
ATOM     17  H   UNL     1       2.720   5.592  -0.939  0.00  0.00    +0.166 HD
ENDBRANCH   5   9
ENDBRANCH   1   6
BRANCH   2  18
ATOM     18  C   UNL     1      -4.700   1.376   0.042  0.00  0.00    +0.099 C 
ATOM     19  C   UNL     1      -4.681   0.016   0.031  0.00  0.00    +0.043 C 
BRANCH  19  20
ATOM     20  C   UNL     1      -3.449  -0.676   0.130  0.00  0.00    +0.014 A 
ATOM     21  C   UNL     1      -3.200  -2.039   0.038  0.00  0.00    +0.015 A 
ATOM     22  C   UNL     1      -1.905  -2.474   0.168  0.00  0.00    +0.008 A 
ATOM     23  C   UNL     1      -0.914  -1.566   0.381  0.00  0.00    +0.046 A 
ATOM     24  S   UNL     1      -1.809  -0.022   0.397  0.00  0.00    -0.097 S 
ENDBRANCH  19  20
BRANCH  18  25
ATOM     25  N   UNL     1      -5.923   2.058   0.056  0.00  0.00    -0.277 N 
ATOM     26  C   UNL     1      -5.945   3.402  -0.043  0.00  0.00    +0.248 C 
ATOM     27  O   UNL     1      -4.914   4.014  -0.245  0.00  0.00    -0.270 OA
ATOM     28  H   UNL     1      -6.753   1.564   0.138  0.00  0.00    +0.155 HD
BRANCH  26  29
ATOM     29  C   UNL     1      -7.224   4.132   0.092  0.00  0.00    +0.037 A 
ATOM     30  C   UNL     1      -8.410   3.432   0.317  0.00  0.00    +0.013 A 
ATOM     31  C   UNL     1      -9.599   4.119   0.448  0.00  0.00    +0.001 A 
ATOM     32  C   UNL     1      -9.618   5.499   0.346  0.00  0.00    +0.000 A 
ATOM     33  C   UNL     1      -8.447   6.199   0.117  0.00  0.00    +0.001 A 
ATOM     34  C   UNL     1      -7.250   5.524  -0.011  0.00  0.00    +0.013 A 
ENDBRANCH  26  29
ENDBRANCH  18  25
ENDBRANCH   2  18
TORSDOF 6
