REMARK  Name = ZINC62040303
REMARK  6 active torsions:
REMARK  status: ('A' for Active; 'I' for Inactive)
REMARK    1  A    between atoms: C_1  and  C_2
REMARK    2  A    between atoms: C_2  and  C_3
REMARK    3  A    between atoms: C_15  and  N_17
REMARK    4  A    between atoms: C_18  and  C_20
REMARK    5  A    between atoms: C_20  and  N_21
REMARK    6  A    between atoms: C_25  and  C_28
REMARK                            x       y       z     vdW  Elec       q    Type
REMARK                         _______ _______ _______ _____ _____    ______ ____
ROOT
ATOM      1  C   UNL     1      -1.550  -0.188   0.042  0.00  0.00    -0.024 A 
ATOM      2  C   UNL     1      -2.104  -0.623   1.227  0.00  0.00    +0.005 A 
ATOM      3  C   UNL     1      -3.320  -1.288   1.234  0.00  0.00    +0.001 A 
ATOM      4  C   UNL     1      -3.991  -1.523   0.053  0.00  0.00    +0.010 A 
ATOM      5  C   UNL     1      -3.443  -1.089  -1.152  0.00  0.00    +0.008 A 
ATOM      6  C   UNL     1      -2.215  -0.410  -1.160  0.00  0.00    +0.051 A 
ATOM      7  N   UNL     1      -1.904  -0.087  -2.470  0.00  0.00    -0.354 N 
ATOM      8  H   UNL     1      -1.103   0.383  -2.750  0.00  0.00    +0.166 HD
ATOM      9  C   UNL     1      -2.899  -0.531  -3.322  0.00  0.00    +0.049 A 
ATOM     10  C   UNL     1      -3.884  -1.174  -2.556  0.00  0.00    +0.008 A 
ATOM     11  C   UNL     1      -5.007  -1.719  -3.175  0.00  0.00    +0.012 A 
ATOM     12  C   UNL     1      -5.142  -1.641  -4.543  0.00  0.00    +0.024 A 
ATOM     13  C   UNL     1      -4.160  -1.019  -5.309  0.00  0.00    +0.035 A 
ATOM     14  C   UNL     1      -3.051  -0.453  -4.702  0.00  0.00    +0.049 A 
ENDROOT
BRANCH  13  15
ATOM     15  N   UNL     1      -4.306  -0.944  -6.699  0.00  0.00    -0.284 N 
ATOM     16  C   UNL     1      -3.219  -0.994  -7.494  0.00  0.00    +0.237 C 
ATOM     17  O   UNL     1      -2.124  -1.200  -7.013  0.00  0.00    -0.274 OA
ATOM     18  H   UNL     1      -5.189  -0.855  -7.090  0.00  0.00    +0.155 HD
BRANCH  16  19
ATOM     19  C   UNL     1      -3.362  -0.794  -8.981  0.00  0.00    +0.220 C 
BRANCH  19  20
ATOM     20  N   UNL     1      -2.047  -0.895  -9.617  0.00  0.00    -0.306 N 
ATOM     21  C   UNL     1      -1.284   0.219  -9.762  0.00  0.00    +0.089 A 
ATOM     22  C   UNL     1      -0.066   0.151 -10.347  0.00  0.00    +0.018 A 
ATOM     23  C   UNL     1       0.421  -1.080 -10.809  0.00  0.00    +0.010 A 
ATOM     24  C   UNL     1      -0.346  -2.198 -10.662  0.00  0.00    +0.014 A 
ATOM     25  C   UNL     1      -1.605  -2.093 -10.045  0.00  0.00    +0.255 A 
ATOM     26  O   UNL     1      -2.299  -3.086  -9.903  0.00  0.00    -0.267 OA
ATOM     27  C   UNL     1       0.153  -3.534 -11.149  0.00  0.00    +0.049 C 
ENDBRANCH  19  20
ENDBRANCH  16  19
ENDBRANCH  13  15
BRANCH   1  29
ATOM     28  C   UNL     1      -0.471   2.044   0.073  0.00  0.00    +0.009 C 
ATOM     29  C   UNL     1      -0.228   0.534   0.049  0.00  0.00    +0.034 C 
ENDBRANCH   1  29
TORSDOF 4
