REMARK  Name = ZINC09453507
REMARK  10 active torsions:
REMARK  status: ('A' for Active; 'I' for Inactive)
REMARK    1  A    between atoms: C_1  and  C_2
REMARK    2  A    between atoms: C_2  and  C_3
REMARK    3  A    between atoms: C_7  and  C_33
REMARK    4  A    between atoms: C_8  and  N_9
REMARK    5  A    between atoms: C_10  and  C_12
REMARK    6  A    between atoms: C_12  and  S_13
REMARK    7  A    between atoms: S_13  and  C_14
REMARK    8  A    between atoms: C_17  and  C_20
REMARK    9  A    between atoms: N_18  and  N_19
REMARK   10  A    between atoms: C_22  and  C_26
REMARK                            x       y       z     vdW  Elec       q    Type
REMARK                         _______ _______ _______ _____ _____    ______ ____
ROOT
ATOM      1  C   UNL     1      -1.461  -0.112  -7.638  0.00  0.00    +0.209 A 
ATOM      2  N   UNL     1      -0.262   0.426  -7.627  0.00  0.00    -0.120 NA
ATOM      3  N   UNL     1       0.142   0.626  -8.831  0.00  0.00    -0.125 NA
ATOM      4  C   UNL     1      -0.773   0.229  -9.683  0.00  0.00    +0.202 A 
ATOM      5  N   UNL     1      -1.826  -0.262  -8.946  0.00  0.00    -0.222 N 
ENDROOT
BRANCH   4   6
ATOM      6  C   UNL     1      -0.686   0.290 -11.158  0.00  0.00    +0.132 A 
ATOM      7  C   UNL     1       0.403   0.784 -11.900  0.00  0.00    +0.061 A 
ATOM      8  C   UNL     1       0.092   0.667 -13.223  0.00  0.00    +0.066 A 
ATOM      9  N   UNL     1      -1.153   0.117 -13.307  0.00  0.00    -0.276 N 
ATOM     10  H   UNL     1      -1.634  -0.083 -14.125  0.00  0.00    +0.189 HD
ATOM     11  N   UNL     1      -1.614  -0.113 -12.004  0.00  0.00    -0.170 NA
BRANCH   8  12
ATOM     12  C   UNL     1       0.951   1.065 -14.361  0.00  0.00    -0.000 A 
ATOM     13  C   UNL     1       2.212   1.613 -14.128  0.00  0.00    +0.011 A 
ATOM     14  C   UNL     1       3.008   1.982 -15.193  0.00  0.00    +0.020 A 
ATOM     15  C   UNL     1       2.557   1.809 -16.490  0.00  0.00    +0.041 A 
ATOM     16  C   UNL     1       1.306   1.265 -16.727  0.00  0.00    +0.020 A 
ATOM     17  C   UNL     1       0.504   0.887 -15.670  0.00  0.00    +0.011 A 
ATOM     18 CL   UNL     1       3.564   2.276 -17.825  0.00  0.00    -0.084 Cl
ENDBRANCH   8  12
ENDBRANCH   4   6
BRANCH   5  19
ATOM     19  N   UNL     1      -2.994  -0.786  -9.422  0.00  0.00    -0.295 N 
ATOM     20  H   UNL     1      -3.692  -0.067  -9.538  0.00  0.00    +0.163 HD
ATOM     21  H   UNL     1      -2.841  -1.284 -10.286  0.00  0.00    +0.163 HD
ENDBRANCH   5  19
BRANCH   1  22
ATOM     22  S   UNL     1      -2.417  -0.563  -6.228  0.00  0.00    -0.075 S 
BRANCH  22  23
ATOM     23  C   UNL     1      -1.367  -0.103  -4.821  0.00  0.00    +0.173 C 
BRANCH  23  25
ATOM     24  N   UNL     1      -1.483  -0.185  -2.352  0.00  0.00    -0.284 N 
ATOM     25  C   UNL     1      -2.076  -0.440  -3.535  0.00  0.00    +0.228 C 
ATOM     26  O   UNL     1      -3.180  -0.941  -3.564  0.00  0.00    -0.275 OA
ATOM     27  H   UNL     1      -0.630   0.276  -2.326  0.00  0.00    +0.155 HD
BRANCH  24  33
ATOM     28  C   UNL     1      -2.709   0.355  -0.343  0.00  0.00    -0.026 A 
ATOM     29  C   UNL     1      -3.320  -0.044   0.830  0.00  0.00    +0.005 A 
ATOM     30  C   UNL     1      -3.317  -1.378   1.193  0.00  0.00    +0.001 A 
ATOM     31  C   UNL     1      -2.705  -2.317   0.384  0.00  0.00    +0.005 A 
ATOM     32  C   UNL     1      -2.093  -1.925  -0.790  0.00  0.00    -0.029 A 
ATOM     33  C   UNL     1      -2.097  -0.586  -1.160  0.00  0.00    +0.040 A 
ATOM     34  C   UNL     1      -1.425  -2.948  -1.672  0.00  0.00    +0.045 C 
BRANCH  28  36
ATOM     35  C   UNL     1      -3.887   2.080  -1.679  0.00  0.00    +0.009 C 
ATOM     36  C   UNL     1      -2.712   1.809  -0.737  0.00  0.00    +0.033 C 
ENDBRANCH  28  36
ENDBRANCH  24  33
ENDBRANCH  23  25
ENDBRANCH  22  23
ENDBRANCH   1  22
TORSDOF 8
