REMARK  Name = ZINC63411803
REMARK  13 active torsions:
REMARK  status: ('A' for Active; 'I' for Inactive)
REMARK    1  A    between atoms: C_1  and  C_2
REMARK    2  A    between atoms: C_9  and  C_11
REMARK    3  A    between atoms: C_11  and  S_12
REMARK    4  A    between atoms: S_12  and  C_13
REMARK    5  A    between atoms: C_16  and  C_18
REMARK    6  A    between atoms: C_18  and  C_20
REMARK    7  A    between atoms: C_18  and  N_30
REMARK    8  A    between atoms: C_20  and  C_21
REMARK    9  A    between atoms: C_31  and  O_33
REMARK   10  A    between atoms: O_33  and  C_34
REMARK   11  A    between atoms: C_34  and  C_35
REMARK   12  A    between atoms: C_34  and  C_36
REMARK   13  A    between atoms: C_34  and  C_37
REMARK                            x       y       z     vdW  Elec       q    Type
REMARK                         _______ _______ _______ _____ _____    ______ ____
ROOT
ATOM      1  C   UNL     1      -6.009   3.150   5.407  0.00  0.00    +0.168 C 
ENDROOT
BRANCH   1   5
ATOM      2  C   UNL     1      -4.161   2.635   2.333  0.00  0.00    +0.278 A 
ATOM      3  N   UNL     1      -4.426   1.409   2.718  0.00  0.00    -0.101 NA
ATOM      4  N   UNL     1      -5.091   1.444   3.818  0.00  0.00    -0.110 NA
ATOM      5  C   UNL     1      -5.276   2.680   4.177  0.00  0.00    +0.239 A 
ATOM      6  O   UNL     1      -4.689   3.465   3.252  0.00  0.00    -0.414 OA
BRANCH   2   7
ATOM      7  S   UNL     1      -3.273   3.107   0.886  0.00  0.00    -0.061 S 
BRANCH   7   8
ATOM      8  C   UNL     1      -2.848   1.529   0.098  0.00  0.00    +0.121 C 
BRANCH   8  17
ATOM      9  C   UNL     1      -0.013   1.086   0.008  0.00  0.00    +0.064 C 
ATOM     10  C   UNL     1      -0.742   1.585  -1.213  0.00  0.00    +0.026 A 
ATOM     11  N   UNL     1      -0.056   1.825  -2.373  0.00  0.00    -0.311 N 
ATOM     12  C   UNL     1      -0.698   2.270  -3.468  0.00  0.00    +0.327 A 
ATOM     13  O   UNL     1      -0.069   2.476  -4.489  0.00  0.00    -0.247 OA
ATOM     14  N   UNL     1      -2.025   2.490  -3.451  0.00  0.00    -0.275 N 
ATOM     15  C   UNL     1      -2.737   2.266  -2.328  0.00  0.00    +0.258 A 
ATOM     16  O   UNL     1      -3.938   2.465  -2.311  0.00  0.00    -0.267 OA
ATOM     17  C   UNL     1      -2.075   1.793  -1.169  0.00  0.00    +0.046 A 
ATOM     18  H   UNL     1       0.901   1.672  -2.405  0.00  0.00    +0.170 HD
ATOM     19  H   UNL     1      -2.472   2.811  -4.250  0.00  0.00    +0.173 HD
ENDBRANCH   8  17
ENDBRANCH   7   8
ENDBRANCH   2   7
ENDBRANCH   1   5
BRANCH   1  20
ATOM     20  N   UNL     1      -7.257   2.396   5.549  0.00  0.00    -0.269 N 
ATOM     21  C   UNL     1      -7.223   1.055   5.683  0.00  0.00    +0.401 C 
ATOM     22  O   UNL     1      -6.157   0.472   5.685  0.00  0.00    -0.226 OA
ATOM     23  H   UNL     1      -8.108   2.862   5.548  0.00  0.00    +0.153 HD
BRANCH  21  24
ATOM     24  O   UNL     1      -8.370   0.362   5.814  0.00  0.00    -0.445 OA
BRANCH  24  25
ATOM     25  C   UNL     1      -8.259  -1.056   5.951  0.00  0.00    +0.107 C 
ATOM     26  C   UNL     1      -7.436  -1.385   7.198  0.00  0.00    +0.055 C 
ATOM     27  C   UNL     1      -9.656  -1.665   6.087  0.00  0.00    +0.055 C 
ATOM     28  C   UNL     1      -7.567  -1.635   4.715  0.00  0.00    +0.055 C 
ENDBRANCH  24  25
ENDBRANCH  21  24
ENDBRANCH   1  20
BRANCH   1  29
ATOM     29  C   UNL     1      -5.133   2.924   6.641  0.00  0.00    +0.065 C 
BRANCH  29  30
ATOM     30  C   UNL     1      -5.813   3.504   7.853  0.00  0.00    -0.039 C 
ATOM     31  C   UNL     1      -6.595   2.847   8.740  0.00  0.00    -0.001 A 
ATOM     32  C   UNL     1      -7.029   1.448   8.837  0.00  0.00    +0.010 A 
ATOM     33  C   UNL     1      -7.830   1.079   9.862  0.00  0.00    +0.001 A 
ATOM     34  C   UNL     1      -8.255   1.998  10.832  0.00  0.00    +0.002 A 
ATOM     35  C   UNL     1      -7.898   3.299  10.811  0.00  0.00    +0.026 A 
ATOM     36  C   UNL     1      -7.057   3.796   9.777  0.00  0.00    +0.043 A 
ATOM     37  N   UNL     1      -6.580   4.995   9.541  0.00  0.00    -0.380 N 
ATOM     38  C   UNL     1      -5.755   4.939   8.329  0.00  0.00    +0.144 C 
ATOM     39  H   UNL     1      -6.742   5.785  10.079  0.00  0.00    +0.160 HD
ENDBRANCH  29  30
ENDBRANCH   1  29
TORSDOF 9
