REMARK  Name = ZINC39688806
REMARK  6 active torsions:
REMARK  status: ('A' for Active; 'I' for Inactive)
REMARK    1  A    between atoms: C_1  and  C_2
REMARK    2  A    between atoms: C_2  and  C_4
REMARK    3  A    between atoms: C_2  and  N_12
REMARK    4  A    between atoms: C_4  and  C_5
REMARK    5  A    between atoms: C_13  and  C_15
REMARK    6  A    between atoms: C_26  and  C_28
REMARK                            x       y       z     vdW  Elec       q    Type
REMARK                         _______ _______ _______ _____ _____    ______ ____
ROOT
ATOM      1  C   UNL     1      -3.465  -1.164  -1.134  0.00  0.00    +0.100 C 
ATOM      2  C   UNL     1      -3.486  -2.652  -0.717  0.00  0.00    +0.121 C 
ATOM      3  N   UNL     1      -4.545  -3.261  -1.556  0.00  0.00    -0.296 N 
ATOM      4  C   UNL     1      -4.383  -2.614  -2.881  0.00  0.00    +0.115 C 
ATOM      5  C   UNL     1      -4.054  -1.143  -2.554  0.00  0.00    -0.004 C 
ATOM      6  C   UNL     1      -5.324  -0.298  -2.587  0.00  0.00    -0.010 C 
ATOM      7  C   UNL     1      -5.859  -0.246  -4.021  0.00  0.00    -0.082 C 
ATOM      8  N   UNL     1      -4.840   0.331  -4.905  0.00  0.00    +0.379 N 
ATOM      9  C   UNL     1      -3.656  -0.537  -4.939  0.00  0.00    -0.082 C 
ATOM     10  C   UNL     1      -3.028  -0.601  -3.545  0.00  0.00    -0.010 C 
ATOM     11  C   UNL     1      -5.450  -4.192  -1.197  0.00  0.00    +0.252 C 
ATOM     12  O   UNL     1      -6.262  -4.596  -2.008  0.00  0.00    -0.270 OA
ATOM     13  H   UNL     1      -5.216   0.421  -5.837  0.00  0.00    -0.086 HD
ATOM     14  H   UNL     1      -4.576   1.243  -4.563  0.00  0.00    -0.086 HD
ENDROOT
BRANCH  11  15
ATOM     15  C   UNL     1      -5.457  -4.723   0.180  0.00  0.00    +0.108 A 
ATOM     16  C   UNL     1      -6.231  -4.105   1.168  0.00  0.00    +0.138 A 
ATOM     17  C   UNL     1      -6.232  -4.608   2.455  0.00  0.00    +0.041 A 
ATOM     18  C   UNL     1      -5.470  -5.719   2.768  0.00  0.00    +0.026 A 
ATOM     19  C   UNL     1      -4.701  -6.336   1.798  0.00  0.00    +0.077 A 
ATOM     20  C   UNL     1      -4.693  -5.849   0.503  0.00  0.00    +0.156 A 
ATOM     21  F   UNL     1      -3.946  -6.456  -0.445  0.00  0.00    -0.203 F 
ATOM     22 CL   UNL     1      -3.748  -7.729   2.204  0.00  0.00    -0.081 Cl
ATOM     23  F   UNL     1      -6.976  -3.019   0.865  0.00  0.00    -0.205 F 
ENDBRANCH  11  15
BRANCH   1  25
ATOM     24  N   UNL     1      -1.812   0.661  -0.903  0.00  0.00    -0.312 N 
ATOM     25  C   UNL     1      -2.051  -0.643  -1.145  0.00  0.00    +0.218 C 
ATOM     26  O   UNL     1      -1.128  -1.397  -1.371  0.00  0.00    -0.275 OA
ATOM     27  H   UNL     1      -2.550   1.264  -0.722  0.00  0.00    +0.149 HD
BRANCH  24  29
ATOM     28  C   UNL     1      -0.031   1.511  -2.348  0.00  0.00    +0.028 C 
ATOM     29  C   UNL     1      -0.438   1.169  -0.913  0.00  0.00    +0.074 C 
BRANCH  29  30
ATOM     30  C   UNL     1      -0.351   2.425  -0.045  0.00  0.00    +0.057 C 
BRANCH  30  31
ATOM     31  C   UNL     1      -0.632   2.064   1.391  0.00  0.00    -0.045 A 
ATOM     32  C   UNL     1      -1.928   2.096   1.870  0.00  0.00    +0.006 A 
ATOM     33  C   UNL     1      -2.187   1.764   3.187  0.00  0.00    +0.038 A 
ATOM     34  C   UNL     1      -1.147   1.400   4.026  0.00  0.00    +0.123 A 
ATOM     35  C   UNL     1       0.151   1.369   3.544  0.00  0.00    +0.038 A 
ATOM     36  C   UNL     1       0.406   1.696   2.226  0.00  0.00    +0.006 A 
ATOM     37  F   UNL     1      -1.399   1.076   5.313  0.00  0.00    -0.205 F 
ENDBRANCH  30  31
ENDBRANCH  29  30
ENDBRANCH  24  29
ENDBRANCH   1  25
TORSDOF 5
