REMARK  Name = ZINC22513657
REMARK  7 active torsions:
REMARK  status: ('A' for Active; 'I' for Inactive)
REMARK    1  A    between atoms: C_4  and  N_7
REMARK    2  A    between atoms: C_11  and  S_13
REMARK    3  A    between atoms: S_13  and  C_14
REMARK    4  A    between atoms: C_14  and  C_15
REMARK    5  A    between atoms: N_17  and  N_18
REMARK    6  A    between atoms: C_19  and  C_21
REMARK    7  A    between atoms: C_25  and  N_27
REMARK                            x       y       z     vdW  Elec       q    Type
REMARK                         _______ _______ _______ _____ _____    ______ ____
ROOT
ATOM      1  C   UNL     1       2.227   8.103   0.020  0.00  0.00    +0.239 C 
ATOM      2  O   UNL     1       3.285   7.511   0.007  0.00  0.00    -0.273 OA
ATOM      3  N   UNL     1       1.069   7.414   0.028  0.00  0.00    -0.233 N 
ATOM      4  H   UNL     1       0.109   7.951   0.040  0.00  0.00    +0.173 HD
ENDROOT
BRANCH   3   5
ATOM      5  N   UNL     1       1.088   6.013   0.022  0.00  0.00    -0.230 N 
ATOM      6  C   UNL     1      -0.070   5.323   0.030  0.00  0.00    +0.260 C 
ATOM      7  O   UNL     1      -1.131   5.916   0.043  0.00  0.00    -0.269 OA
ATOM      8  H   UNL     1       2.048   5.476   0.009  0.00  0.00    +0.173 HD
BRANCH   6   9
ATOM      9  C   UNL     1      -0.050   3.845   0.023  0.00  0.00    +0.040 A 
ATOM     10  C   UNL     1       1.166   3.160   0.007  0.00  0.00    +0.013 A 
ATOM     11  C   UNL     1       1.178   1.781   0.000  0.00  0.00    +0.003 A 
ATOM     12  C   UNL     1      -0.013   1.076   0.008  0.00  0.00    +0.033 A 
ATOM     13  C   UNL     1      -1.222   1.748   0.017  0.00  0.00    +0.127 A 
ATOM     14  C   UNL     1      -1.247   3.128   0.031  0.00  0.00    +0.045 A 
BRANCH  13  15
ATOM     15  N   UNL     1      -2.490   0.986   0.019  0.00  0.00    +0.056 N 
ATOM     16  O   UNL     1      -2.469  -0.232   0.013  0.00  0.00    -0.126 OA
ATOM     17  O   UNL     1      -3.556   1.576   0.028  0.00  0.00    -0.126 OA
ENDBRANCH  13  15
ENDBRANCH   6   9
ENDBRANCH   3   5
BRANCH   1  18
ATOM     18  C   UNL     1       2.206   9.610   0.028  0.00  0.00    +0.173 C 
BRANCH  18  19
ATOM     19  S   UNL     1       3.904  10.237   0.014  0.00  0.00    -0.088 S 
BRANCH  19  24
ATOM     20  N   UNL     1       4.002  14.265   0.031  0.00  0.00    -0.217 N 
ATOM     21  C   UNL     1       2.666  14.497   0.046  0.00  0.00    +0.150 A 
ATOM     22  S   UNL     1       1.821  15.986   0.061  0.00  0.00    -0.023 S 
ATOM     23  S   UNL     1       2.026  12.829   0.045  0.00  0.00    -0.034 S 
ATOM     24  C   UNL     1       3.591  11.970   0.025  0.00  0.00    +0.158 A 
ATOM     25  N   UNL     1       4.445  12.962   0.026  0.00  0.00    -0.151 NA
BRANCH  20  29
ATOM     26  C   UNL     1       6.710  17.431   0.016  0.00  0.00    +0.000 A 
ATOM     27  C   UNL     1       7.014  16.265   0.696  0.00  0.00    +0.002 A 
ATOM     28  C   UNL     1       6.119  15.214   0.703  0.00  0.00    +0.028 A 
ATOM     29  C   UNL     1       4.911  15.328   0.026  0.00  0.00    +0.067 A 
ATOM     30  C   UNL     1       4.611  16.498  -0.660  0.00  0.00    +0.028 A 
ATOM     31  C   UNL     1       5.508  17.548  -0.658  0.00  0.00    +0.002 A 
ENDBRANCH  20  29
ENDBRANCH  19  24
ENDBRANCH  18  19
ENDBRANCH   1  18
TORSDOF 7
