REMARK  Name = ZINC13394705
REMARK  8 active torsions:
REMARK  status: ('A' for Active; 'I' for Inactive)
REMARK    1  A    between atoms: C_1  and  C_2
REMARK    2  A    between atoms: C_3  and  C_35
REMARK    3  A    between atoms: C_9  and  C_13
REMARK    4  A    between atoms: C_13  and  S_14
REMARK    5  A    between atoms: S_14  and  C_15
REMARK    6  A    between atoms: N_25  and  C_26
REMARK    7  A    between atoms: C_26  and  C_28
REMARK    8  A    between atoms: C_26  and  C_29
REMARK                            x       y       z     vdW  Elec       q    Type
REMARK                         _______ _______ _______ _____ _____    ______ ____
ROOT
ATOM      1  C   UNL     1       2.377   1.416   0.049  0.00  0.00    +0.173 A 
ATOM      2  N   UNL     1       2.440   0.108   0.059  0.00  0.00    -0.223 NA
ATOM      3  C   UNL     1       1.327  -0.653   0.039  0.00  0.00    +0.079 A 
ATOM      4  C   UNL     1       1.394  -2.050   0.049  0.00  0.00    +0.028 A 
ATOM      5  C   UNL     1       0.240  -2.782   0.028  0.00  0.00    +0.002 A 
ATOM      6  C   UNL     1      -1.001  -2.160  -0.003  0.00  0.00    +0.001 A 
ATOM      7  C   UNL     1      -1.099  -0.796  -0.014  0.00  0.00    +0.015 A 
ATOM      8  C   UNL     1       0.062  -0.024   0.007  0.00  0.00    +0.065 A 
ATOM      9  C   UNL     1       0.017   1.445  -0.003  0.00  0.00    +0.263 A 
ATOM     10  O   UNL     1      -1.041   2.045  -0.035  0.00  0.00    -0.267 OA
ATOM     11  N   UNL     1       1.198   2.106   0.019  0.00  0.00    -0.280 N 
ENDROOT
BRANCH  11  12
ATOM     12  C   UNL     1       1.212   3.571   0.009  0.00  0.00    +0.119 C 
ATOM     13  C   UNL     1       0.586   4.078  -1.291  0.00  0.00    +0.036 C 
BRANCH  12  14
ATOM     14  C   UNL     1       0.422   4.088   1.183  0.00  0.00    -0.025 A 
ATOM     15  C   UNL     1      -0.375   5.209   1.040  0.00  0.00    +0.005 A 
ATOM     16  C   UNL     1      -1.104   5.681   2.115  0.00  0.00    +0.000 A 
ATOM     17  C   UNL     1      -1.028   5.038   3.337  0.00  0.00    +0.000 A 
ATOM     18  C   UNL     1      -0.227   3.921   3.482  0.00  0.00    +0.000 A 
ATOM     19  C   UNL     1       0.498   3.446   2.405  0.00  0.00    +0.005 A 
ENDBRANCH  12  14
ENDBRANCH  11  12
BRANCH   1  20
ATOM     20  S   UNL     1       3.884   2.329   0.076  0.00  0.00    -0.080 S 
BRANCH  20  21
ATOM     21  C   UNL     1       5.076   0.968   0.110  0.00  0.00    +0.151 C 
BRANCH  21  30
ATOM     22  C   UNL     1      10.454   5.962   0.193  0.00  0.00    +0.087 C 
ATOM     23  C   UNL     1       9.636   4.697   0.184  0.00  0.00    +0.119 A 
ATOM     24  C   UNL     1      10.144   3.433   0.203  0.00  0.00    +0.118 A 
ATOM     25  C   UNL     1       8.975   2.537   0.184  0.00  0.00    +0.118 A 
ATOM     26  C   UNL     1       8.789   1.138   0.189  0.00  0.00    +0.263 A 
ATOM     27  O   UNL     1       9.742   0.379   0.215  0.00  0.00    -0.267 OA
ATOM     28  N   UNL     1       7.522   0.665   0.165  0.00  0.00    -0.309 N 
ATOM     29  H   UNL     1       7.362  -0.292   0.168  0.00  0.00    +0.170 HD
ATOM     30  C   UNL     1       6.475   1.526   0.137  0.00  0.00    +0.124 A 
ATOM     31  N   UNL     1       6.636   2.820   0.127  0.00  0.00    -0.198 NA
ATOM     32  C   UNL     1       7.858   3.373   0.154  0.00  0.00    +0.235 A 
ATOM     33  O   UNL     1       8.298   4.642   0.155  0.00  0.00    -0.441 OA
BRANCH  24  34
ATOM     34  C   UNL     1      11.562   3.044   0.238  0.00  0.00    +0.391 C 
ATOM     35  O   UNL     1      12.171   2.876  -0.801  0.00  0.00    -0.240 OA
ATOM     36  O   UNL     1      12.186   2.874   1.420  0.00  0.00    -0.240 OA
ENDBRANCH  24  34
ENDBRANCH  21  30
ENDBRANCH  20  21
ENDBRANCH   1  20
TORSDOF 6
