REMARK  Name = ZINC11207357
REMARK  9 active torsions:
REMARK  status: ('A' for Active; 'I' for Inactive)
REMARK    1  A    between atoms: C_2  and  C_3
REMARK    2  A    between atoms: C_3  and  N_4
REMARK    3  A    between atoms: C_17  and  S_18
REMARK    4  A    between atoms: S_18  and  C_19
REMARK    5  A    between atoms: C_19  and  C_20
REMARK    6  A    between atoms: N_22  and  C_23
REMARK    7  A    between atoms: C_23  and  C_24
REMARK    8  A    between atoms: C_27  and  S_29
REMARK    9  A    between atoms: S_29  and  N_32
REMARK                            x       y       z     vdW  Elec       q    Type
REMARK                         _______ _______ _______ _____ _____    ______ ____
ROOT
ATOM      1  S   UNL     1      -0.890   1.687  -1.462  0.00  0.00    -0.076 S 
ENDROOT
BRANCH   1  15
ATOM      2  N   UNL     1       0.721   0.576  -6.248  0.00  0.00    -0.273 N 
ATOM      3  C   UNL     1      -0.246   1.219  -6.934  0.00  0.00    +0.263 A 
ATOM      4  O   UNL     1      -0.249   1.215  -8.151  0.00  0.00    -0.267 OA
ATOM      5  C   UNL     1      -1.293   1.936  -6.184  0.00  0.00    +0.064 A 
ATOM      6  C   UNL     1      -2.311   2.625  -6.841  0.00  0.00    +0.015 A 
ATOM      7  C   UNL     1      -3.273   3.284  -6.105  0.00  0.00    +0.001 A 
ATOM      8  C   UNL     1      -3.232   3.263  -4.720  0.00  0.00    +0.002 A 
ATOM      9  C   UNL     1      -2.228   2.584  -4.058  0.00  0.00    +0.027 A 
ATOM     10  C   UNL     1      -1.253   1.916  -4.782  0.00  0.00    +0.064 A 
ATOM     11  N   UNL     1      -0.230   1.223  -4.138  0.00  0.00    -0.256 N 
ATOM     12  C   UNL     1       0.730   0.570  -4.862  0.00  0.00    +0.240 A 
ATOM     13  N   UNL     1       1.557   0.003  -4.012  0.00  0.00    -0.109 NA
ATOM     14  N   UNL     1       1.122   0.302  -2.715  0.00  0.00    -0.120 NA
ATOM     15  C   UNL     1       0.045   1.043  -2.809  0.00  0.00    +0.198 A 
BRANCH   2  16
ATOM     16  C   UNL     1       1.767  -0.143  -6.980  0.00  0.00    +0.155 C 
BRANCH  16  18
ATOM     17  C   UNL     1       1.306  -2.036  -8.450  0.00  0.00    +0.005 C 
ATOM     18  C   UNL     1       1.321  -1.560  -7.230  0.00  0.00    -0.013 C 
ENDBRANCH  16  18
ENDBRANCH   2  16
ENDBRANCH   1  15
BRANCH   1  19
ATOM     19  C   UNL     1      -0.013   1.086   0.008  0.00  0.00    +0.173 C 
BRANCH  19  20
ATOM     20  C   UNL     1      -0.718   1.572   1.248  0.00  0.00    +0.224 C 
ATOM     21  O   UNL     1      -1.714   2.256   1.150  0.00  0.00    -0.275 OA
ATOM     22  N   UNL     1      -0.242   1.246   2.466  0.00  0.00    -0.310 N 
ATOM     23  H   UNL     1       0.555   0.699   2.544  0.00  0.00    +0.149 HD
BRANCH  22  24
ATOM     24  C   UNL     1      -0.927   1.718   3.671  0.00  0.00    +0.146 C 
BRANCH  24  25
ATOM     25  C   UNL     1      -0.198   1.219   4.892  0.00  0.00    +0.009 A 
ATOM     26  C   UNL     1       0.811   1.804   5.582  0.00  0.00    +0.015 A 
ATOM     27  C   UNL     1       1.332   1.155   6.686  0.00  0.00    +0.036 A 
ATOM     28  C   UNL     1       0.819  -0.047   7.045  0.00  0.00    +0.142 A 
ATOM     29  S   UNL     1      -0.445  -0.293   5.809  0.00  0.00    -0.072 S 
BRANCH  28  30
ATOM     30  S   UNL     1       1.277  -1.092   8.387  0.00  0.00    +0.062 S 
ATOM     31  O   UNL     1       0.881  -2.409   8.029  0.00  0.00    -0.153 OA
ATOM     32  O   UNL     1       2.619  -0.764   8.718  0.00  0.00    -0.153 OA
BRANCH  30  33
ATOM     33  N   UNL     1       0.349  -0.656   9.687  0.00  0.00    -0.203 NA
ATOM     34  H   UNL     1      -0.298   0.062   9.602  0.00  0.00    +0.144 HD
ATOM     35  H   UNL     1       0.451  -1.118  10.533  0.00  0.00    +0.144 HD
ENDBRANCH  30  33
ENDBRANCH  28  30
ENDBRANCH  24  25
ENDBRANCH  22  24
ENDBRANCH  19  20
ENDBRANCH   1  19
TORSDOF 9
