REMARK  Name = ZINC39935471
REMARK  6 active torsions:
REMARK  status: ('A' for Active; 'I' for Inactive)
REMARK    1  A    between atoms: C_1  and  C_2
REMARK    2  A    between atoms: C_2  and  C_3
REMARK    3  A    between atoms: C_2  and  N_4
REMARK    4  A    between atoms: C_7  and  C_14
REMARK    5  A    between atoms: C_9  and  C_11
REMARK    6  A    between atoms: C_19  and  N_22
REMARK                            x       y       z     vdW  Elec       q    Type
REMARK                         _______ _______ _______ _____ _____    ______ ____
ROOT
ATOM      1  C   UNL     1       1.724  -2.695   5.286  0.00  0.00    +0.247 C 
ATOM      2  O   UNL     1       2.877  -2.330   5.171  0.00  0.00    -0.270 OA
ATOM      3  N   UNL     1       1.344  -3.395   6.373  0.00  0.00    -0.297 N 
ATOM      4  C   UNL     1       2.276  -3.608   7.489  0.00  0.00    +0.110 C 
ATOM      5  C   UNL     1       2.360  -5.109   7.782  0.00  0.00    +0.044 C 
ATOM      6  C   UNL     1       0.952  -5.657   8.026  0.00  0.00    +0.095 C 
ATOM      7  C   UNL     1       0.100  -5.456   6.770  0.00  0.00    +0.044 C 
ATOM      8  C   UNL     1      -0.011  -3.954   6.468  0.00  0.00    +0.110 C 
ENDROOT
BRANCH   6   9
ATOM      9  N   UNL     1       1.031  -7.085   8.339  0.00  0.00    -0.289 N 
ATOM     10  C   UNL     1       0.590  -7.688   9.515  0.00  0.00    +0.070 A 
ATOM     11  C   UNL     1      -0.009  -7.201  10.667  0.00  0.00    +0.028 A 
ATOM     12  C   UNL     1      -0.339  -8.069  11.689  0.00  0.00    +0.002 A 
ATOM     13  C   UNL     1      -0.074  -9.422  11.569  0.00  0.00    +0.002 A 
ATOM     14  C   UNL     1       0.522  -9.917  10.426  0.00  0.00    +0.028 A 
ATOM     15  C   UNL     1       0.856  -9.053   9.393  0.00  0.00    +0.067 A 
ATOM     16  N   UNL     1       1.451  -9.238   8.148  0.00  0.00    -0.306 N 
ATOM     17  H   UNL     1       1.749 -10.085   7.781  0.00  0.00    +0.170 HD
ATOM     18  C   UNL     1       1.537  -8.041   7.537  0.00  0.00    +0.328 A 
ATOM     19  O   UNL     1       2.004  -7.851   6.429  0.00  0.00    -0.247 OA
ENDBRANCH   6   9
BRANCH   1  23
ATOM     20  N   UNL     1       0.492  -2.807   0.687  0.00  0.00    -0.248 N 
ATOM     21  C   UNL     1       0.032  -2.386   1.927  0.00  0.00    +0.141 A 
ATOM     22  C   UNL     1       0.975  -2.698   2.902  0.00  0.00    +0.021 A 
ATOM     23  C   UNL     1       0.735  -2.372   4.231  0.00  0.00    +0.046 A 
ATOM     24  C   UNL     1      -0.470  -1.728   4.544  0.00  0.00    +0.037 A 
ATOM     25  C   UNL     1      -1.358  -1.449   3.525  0.00  0.00    +0.047 A 
ATOM     26  N   UNL     1      -1.094  -1.774   2.276  0.00  0.00    -0.235 NA
ATOM     27  C   UNL     1       2.121  -3.376   2.193  0.00  0.00    +0.141 C 
ATOM     28  N   UNL     1       1.713  -3.403   0.775  0.00  0.00    -0.234 NA
ATOM     29  H   UNL     1       1.680  -4.349   0.425  0.00  0.00    +0.145 HD
BRANCH  20  31
ATOM     30  C   UNL     1       0.578  -1.796  -1.538  0.00  0.00    +0.029 C 
ATOM     31  C   UNL     1      -0.250  -2.637  -0.564  0.00  0.00    +0.086 C 
ATOM     32  C   UNL     1      -0.527  -4.009  -1.184  0.00  0.00    +0.029 C 
ENDBRANCH  20  31
BRANCH  25  33
ATOM     33  C   UNL     1      -2.657  -0.757   3.849  0.00  0.00    +0.038 C 
ATOM     34  C   UNL     1      -3.102  -0.738   5.312  0.00  0.00    +0.010 C 
ATOM     35  C   UNL     1      -3.829  -1.629   4.303  0.00  0.00    +0.010 C 
ENDBRANCH  25  33
ENDBRANCH   1  23
TORSDOF 4
