REMARK  Name = ZINC39623218
REMARK  7 active torsions:
REMARK  status: ('A' for Active; 'I' for Inactive)
REMARK    1  A    between atoms: C_1  and  C_2
REMARK    2  A    between atoms: C_4  and  C_7
REMARK    3  A    between atoms: C_8  and  C_13
REMARK    4  A    between atoms: C_9  and  C_12
REMARK    5  A    between atoms: C_17  and  C_26
REMARK    6  A    between atoms: N_28  and  C_29
REMARK    7  A    between atoms: C_29  and  C_30
REMARK                            x       y       z     vdW  Elec       q    Type
REMARK                         _______ _______ _______ _____ _____    ______ ____
ROOT
ATOM      1  C   UNL     1       0.486  -5.203   0.014  0.00  0.00    +0.252 C 
ATOM      2  O   UNL     1       1.104  -5.353   1.051  0.00  0.00    -0.270 OA
ATOM      3  N   UNL     1       1.106  -5.368  -1.170  0.00  0.00    -0.296 N 
ATOM      4  C   UNL     1       0.528  -5.224  -2.527  0.00  0.00    +0.121 C 
ATOM      5  C   UNL     1       1.637  -4.536  -3.353  0.00  0.00    +0.100 C 
ATOM      6  C   UNL     1       2.944  -4.878  -2.617  0.00  0.00    -0.004 C 
ATOM      7  C   UNL     1       2.524  -5.730  -1.411  0.00  0.00    +0.115 C 
ATOM      8  C   UNL     1       3.872  -5.673  -3.530  0.00  0.00    -0.010 C 
ATOM      9  C   UNL     1       5.187  -5.950  -2.796  0.00  0.00    -0.082 C 
ATOM     10  N   UNL     1       5.814  -4.679  -2.414  0.00  0.00    +0.379 N 
ATOM     11  C   UNL     1       4.955  -3.963  -1.463  0.00  0.00    -0.082 C 
ATOM     12  C   UNL     1       3.631  -3.601  -2.141  0.00  0.00    -0.010 C 
ATOM     13  H   UNL     1       6.709  -4.862  -1.985  0.00  0.00    -0.086 HD
ATOM     14  H   UNL     1       5.949  -4.111  -3.237  0.00  0.00    -0.086 HD
ENDROOT
BRANCH   1  16
ATOM     15  C   UNL     1      -1.463  -3.554   0.069  0.00  0.00    +0.201 A 
ATOM     16  C   UNL     1      -0.941  -4.840   0.054  0.00  0.00    +0.108 A 
ATOM     17  C   UNL     1      -2.036  -5.739   0.083  0.00  0.00    +0.093 A 
ATOM     18  N   UNL     1      -3.132  -5.042   0.113  0.00  0.00    -0.082 NA
ATOM     19  O   UNL     1      -2.800  -3.666   0.110  0.00  0.00    -0.352 OA
ATOM     20  C   UNL     1      -1.945  -7.243   0.080  0.00  0.00    +0.070 C 
BRANCH  15  24
ATOM     21  C   UNL     1      -0.321   1.389   0.049  0.00  0.00    +0.089 C 
ATOM     22  C   UNL     1      -0.203  -0.113   0.041  0.00  0.00    +0.135 A 
ATOM     23  C   UNL     1      -1.227  -0.983   0.069  0.00  0.00    +0.079 A 
ATOM     24  C   UNL     1      -0.690  -2.295   0.048  0.00  0.00    +0.152 A 
ATOM     25  N   UNL     1       0.619  -2.190   0.009  0.00  0.00    -0.075 NA
ATOM     26  O   UNL     1       0.942  -0.811  -0.002  0.00  0.00    -0.359 OA
ENDBRANCH  15  24
ENDBRANCH   1  16
BRANCH   5  27
ATOM     27  C   UNL     1       1.664  -5.086  -4.756  0.00  0.00    +0.218 C 
ATOM     28  O   UNL     1       1.342  -6.237  -4.963  0.00  0.00    -0.275 OA
ATOM     29  N   UNL     1       2.045  -4.298  -5.782  0.00  0.00    -0.311 N 
ATOM     30  H   UNL     1       2.302  -3.378  -5.617  0.00  0.00    +0.149 HD
BRANCH  29  31
ATOM     31  C   UNL     1       2.070  -4.833  -7.146  0.00  0.00    +0.141 C 
BRANCH  31  32
ATOM     32  C   UNL     1       2.529  -3.758  -8.098  0.00  0.00    -0.012 A 
ATOM     33  C   UNL     1       1.601  -3.054  -8.843  0.00  0.00    +0.006 A 
ATOM     34  C   UNL     1       2.022  -2.068  -9.716  0.00  0.00    +0.000 A 
ATOM     35  C   UNL     1       3.369  -1.786  -9.845  0.00  0.00    +0.001 A 
ATOM     36  C   UNL     1       4.297  -2.489  -9.100  0.00  0.00    +0.020 A 
ATOM     37  C   UNL     1       3.876  -3.472  -8.221  0.00  0.00    +0.046 A 
ATOM     38 CL   UNL     1       5.040  -4.351  -7.280  0.00  0.00    -0.083 Cl
ENDBRANCH  31  32
ENDBRANCH  29  31
ENDBRANCH   5  27
TORSDOF 5
