REMARK  Name = ZINC25807951
REMARK  7 active torsions:
REMARK  status: ('A' for Active; 'I' for Inactive)
REMARK    1  A    between atoms: C_1  and  C_2
REMARK    2  A    between atoms: C_2  and  C_3
REMARK    3  A    between atoms: C_3  and  C_25
REMARK    4  A    between atoms: N_6  and  C_10
REMARK    5  A    between atoms: C_10  and  C_11
REMARK    6  A    between atoms: N_13  and  C_14
REMARK    7  A    between atoms: C_25  and  C_26
REMARK                            x       y       z     vdW  Elec       q    Type
REMARK                         _______ _______ _______ _____ _____    ______ ____
ROOT
ATOM      1  C   UNL     1      -0.743   1.582  -1.213  0.00  0.00    +0.235 C 
ATOM      2  O   UNL     1      -1.734   2.271  -1.088  0.00  0.00    -0.274 OA
ATOM      3  N   UNL     1      -0.288   1.272  -2.443  0.00  0.00    -0.283 N 
ATOM      4  H   UNL     1       0.659   0.725  -2.558  0.00  0.00    +0.155 HD
ENDROOT
BRANCH   3   5
ATOM      5  C   UNL     1      -1.023   1.647  -3.576  0.00  0.00    +0.051 A 
ATOM      6  C   UNL     1      -2.392   1.853  -3.480  0.00  0.00    +0.073 A 
ATOM      7  C   UNL     1      -3.118   2.225  -4.601  0.00  0.00    +0.164 A 
ATOM      8  C   UNL     1      -2.473   2.392  -5.821  0.00  0.00    +0.163 A 
ATOM      9  C   UNL     1      -1.105   2.184  -5.914  0.00  0.00    +0.066 A 
ATOM     10  C   UNL     1      -0.380   1.818  -4.795  0.00  0.00    +0.043 A 
ATOM     11 BR   UNL     1       1.487   1.544  -4.926  0.00  0.00    -0.048 Br
ATOM     12  O   UNL     1      -3.168   2.761  -6.931  0.00  0.00    -0.485 OA
ATOM     13  C   UNL     1      -4.590   2.596  -6.885  0.00  0.00    +0.270 C 
ATOM     14  C   UNL     1      -5.094   3.151  -5.546  0.00  0.00    +0.270 C 
ATOM     15  O   UNL     1      -4.461   2.419  -4.491  0.00  0.00    -0.485 OA
ENDBRANCH   3   5
BRANCH   1  16
ATOM     16  C   UNL     1      -0.021   1.073   0.008  0.00  0.00    +0.214 C 
BRANCH  16  20
ATOM     17  C   UNL     1      -1.372   2.770   3.023  0.00  0.00    +0.112 C 
ATOM     18  C   UNL     1      -0.421   2.700   1.844  0.00  0.00    +0.247 C 
ATOM     19  O   UNL     1       0.420   3.516   1.533  0.00  0.00    -0.273 OA
ATOM     20  N   UNL     1      -0.707   1.544   1.213  0.00  0.00    -0.215 N 
ATOM     21  C   UNL     1      -1.691   0.877   1.827  0.00  0.00    +0.310 C 
ATOM     22  O   UNL     1      -2.121  -0.194   1.447  0.00  0.00    -0.252 OA
ATOM     23  N   UNL     1      -2.152   1.525   2.913  0.00  0.00    -0.285 N 
ATOM     24  H   UNL     1      -2.933   1.298   3.653  0.00  0.00    +0.151 HD
BRANCH  17  26
ATOM     25  C   UNL     1      -3.106   3.896   1.619  0.00  0.00    +0.006 C 
ATOM     26  C   UNL     1      -2.288   3.990   2.909  0.00  0.00    +0.032 C 
ENDBRANCH  17  26
BRANCH  17  27
ATOM     27  C   UNL     1      -0.592   2.802   4.338  0.00  0.00    +0.032 C 
ATOM     28  C   UNL     1       0.355   1.601   4.399  0.00  0.00    +0.006 C 
ENDBRANCH  17  27
ENDBRANCH  16  20
ENDBRANCH   1  16
TORSDOF 5
