REMARK  Name = ZINC20573590
REMARK  9 active torsions:
REMARK  status: ('A' for Active; 'I' for Inactive)
REMARK    1  A    between atoms: C_1  and  C_2
REMARK    2  A    between atoms: C_4  and  C_34
REMARK    3  A    between atoms: C_6  and  C_8
REMARK    4  A    between atoms: N_10  and  C_11
REMARK    5  A    between atoms: C_11  and  C_13
REMARK    6  A    between atoms: C_11  and  C_17
REMARK    7  A    between atoms: C_13  and  C_14
REMARK    8  A    between atoms: C_14  and  S_15
REMARK    9  A    between atoms: S_15  and  C_16
REMARK                            x       y       z     vdW  Elec       q    Type
REMARK                         _______ _______ _______ _____ _____    ______ ____
ROOT
ATOM      1  C   UNL     1      -0.494  -1.993   5.936  0.00  0.00    +0.236 C 
ATOM      2  O   UNL     1      -0.624  -0.813   5.688  0.00  0.00    -0.274 OA
ATOM      3  N   UNL     1      -0.849  -2.470   7.146  0.00  0.00    -0.300 N 
ATOM      4  C   UNL     1      -0.593  -3.872   7.502  0.00  0.00    +0.110 C 
ATOM      5  C   UNL     1       0.189  -3.910   8.819  0.00  0.00    +0.047 C 
ATOM      6  C   UNL     1      -0.571  -3.118   9.883  0.00  0.00    +0.064 C 
ATOM      7  C   UNL     1      -0.709  -1.660   9.443  0.00  0.00    +0.047 C 
ATOM      8  C   UNL     1      -1.495  -1.596   8.135  0.00  0.00    +0.110 C 
ATOM      9  C   UNL     1       0.175  -3.183  11.192  0.00  0.00    +0.057 A 
ATOM     10  C   UNL     1      -0.433  -3.402  12.381  0.00  0.00    +0.039 A 
ATOM     11  N   UNL     1       0.536  -3.400  13.333  0.00  0.00    -0.349 N 
ATOM     12  H   UNL     1       0.410  -3.533  14.285  0.00  0.00    +0.166 HD
ATOM     13  C   UNL     1       1.712  -3.177  12.700  0.00  0.00    +0.171 A 
ATOM     14  N   UNL     1       1.482  -3.049  11.418  0.00  0.00    -0.348 N 
ATOM     15  C   UNL     1      -1.919  -3.599  12.530  0.00  0.00    +0.070 C 
ATOM     16  C   UNL     1      -2.591  -3.116  11.236  0.00  0.00    +0.088 C 
ATOM     17  N   UNL     1      -1.906  -3.704  10.076  0.00  0.00    -0.305 NA
ATOM     18  H   UNL     1      -2.465  -3.612   9.241  0.00  0.00    +0.123 HD
ATOM     19  H   UNL     1       2.156  -2.882  10.740  0.00  0.00    +0.166 HD
ENDROOT
BRANCH   1  20
ATOM     20  C   UNL     1       0.064  -2.925   4.893  0.00  0.00    +0.160 C 
BRANCH  20  23
ATOM     21  C   UNL     1      -0.282  -3.217   2.498  0.00  0.00    +0.245 C 
ATOM     22  O   UNL     1      -0.115  -4.411   2.649  0.00  0.00    -0.270 OA
ATOM     23  N   UNL     1      -0.213  -2.388   3.558  0.00  0.00    -0.300 N 
ATOM     24  H   UNL     1      -0.347  -1.435   3.438  0.00  0.00    +0.150 HD
BRANCH  21  30
ATOM     25  C   UNL     1      -1.227   0.677  -0.476  0.00  0.00    +0.044 C 
ATOM     26  C   UNL     1      -1.018  -0.803  -0.284  0.00  0.00    -0.049 A 
ATOM     27  C   UNL     1      -1.088  -1.657  -1.370  0.00  0.00    +0.006 A 
ATOM     28  C   UNL     1      -0.897  -3.017  -1.202  0.00  0.00    -0.049 A 
ATOM     29  C   UNL     1      -0.635  -3.530   0.052  0.00  0.00    +0.016 A 
ATOM     30  C   UNL     1      -0.562  -2.674   1.152  0.00  0.00    +0.037 A 
ATOM     31  C   UNL     1      -0.751  -1.303   0.974  0.00  0.00    +0.016 A 
ATOM     32  C   UNL     1      -0.975  -3.940  -2.390  0.00  0.00    +0.044 C 
ENDBRANCH  21  30
ENDBRANCH  20  23
BRANCH  20  33
ATOM     33  C   UNL     1       1.576  -3.059   5.084  0.00  0.00    +0.042 C 
BRANCH  33  34
ATOM     34  C   UNL     1       2.121  -4.114   4.119  0.00  0.00    +0.071 C 
BRANCH  34  35
ATOM     35  S   UNL     1       3.914  -4.272   4.346  0.00  0.00    -0.164 S 
ATOM     36  C   UNL     1       4.398  -5.543   3.146  0.00  0.00    +0.084 C 
ENDBRANCH  34  35
ENDBRANCH  33  34
ENDBRANCH  20  33
ENDBRANCH   1  20
TORSDOF 6
