REMARK  Name = ZINC00652072
REMARK  5 active torsions:
REMARK  status: ('A' for Active; 'I' for Inactive)
REMARK    1  A    between atoms: C_10  and  C_11
REMARK    2  A    between atoms: C_20  and  C_28
REMARK    3  A    between atoms: C_21  and  N_27
REMARK    4  A    between atoms: C_22  and  C_23
REMARK    5  A    between atoms: C_22  and  C_25
REMARK                            x       y       z     vdW  Elec       q    Type
REMARK                         _______ _______ _______ _____ _____    ______ ____
ROOT
ATOM      1  C   UNL     1       2.240   3.689   0.997  0.00  0.00    +0.067 C 
ATOM      2  C   UNL     1       1.474   3.232  -0.244  0.00  0.00    +0.030 C 
ATOM      3  C   UNL     1       0.158   3.955  -0.401  0.00  0.00    +0.009 C 
ATOM      4  C   UNL     1      -1.021   3.109   0.075  0.00  0.00    +0.005 C 
ATOM      5  C   UNL     1      -1.035   1.804  -0.739  0.00  0.00    +0.027 C 
ATOM      6  C   UNL     1       0.251   1.074  -0.448  0.00  0.00    -0.022 C 
ATOM      7  C   UNL     1       1.366   1.736  -0.207  0.00  0.00    -0.029 C 
ATOM      8  C   UNL     1       2.603   0.983   0.129  0.00  0.00    +0.074 C 
ATOM      9  C   UNL     1       3.655   1.645   0.673  0.00  0.00    +0.054 C 
ATOM     10  C   UNL     1       3.659   3.120   0.940  0.00  0.00    +0.188 C 
ENDROOT
BRANCH   1  20
ATOM     11  C   UNL     1       1.165   7.322   4.439  0.00  0.00    +0.001 A 
ATOM     12  C   UNL     1       1.102   5.930   4.431  0.00  0.00    +0.001 A 
ATOM     13  C   UNL     1       1.467   5.218   3.330  0.00  0.00    +0.009 A 
ATOM     14  C   UNL     1       1.915   5.895   2.182  0.00  0.00    -0.014 A 
ATOM     15  C   UNL     1       1.979   7.311   2.191  0.00  0.00    -0.018 A 
ATOM     16  C   UNL     1       1.593   8.011   3.347  0.00  0.00    +0.008 A 
ATOM     17  C   UNL     1       2.427   7.987   1.044  0.00  0.00    +0.008 A 
ATOM     18  C   UNL     1       2.793   7.276  -0.058  0.00  0.00    +0.001 A 
ATOM     19  C   UNL     1       2.736   5.883  -0.064  0.00  0.00    +0.004 A 
ATOM     20  C   UNL     1       2.301   5.195   1.027  0.00  0.00    -0.033 A 
ENDBRANCH   1  20
BRANCH   9  21
ATOM     21  N   UNL     1       4.773   0.928   0.995  0.00  0.00    -0.358 N 
ATOM     22  H   UNL     1       5.643   1.435   1.437  0.00  0.00    +0.142 HD
ATOM     23  H   UNL     1       4.803  -0.156   0.811  0.00  0.00    +0.142 HD
ENDBRANCH   9  21
BRANCH  10  24
ATOM     24  C   UNL     1       4.329   3.373   2.226  0.00  0.00    +0.091 C 
ATOM     25  N   UNL     1       4.847   3.568   3.218  0.00  0.00    -0.194 NA
ENDBRANCH  10  24
BRANCH  10  26
ATOM     26  C   UNL     1       4.406   3.800  -0.131  0.00  0.00    +0.091 C 
ATOM     27  N   UNL     1       4.982   4.325  -0.957  0.00  0.00    -0.194 NA
ENDBRANCH  10  26
BRANCH   8  28
ATOM     28  C   UNL     1       2.684  -0.425  -0.120  0.00  0.00    +0.101 C 
ATOM     29  N   UNL     1       2.748  -1.542  -0.318  0.00  0.00    -0.191 NA
ENDBRANCH   8  28
TORSDOF 5
