REMARK  Name = ZINC35936916
REMARK  5 active torsions:
REMARK  status: ('A' for Active; 'I' for Inactive)
REMARK    1  A    between atoms: C_1  and  C_2
REMARK    2  A    between atoms: C_2  and  C_3
REMARK    3  A    between atoms: C_3  and  C_4
REMARK    4  A    between atoms: C_4  and  C_5
REMARK    5  A    between atoms: C_9  and  C_14
REMARK                            x       y       z     vdW  Elec       q    Type
REMARK                         _______ _______ _______ _____ _____    ______ ____
ROOT
ATOM      1  C   UNL     1       1.375  -2.354  -2.449  0.00  0.00    +0.135 A 
ATOM      2  N   UNL     1       0.647  -2.430  -3.547  0.00  0.00    -0.216 NA
ATOM      3  C   UNL     1       1.219  -2.466  -4.747  0.00  0.00    +0.138 A 
ATOM      4  C   UNL     1       2.620  -2.421  -4.819  0.00  0.00    +0.108 A 
ATOM      5  C   UNL     1       3.600  -2.438  -5.911  0.00  0.00    +0.126 A 
ATOM      6  N   UNL     1       4.786  -2.372  -5.363  0.00  0.00    -0.075 NA
ATOM      7  O   UNL     1       4.654  -2.311  -3.956  0.00  0.00    -0.334 OA
ATOM      8  C   UNL     1       3.353  -2.341  -3.624  0.00  0.00    +0.264 A 
ATOM      9  N   UNL     1       2.690  -2.304  -2.471  0.00  0.00    -0.195 NA
ATOM     10  N   UNL     1       0.454  -2.547  -5.894  0.00  0.00    -0.316 N 
ATOM     11  C   UNL     1      -0.373  -3.750  -6.115  0.00  0.00    +0.104 C 
ATOM     12  C   UNL     1      -1.757  -3.375  -6.675  0.00  0.00    -0.000 C 
ATOM     13  C   UNL     1      -2.258  -2.125  -5.985  0.00  0.00    -0.081 C 
ATOM     14  N   UNL     1      -1.887  -0.955  -6.777  0.00  0.00    +0.380 N 
ATOM     15  C   UNL     1      -0.611  -0.420  -6.488  0.00  0.00    -0.063 C 
ATOM     16  C   UNL     1       0.487  -1.445  -6.834  0.00  0.00    +0.087 C 
ATOM     17  H   UNL     1      -1.911  -1.211  -7.753  0.00  0.00    -0.086 HD
ATOM     18  H   UNL     1      -2.576  -0.235  -6.624  0.00  0.00    -0.086 HD
ENDROOT
BRANCH   5  19
ATOM     19  C   UNL     1       3.302  -2.517  -7.361  0.00  0.00    +0.005 A 
ATOM     20  C   UNL     1       2.346  -3.434  -7.827  0.00  0.00    +0.011 A 
ATOM     21  C   UNL     1       2.056  -3.525  -9.150  0.00  0.00    +0.009 A 
ATOM     22  C   UNL     1       2.715  -2.695 -10.074  0.00  0.00    -0.018 A 
ATOM     23  C   UNL     1       2.432  -2.769 -11.448  0.00  0.00    +0.008 A 
ATOM     24  C   UNL     1       3.087  -1.952 -12.318  0.00  0.00    +0.001 A 
ATOM     25  C   UNL     1       4.037  -1.038 -11.866  0.00  0.00    +0.001 A 
ATOM     26  C   UNL     1       4.338  -0.936 -10.543  0.00  0.00    +0.008 A 
ATOM     27  C   UNL     1       3.682  -1.764  -9.615  0.00  0.00    -0.017 A 
ATOM     28  C   UNL     1       3.964  -1.682  -8.242  0.00  0.00    +0.018 A 
ENDBRANCH   5  19
BRANCH   1  29
ATOM     29  C   UNL     1       0.672  -2.316  -1.116  0.00  0.00    +0.076 C 
BRANCH  29  30
ATOM     30  C   UNL     1       0.379  -0.864  -0.735  0.00  0.00    +0.007 C 
BRANCH  30  32
ATOM     31  C   UNL     1      -0.627   0.627   0.999  0.00  0.00    +0.004 C 
ATOM     32  C   UNL     1      -0.334  -0.825   0.618  0.00  0.00    -0.003 C 
ENDBRANCH  30  32
ENDBRANCH  29  30
ENDBRANCH   1  29
TORSDOF 4
