REMARK  Name = ZINC08991084
REMARK  6 active torsions:
REMARK  status: ('A' for Active; 'I' for Inactive)
REMARK    1  A    between atoms: C_1  and  C_2
REMARK    2  A    between atoms: C_10  and  C_30
REMARK    3  A    between atoms: C_15  and  C_16
REMARK    4  A    between atoms: C_16  and  C_17
REMARK    5  A    between atoms: N_19  and  C_20
REMARK    6  A    between atoms: C_27  and  O_29
REMARK                            x       y       z     vdW  Elec       q    Type
REMARK                         _______ _______ _______ _____ _____    ______ ____
ROOT
ATOM      1  C   UNL     1      -2.451   0.999  -2.477  0.00  0.00    +0.045 C 
ATOM      2  C   UNL     1      -2.984   0.509  -1.155  0.00  0.00    -0.029 A 
ATOM      3  C   UNL     1      -4.081  -0.462  -1.092  0.00  0.00    +0.022 A 
ATOM      4  C   UNL     1      -4.658  -0.958  -2.261  0.00  0.00    +0.023 A 
ATOM      5  C   UNL     1      -5.698  -1.873  -2.173  0.00  0.00    +0.025 A 
ATOM      6  C   UNL     1      -6.519  -2.590  -3.149  0.00  0.00    +0.001 A 
ATOM      7  C   UNL     1      -7.378  -3.348  -2.449  0.00  0.00    +0.109 A 
ATOM      8  O   UNL     1      -7.172  -3.172  -1.133  0.00  0.00    -0.459 OA
ATOM      9  C   UNL     1      -6.169  -2.295  -0.911  0.00  0.00    +0.142 A 
ATOM     10  C   UNL     1      -5.591  -1.796   0.245  0.00  0.00    +0.035 A 
ATOM     11  C   UNL     1      -4.550  -0.884   0.169  0.00  0.00    +0.146 A 
ATOM     12  O   UNL     1      -3.992  -0.405   1.300  0.00  0.00    -0.422 OA
ATOM     13  C   UNL     1      -2.988   0.475   1.237  0.00  0.00    +0.341 A 
ATOM     14  O   UNL     1      -2.508   0.886   2.278  0.00  0.00    -0.245 OA
ATOM     15  C   UNL     1      -2.462   0.950   0.019  0.00  0.00    +0.049 A 
ATOM     16  C   UNL     1      -6.095  -2.248   1.591  0.00  0.00    +0.051 C 
ATOM     17  C   UNL     1      -8.408  -4.250  -3.089  0.00  0.00    +0.075 C 
ATOM     18  C   UNL     1      -8.581  -3.831  -4.553  0.00  0.00    +0.008 C 
ATOM     19  C   UNL     1      -7.207  -3.732  -5.223  0.00  0.00    +0.005 C 
ATOM     20  C   UNL     1      -6.451  -2.526  -4.652  0.00  0.00    +0.039 C 
ENDROOT
BRANCH  15  21
ATOM     21  C   UNL     1      -1.330   1.944   0.019  0.00  0.00    +0.138 C 
BRANCH  21  22
ATOM     22  C   UNL     1      -0.014   1.209   0.009  0.00  0.00    +0.218 C 
ATOM     23  O   UNL     1       0.002  -0.004   0.002  0.00  0.00    -0.275 OA
ATOM     24  N   UNL     1       1.143   1.898   0.001  0.00  0.00    -0.308 N 
ATOM     25  H   UNL     1       1.130   2.868   0.007  0.00  0.00    +0.149 HD
BRANCH  24  26
ATOM     26  C   UNL     1       2.422   1.183  -0.015  0.00  0.00    +0.124 C 
ATOM     27  C   UNL     1       2.795   0.871  -1.477  0.00  0.00    +0.190 C 
ATOM     28  S   UNL     1       4.485   1.584  -1.642  0.00  0.00    -0.027 S 
ATOM     29  O   UNL     1       5.343   0.619  -2.235  0.00  0.00    -0.174 OA
ATOM     30  O   UNL     1       4.390   2.884  -2.209  0.00  0.00    -0.174 OA
ATOM     31  C   UNL     1       4.885   1.732   0.154  0.00  0.00    +0.199 C 
ATOM     32  C   UNL     1       3.466   2.030   0.713  0.00  0.00    +0.157 C 
BRANCH  32  33
ATOM     33  O   UNL     1       3.433   1.724   2.108  0.00  0.00    -0.388 OA
ATOM     34  H   UNL     1       4.070   2.225   2.636  0.00  0.00    +0.210 HD
ENDBRANCH  32  33
ENDBRANCH  24  26
ENDBRANCH  21  22
ENDBRANCH  15  21
TORSDOF 4
