REMARK  Name = ZINC11336464
REMARK  11 active torsions:
REMARK  status: ('A' for Active; 'I' for Inactive)
REMARK    1  A    between atoms: C_1  and  C_2
REMARK    2  A    between atoms: C_5  and  C_17
REMARK    3  A    between atoms: C_7  and  S_8
REMARK    4  A    between atoms: S_8  and  N_11
REMARK    5  A    between atoms: C_17  and  O_19
REMARK    6  A    between atoms: O_19  and  C_20
REMARK    7  A    between atoms: C_20  and  C_21
REMARK    8  A    between atoms: N_26  and  C_27
REMARK    9  A    between atoms: C_27  and  C_28
REMARK   10  A    between atoms: C_28  and  C_29
REMARK   11  A    between atoms: C_28  and  C_30
REMARK                            x       y       z     vdW  Elec       q    Type
REMARK                         _______ _______ _______ _____ _____    ______ ____
ROOT
ATOM      1  C   UNL     1       2.042   0.989  -0.224  0.00  0.00    +0.046 C 
ATOM      2  C   UNL     1       0.869   1.935  -0.214  0.00  0.00    -0.024 A 
ATOM      3  C   UNL     1      -0.415   1.439  -0.071  0.00  0.00    +0.006 A 
ATOM      4  C   UNL     1      -1.493   2.299  -0.067  0.00  0.00    +0.015 A 
ATOM      5  C   UNL     1      -1.286   3.674  -0.195  0.00  0.00    +0.061 A 
ATOM      6  C   UNL     1       0.012   4.168  -0.340  0.00  0.00    +0.043 A 
ATOM      7  C   UNL     1       1.081   3.296  -0.348  0.00  0.00    +0.109 A 
ENDROOT
BRANCH   7   8
ATOM      8  S   UNL     1       2.720   3.917  -0.530  0.00  0.00    +0.061 S 
ATOM      9  O   UNL     1       2.614   5.332  -0.592  0.00  0.00    -0.153 OA
ATOM     10  O   UNL     1       3.516   3.254   0.443  0.00  0.00    -0.153 OA
BRANCH   8  11
ATOM     11  N   UNL     1       3.271   3.419  -2.010  0.00  0.00    -0.177 NA
ATOM     12  C   UNL     1       4.047   2.178  -2.142  0.00  0.00    +0.109 C 
ATOM     13  C   UNL     1       3.377   1.293  -3.204  0.00  0.00    +0.017 C 
ATOM     14  C   UNL     1       3.234   2.086  -4.505  0.00  0.00    +0.003 C 
ATOM     15  C   UNL     1       2.344   3.307  -4.265  0.00  0.00    +0.017 C 
ATOM     16  C   UNL     1       2.998   4.213  -3.216  0.00  0.00    +0.109 C 
ENDBRANCH   8  11
ENDBRANCH   7   8
BRANCH   5  17
ATOM     17  C   UNL     1      -2.436   4.602  -0.184  0.00  0.00    +0.340 C 
ATOM     18  O   UNL     1      -2.253   5.797  -0.301  0.00  0.00    -0.245 OA
BRANCH  17  19
ATOM     19  O   UNL     1      -3.687   4.122  -0.045  0.00  0.00    -0.452 OA
BRANCH  19  20
ATOM     20  C   UNL     1      -4.768   5.092  -0.043  0.00  0.00    +0.328 C 
BRANCH  20  21
ATOM     21  C   UNL     1      -6.084   4.376   0.121  0.00  0.00    +0.258 C 
ATOM     22  O   UNL     1      -6.108   3.169   0.227  0.00  0.00    -0.272 OA
ATOM     23  N   UNL     1      -7.234   5.079   0.152  0.00  0.00    -0.237 N 
ATOM     24  C   UNL     1      -8.411   4.439   0.299  0.00  0.00    +0.306 C 
ATOM     25  O   UNL     1      -8.435   3.228   0.404  0.00  0.00    -0.252 OA
ATOM     26  N   UNL     1      -9.560   5.141   0.329  0.00  0.00    -0.299 N 
ATOM     27  H   UNL     1      -7.214   6.045   0.067  0.00  0.00    +0.159 HD
ATOM     28  H   UNL     1      -9.541   6.107   0.245  0.00  0.00    +0.150 HD
BRANCH  26  29
ATOM     29  C   UNL     1     -10.840   4.445   0.489  0.00  0.00    +0.108 C 
BRANCH  29  30
ATOM     30  C   UNL     1     -11.979   5.467   0.491  0.00  0.00    -0.000 C 
ATOM     31  C   UNL     1     -12.056   6.147  -0.877  0.00  0.00    +0.009 C 
ATOM     32  C   UNL     1     -13.302   4.755   0.782  0.00  0.00    +0.009 C 
ENDBRANCH  29  30
ENDBRANCH  26  29
ENDBRANCH  20  21
ENDBRANCH  19  20
ENDBRANCH  17  19
ENDBRANCH   5  17
TORSDOF 8
