REMARK  Name = ZINC36359767
REMARK  4 active torsions:
REMARK  status: ('A' for Active; 'I' for Inactive)
REMARK    1  A    between atoms: C_1  and  O_2
REMARK    2  A    between atoms: O_2  and  C_3
REMARK    3  A    between atoms: C_7  and  C_9
REMARK    4  A    between atoms: C_11  and  C_24
REMARK                            x       y       z     vdW  Elec       q    Type
REMARK                         _______ _______ _______ _____ _____    ______ ____
ROOT
ATOM      1  C   UNL     1       1.396  -4.107   2.222  0.00  0.00    +0.073 A 
ATOM      2  C   UNL     1       1.941  -4.733   3.346  0.00  0.00    +0.038 A 
ATOM      3  C   UNL     1       2.009  -6.093   3.413  0.00  0.00    +0.031 A 
ATOM      4  C   UNL     1       1.521  -6.863   2.329  0.00  0.00    +0.042 A 
ATOM      5  C   UNL     1       1.503  -8.331   2.206  0.00  0.00    +0.098 A 
ATOM      6  C   UNL     1       0.963  -8.840   1.027  0.00  0.00    +0.105 A 
ATOM      7  C   UNL     1       0.891 -10.217   0.795  0.00  0.00    +0.269 A 
ATOM      8  N   UNL     1       1.363 -11.052   1.750  0.00  0.00    -0.273 N 
ATOM      9  C   UNL     1       1.885 -10.527   2.893  0.00  0.00    +0.349 A 
ATOM     10  O   UNL     1       2.353 -11.372   3.838  0.00  0.00    -0.245 OA
ATOM     11  N   UNL     1       1.954  -9.244   3.113  0.00  0.00    -0.192 NA
ATOM     12  O   UNL     1       0.417 -10.654  -0.241  0.00  0.00    -0.266 OA
ATOM     13  S   UNL     1       0.486  -7.410   0.095  0.00  0.00    -0.062 S 
ATOM     14  C   UNL     1       0.989  -6.148   1.239  0.00  0.00    +0.112 A 
ATOM     15  N   UNL     1       0.935  -4.833   1.212  0.00  0.00    -0.239 NA
ATOM     16  H   UNL     1       1.329 -12.013   1.622  0.00  0.00    +0.174 HD
ENDROOT
BRANCH   1  21
ATOM     17  C   UNL     1       0.626  -0.618   1.042  0.00  0.00    +0.121 A 
ATOM     18  C   UNL     1       1.202   0.140   2.051  0.00  0.00    +0.045 A 
ATOM     19  C   UNL     1       1.838  -0.480   3.111  0.00  0.00    +0.004 A 
ATOM     20  C   UNL     1       1.903  -1.858   3.170  0.00  0.00    +0.010 A 
ATOM     21  C   UNL     1       1.327  -2.627   2.161  0.00  0.00    +0.004 A 
ATOM     22  C   UNL     1       0.681  -2.001   1.096  0.00  0.00    +0.055 A 
BRANCH  17  24
ATOM     23  C   UNL     1      -0.017   1.425   0.010  0.00  0.00    +0.277 C 
ATOM     24  O   UNL     1       0.002  -0.004   0.002  0.00  0.00    -0.495 OA
ENDBRANCH  17  24
ENDBRANCH   1  21
BRANCH   3  25
ATOM     25  C   UNL     1       2.597  -6.769   4.624  0.00  0.00    +0.372 C 
ATOM     26  F   UNL     1       2.378  -5.973   5.754  0.00  0.00    -0.204 F 
ATOM     27  F   UNL     1       1.987  -8.014   4.806  0.00  0.00    -0.204 F 
ENDBRANCH   3  25
TORSDOF 3
