REMARK  Name = ZINC67386802
REMARK  4 active torsions:
REMARK  status: ('A' for Active; 'I' for Inactive)
REMARK    1  A    between atoms: C_1  and  C_2
REMARK    2  A    between atoms: C_2  and  C_4
REMARK    3  A    between atoms: C_2  and  N_13
REMARK    4  A    between atoms: C_20  and  C_23
REMARK                            x       y       z     vdW  Elec       q    Type
REMARK                         _______ _______ _______ _____ _____    ______ ____
ROOT
ATOM      1  N   UNL     1       0.688  -0.481  -1.202  0.00  0.00    -0.290 N 
ATOM      2  C   UNL     1       2.031  -0.587  -1.215  0.00  0.00    +0.303 C 
ATOM      3  O   UNL     1       2.681  -0.206  -0.261  0.00  0.00    -0.253 OA
ATOM      4  N   UNL     1       2.654  -1.116  -2.286  0.00  0.00    -0.281 N 
ATOM      5  C   UNL     1       1.903  -1.474  -3.500  0.00  0.00    +0.137 C 
ATOM      6  C   UNL     1       2.609  -0.847  -4.708  0.00  0.00    +0.179 C 
ATOM      7  O   UNL     1       3.991  -1.212  -4.686  0.00  0.00    -0.369 OA
ATOM      8  C   UNL     1       4.706  -0.733  -3.545  0.00  0.00    +0.166 C 
ATOM      9  C   UNL     1       4.107  -1.347  -2.279  0.00  0.00    +0.145 C 
ATOM     10  H   UNL     1       0.174  -0.717  -1.990  0.00  0.00    +0.151 HD
ENDROOT
BRANCH   8  11
ATOM     11  C   UNL     1       6.157  -1.121  -3.659  0.00  0.00    -0.015 A 
ATOM     12  C   UNL     1       6.506  -2.324  -4.245  0.00  0.00    +0.006 A 
ATOM     13  C   UNL     1       7.837  -2.682  -4.351  0.00  0.00    +0.003 A 
ATOM     14  C   UNL     1       8.820  -1.838  -3.870  0.00  0.00    +0.038 A 
ATOM     15  C   UNL     1       8.472  -0.633  -3.284  0.00  0.00    +0.124 A 
ATOM     16  C   UNL     1       7.139  -0.273  -3.184  0.00  0.00    +0.044 A 
ATOM     17  F   UNL     1       9.433   0.192  -2.814  0.00  0.00    -0.205 F 
ENDBRANCH   8  11
BRANCH   1  19
ATOM     18  C   UNL     1      -0.023   1.522   0.009  0.00  0.00    +0.036 C 
ATOM     19  C   UNL     1       0.002  -0.007   0.004  0.00  0.00    +0.140 C 
BRANCH  19  20
ATOM     20  C   UNL     1      -1.410  -0.533   0.018  0.00  0.00    +0.158 A 
ATOM     21  N   UNL     1      -2.239  -0.550  -0.993  0.00  0.00    -0.132 NA
ATOM     22  N   UNL     1      -3.364  -1.067  -0.640  0.00  0.00    -0.129 NA
ATOM     23  C   UNL     1      -3.309  -1.413   0.635  0.00  0.00    +0.161 A 
ATOM     24  N   UNL     1      -2.053  -1.083   1.083  0.00  0.00    -0.285 N 
ATOM     25  C   UNL     1      -1.694  -1.329   2.376  0.00  0.00    +0.094 A 
ATOM     26  C   UNL     1      -2.565  -1.903   3.232  0.00  0.00    +0.018 A 
ATOM     27  C   UNL     1      -3.856  -2.254   2.803  0.00  0.00    +0.005 A 
ATOM     28  C   UNL     1      -4.231  -2.008   1.518  0.00  0.00    +0.048 A 
ENDBRANCH  19  20
ENDBRANCH   1  19
TORSDOF 3
