REMARK  Name = ZINC65747932
REMARK  19 active torsions:
REMARK  status: ('A' for Active; 'I' for Inactive)
REMARK    1  A    between atoms: C_1  and  C_2
REMARK    2  A    between atoms: C_5  and  O_20
REMARK    3  A    between atoms: C_6  and  C_10
REMARK    4  A    between atoms: C_7  and  O_8
REMARK    5  A    between atoms: O_8  and  C_9
REMARK    6  A    between atoms: C_10  and  C_11
REMARK    7  A    between atoms: C_12  and  C_13
REMARK    8  A    between atoms: C_12  and  C_14
REMARK    9  A    between atoms: C_14  and  C_15
REMARK   10  A    between atoms: C_15  and  C_16
REMARK   11  A    between atoms: C_16  and  O_18
REMARK   12  A    between atoms: O_18  and  C_19
REMARK   13  A    between atoms: O_20  and  C_21
REMARK   14  A    between atoms: C_23  and  O_38
REMARK   15  A    between atoms: C_25  and  O_37
REMARK   16  A    between atoms: C_27  and  O_36
REMARK   17  A    between atoms: C_29  and  C_32
REMARK   18  A    between atoms: C_32  and  O_34
REMARK   19  A    between atoms: O_34  and  C_35
REMARK                            x       y       z     vdW  Elec       q    Type
REMARK                         _______ _______ _______ _____ _____    ______ ____
ROOT
ATOM      1  C   UNL     1       0.098   1.269   0.436  0.00  0.00    +0.048 C 
ATOM      2  C   UNL     1       0.033  -0.233   0.330  0.00  0.00    -0.001 A 
ATOM      3  C   UNL     1      -0.082  -0.829  -0.899  0.00  0.00    +0.014 A 
ATOM      4  C   UNL     1      -0.143  -2.224  -1.007  0.00  0.00    +0.108 A 
ATOM      5  C   UNL     1      -0.086  -3.010   0.153  0.00  0.00    +0.145 A 
ATOM      6  C   UNL     1       0.030  -2.398   1.390  0.00  0.00    +0.041 A 
ATOM      7  C   UNL     1       0.096  -1.016   1.481  0.00  0.00    +0.130 A 
ATOM      8  C   UNL     1      -0.264  -2.556  -2.433  0.00  0.00    +0.343 C 
ATOM      9  O   UNL     1      -0.341  -3.683  -2.881  0.00  0.00    -0.245 OA
ATOM     10  O   UNL     1      -0.277  -1.432  -3.169  0.00  0.00    -0.456 OA
ATOM     11  C   UNL     1      -0.169  -0.296  -2.307  0.00  0.00    +0.269 C 
ENDROOT
BRANCH   7  12
ATOM     12  O   UNL     1       0.216  -0.423   2.696  0.00  0.00    -0.494 OA
ATOM     13  C   UNL     1      -0.995  -0.092   3.379  0.00  0.00    +0.277 C 
ENDBRANCH   7  12
BRANCH   6  14
ATOM     14  C   UNL     1       0.093  -3.237   2.640  0.00  0.00    +0.069 C 
BRANCH  14  15
ATOM     15  C   UNL     1       1.531  -3.416   3.054  0.00  0.00    -0.023 C 
ATOM     16  C   UNL     1       1.909  -3.092   4.266  0.00  0.00    -0.076 C 
ATOM     17  C   UNL     1       0.945  -2.402   5.197  0.00  0.00    +0.039 C 
BRANCH  16  18
ATOM     18  C   UNL     1       3.308  -3.408   4.729  0.00  0.00    +0.041 C 
BRANCH  18  19
ATOM     19  C   UNL     1       4.204  -2.186   4.516  0.00  0.00    +0.125 C 
BRANCH  19  20
ATOM     20  C   UNL     1       5.603  -2.503   4.979  0.00  0.00    +0.307 C 
ATOM     21  O   UNL     1       5.857  -3.593   5.433  0.00  0.00    -0.251 OA
BRANCH  20  22
ATOM     22  O   UNL     1       6.566  -1.573   4.887  0.00  0.00    -0.468 OA
ATOM     23  C   UNL     1       7.869  -1.941   5.344  0.00  0.00    +0.280 C 
ENDBRANCH  20  22
ENDBRANCH  19  20
ENDBRANCH  18  19
ENDBRANCH  16  18
ENDBRANCH  14  15
ENDBRANCH   6  14
BRANCH   5  24
ATOM     24  O   UNL     1      -0.144  -4.362   0.065  0.00  0.00    -0.460 OA
BRANCH  24  25
ATOM     25  C   UNL     1       0.990  -5.093   0.536  0.00  0.00    +0.340 C 
ATOM     26  C   UNL     1       0.711  -6.594   0.428  0.00  0.00    +0.214 C 
ATOM     27  C   UNL     1       0.499  -6.962  -1.043  0.00  0.00    +0.180 C 
ATOM     28  C   UNL     1       1.734  -6.542  -1.846  0.00  0.00    +0.185 C 
ATOM     29  C   UNL     1       1.974  -5.043  -1.651  0.00  0.00    +0.261 C 
ATOM     30  O   UNL     1       2.132  -4.764  -0.258  0.00  0.00    -0.322 OA
BRANCH  29  31
ATOM     31  C   UNL     1       3.222  -4.633  -2.390  0.00  0.00    +0.339 C 
ATOM     32  O   UNL     1       4.184  -4.236  -1.777  0.00  0.00    -0.248 OA
BRANCH  31  33
ATOM     33  O   UNL     1       3.264  -4.710  -3.729  0.00  0.00    -0.466 OA
ATOM     34  C   UNL     1       4.479  -4.305  -4.364  0.00  0.00    +0.280 C 
ENDBRANCH  31  33
ENDBRANCH  29  31
BRANCH  28  35
ATOM     35  O   UNL     1       2.873  -7.273  -1.387  0.00  0.00    -0.386 OA
ATOM     36  H   UNL     1       3.693  -7.057  -1.852  0.00  0.00    +0.210 HD
ENDBRANCH  28  35
BRANCH  27  37
ATOM     37  O   UNL     1       0.308  -8.374  -1.160  0.00  0.00    -0.386 OA
ATOM     38  H   UNL     1      -0.455  -8.709  -0.670  0.00  0.00    +0.210 HD
ENDBRANCH  27  37
BRANCH  26  39
ATOM     39  O   UNL     1      -0.464  -6.916   1.176  0.00  0.00    -0.383 OA
ATOM     40  H   UNL     1      -0.402  -6.704   2.118  0.00  0.00    +0.210 HD
ENDBRANCH  26  39
ENDBRANCH  24  25
ENDBRANCH   5  24
TORSDOF 14
