REMARK  Name = ZINC08298820
REMARK  7 active torsions:
REMARK  status: ('A' for Active; 'I' for Inactive)
REMARK    1  A    between atoms: C_6  and  C_7
REMARK    2  A    between atoms: C_7  and  N_8
REMARK    3  A    between atoms: C_9  and  C_11
REMARK    4  A    between atoms: C_19  and  C_21
REMARK    5  A    between atoms: C_21  and  N_22
REMARK    6  A    between atoms: C_24  and  C_27
REMARK    7  A    between atoms: C_27  and  O_33
REMARK                            x       y       z     vdW  Elec       q    Type
REMARK                         _______ _______ _______ _____ _____    ______ ____
ROOT
ATOM      1  C   UNL     1      -3.341   3.224   3.084  0.00  0.00    +0.061 C 
ATOM      2  C   UNL     1      -2.287   4.069   3.806  0.00  0.00    -0.065 C 
ATOM      3  C   UNL     1      -3.401   6.118   3.138  0.00  0.00    -0.078 C 
ATOM      4  C   UNL     1      -4.484   5.328   2.398  0.00  0.00    -0.015 C 
ATOM      5  C   UNL     1      -4.677   3.977   3.097  0.00  0.00    -0.004 C 
ATOM      6  C   UNL     1      -5.080   4.233   4.555  0.00  0.00    -0.010 C 
ATOM      7  C   UNL     1      -3.980   5.054   5.235  0.00  0.00    -0.046 C 
ATOM      8  N   UNL     1      -2.885   5.338   4.283  0.00  0.00    +0.383 N 
ATOM      9  H   UNL     1      -2.161   5.887   4.762  0.00  0.00    -0.081 HD
ENDROOT
BRANCH   1  11
ATOM     10  N   UNL     1      -1.753   2.343   1.404  0.00  0.00    -0.311 N 
ATOM     11  C   UNL     1      -2.909   2.987   1.660  0.00  0.00    +0.215 C 
ATOM     12  O   UNL     1      -3.601   3.376   0.743  0.00  0.00    -0.276 OA
ATOM     13  H   UNL     1      -1.199   2.032   2.137  0.00  0.00    +0.149 HD
BRANCH  10  14
ATOM     14  C   UNL     1      -1.333   2.113   0.020  0.00  0.00    +0.139 C 
BRANCH  14  20
ATOM     15  C   UNL     1       1.169   2.089   0.002  0.00  0.00    +0.009 A 
ATOM     16  C   UNL     1       2.379   1.420  -0.013  0.00  0.00    +0.050 A 
ATOM     17  C   UNL     1       2.405   0.035  -0.021  0.00  0.00    +0.166 A 
ATOM     18  C   UNL     1       1.210  -0.681  -0.014  0.00  0.00    +0.167 A 
ATOM     19  C   UNL     1       0.002  -0.004   0.002  0.00  0.00    +0.054 A 
ATOM     20  C   UNL     1      -0.017   1.379   0.010  0.00  0.00    -0.027 A 
ATOM     21  O   UNL     1       1.501  -2.014  -0.024  0.00  0.00    -0.453 OA
ATOM     22  C   UNL     1       2.873  -2.106  -0.450  0.00  0.00    +0.466 C 
ATOM     23  O   UNL     1       3.444  -0.850  -0.036  0.00  0.00    -0.453 OA
ENDBRANCH  14  20
ENDBRANCH  10  14
ENDBRANCH   1  11
BRANCH   7  24
ATOM     24  C   UNL     1      -4.563   6.378   5.730  0.00  0.00    +0.130 C 
BRANCH  24  25
ATOM     25  N   UNL     1      -3.542   7.112   6.481  0.00  0.00    -0.253 N 
ATOM     26  C   UNL     1      -3.126   8.374   6.229  0.00  0.00    +0.136 A 
ATOM     27  C   UNL     1      -2.181   8.653   7.158  0.00  0.00    +0.114 A 
ATOM     28  N   UNL     1      -2.062   7.558   7.918  0.00  0.00    -0.132 NA
ATOM     29  N   UNL     1      -2.881   6.663   7.491  0.00  0.00    -0.065 NA
BRANCH  27  30
ATOM     30  C   UNL     1      -1.412   9.940   7.304  0.00  0.00    +0.111 C 
ATOM     31  C   UNL     1       0.084   9.661   7.148  0.00  0.00    +0.041 C 
ATOM     32  C   UNL     1       0.865  10.968   7.296  0.00  0.00    +0.003 C 
ATOM     33  C   UNL     1       0.600  11.566   8.679  0.00  0.00    +0.000 C 
ATOM     34  C   UNL     1      -0.896  11.846   8.835  0.00  0.00    +0.003 C 
ATOM     35  C   UNL     1      -1.677  10.539   8.687  0.00  0.00    +0.041 C 
BRANCH  30  36
ATOM     36  O   UNL     1      -1.832  10.863   6.297  0.00  0.00    -0.382 OA
ATOM     37  H   UNL     1      -1.694  10.549   5.393  0.00  0.00    +0.211 HD
ENDBRANCH  30  36
ENDBRANCH  27  30
ENDBRANCH  24  25
ENDBRANCH   7  24
TORSDOF 7
