REMARK  Name = ZINC57383462
REMARK  3 active torsions:
REMARK  status: ('A' for Active; 'I' for Inactive)
REMARK    1  A    between atoms: C_11  and  C_24
REMARK    2  A    between atoms: C_14  and  C_16
REMARK    3  A    between atoms: C_16  and  N_17
REMARK                            x       y       z     vdW  Elec       q    Type
REMARK                         _______ _______ _______ _____ _____    ______ ____
ROOT
ATOM      1  C   UNL     1      -0.017   1.379   0.010  0.00  0.00    +0.002 A 
ATOM      2  C   UNL     1       1.168   2.092   0.002  0.00  0.00    +0.002 A 
ATOM      3  C   UNL     1       2.381   1.427  -0.003  0.00  0.00    +0.025 A 
ATOM      4  C   UNL     1       2.409   0.043  -0.005  0.00  0.00    +0.058 A 
ATOM      5  C   UNL     1       1.213  -0.677  -0.015  0.00  0.00    +0.055 A 
ATOM      6  C   UNL     1       0.002  -0.004   0.002  0.00  0.00    +0.025 A 
ATOM      7  N   UNL     1       1.256  -2.074  -0.075  0.00  0.00    -0.284 N 
ATOM      8  C   UNL     1       2.050  -2.771   0.767  0.00  0.00    +0.219 C 
ATOM      9  O   UNL     1       2.143  -3.974   0.650  0.00  0.00    -0.275 OA
ATOM     10  C   UNL     1       2.819  -2.062   1.850  0.00  0.00    +0.128 C 
ATOM     11  C   UNL     1       4.024  -1.336   1.250  0.00  0.00    +0.194 C 
ATOM     12  N   UNL     1       3.628  -0.648   0.020  0.00  0.00    -0.256 N 
ATOM     13  C   UNL     1       4.422  -0.680  -1.069  0.00  0.00    +0.234 C 
ATOM     14  O   UNL     1       5.474  -1.281  -1.035  0.00  0.00    -0.274 OA
ATOM     15  H   UNL     1       0.712  -2.546  -0.725  0.00  0.00    +0.155 HD
ENDROOT
BRANCH  11  16
ATOM     16  C   UNL     1       4.552  -0.310   2.256  0.00  0.00    +0.409 C 
ATOM     17  F   UNL     1       4.939  -0.965   3.430  0.00  0.00    -0.169 F 
ATOM     18  F   UNL     1       5.654   0.355   1.708  0.00  0.00    -0.169 F 
ATOM     19  F   UNL     1       3.546   0.617   2.549  0.00  0.00    -0.169 F 
ENDBRANCH  11  16
BRANCH  13  20
ATOM     20  C   UNL     1       4.001   0.032  -2.329  0.00  0.00    +0.181 C 
BRANCH  20  21
ATOM     21  N   UNL     1       5.029  -0.152  -3.362  0.00  0.00    -0.284 NA
ATOM     22  C   UNL     1       4.759   0.699  -4.532  0.00  0.00    +0.104 C 
ATOM     23  C   UNL     1       5.998   0.707  -5.430  0.00  0.00    +0.119 C 
ATOM     24  N   UNL     1       6.440  -0.661  -5.685  0.00  0.00    -0.313 N 
ATOM     25  C   UNL     1       6.063  -1.699  -4.930  0.00  0.00    +0.227 C 
ATOM     26  O   UNL     1       6.502  -2.799  -5.194  0.00  0.00    -0.274 OA
ATOM     27  C   UNL     1       5.119  -1.561  -3.769  0.00  0.00    +0.181 C 
ATOM     28  H   UNL     1       7.032  -0.825  -6.435  0.00  0.00    +0.149 HD
ENDBRANCH  20  21
ENDBRANCH  13  20
TORSDOF 3
