REMARK  Name = ZINC16051107
REMARK  6 active torsions:
REMARK  status: ('A' for Active; 'I' for Inactive)
REMARK    1  A    between atoms: C_1  and  C_2
REMARK    2  A    between atoms: C_5  and  C_29
REMARK    3  A    between atoms: N_8  and  S_10
REMARK    4  A    between atoms: S_10  and  C_13
REMARK    5  A    between atoms: C_16  and  N_19
REMARK    6  A    between atoms: C_20  and  C_22
REMARK                            x       y       z     vdW  Elec       q    Type
REMARK                         _______ _______ _______ _____ _____    ______ ____
ROOT
ATOM      1  C   UNL     1       2.539  -3.253  -0.223  0.00  0.00    +0.106 A 
ATOM      2  C   UNL     1       2.212  -4.462  -0.811  0.00  0.00    +0.030 A 
ATOM      3  C   UNL     1       2.643  -4.747  -2.092  0.00  0.00    +0.025 A 
ATOM      4  C   UNL     1       3.404  -3.819  -2.790  0.00  0.00    +0.034 A 
ATOM      5  C   UNL     1       3.731  -2.606  -2.197  0.00  0.00    +0.025 A 
ATOM      6  C   UNL     1       3.293  -2.325  -0.918  0.00  0.00    +0.030 A 
ENDROOT
BRANCH   4   7
ATOM      7  N   UNL     1       3.842  -4.105  -4.087  0.00  0.00    -0.281 N 
ATOM      8  C   UNL     1       5.030  -3.634  -4.516  0.00  0.00    +0.250 C 
ATOM      9  O   UNL     1       5.764  -3.043  -3.747  0.00  0.00    -0.270 OA
ATOM     10  H   UNL     1       3.291  -4.642  -4.677  0.00  0.00    +0.155 HD
BRANCH   8  11
ATOM     11  C   UNL     1       5.439  -3.836  -5.918  0.00  0.00    +0.053 A 
ATOM     12  C   UNL     1       4.587  -4.519  -6.819  0.00  0.00    +0.020 A 
ATOM     13  C   UNL     1       4.990  -4.691  -8.107  0.00  0.00    +0.071 A 
ATOM     14  C   UNL     1       6.240  -4.189  -8.514  0.00  0.00    +0.249 A 
ATOM     15  N   UNL     1       7.035  -3.544  -7.641  0.00  0.00    -0.328 N 
ATOM     16  C   UNL     1       6.654  -3.357  -6.364  0.00  0.00    +0.099 A 
ATOM     17  O   UNL     1       6.607  -4.341  -9.668  0.00  0.00    -0.268 OA
ATOM     18  H   UNL     1       7.894  -3.204  -7.938  0.00  0.00    +0.168 HD
ENDBRANCH   8  11
ENDBRANCH   4   7
BRANCH   1  19
ATOM     19  S   UNL     1       1.987  -2.893   1.411  0.00  0.00    +0.061 S 
ATOM     20  O   UNL     1       2.880  -1.919   1.935  0.00  0.00    -0.153 OA
ATOM     21  O   UNL     1       1.762  -4.142   2.049  0.00  0.00    -0.153 OA
BRANCH  19  27
ATOM     22  C   UNL     1      -0.652   1.155  -0.145  0.00  0.00    +0.009 C 
ATOM     23  C   UNL     1      -0.422  -0.356  -0.081  0.00  0.00    +0.002 C 
ATOM     24  C   UNL     1      -1.771  -1.075   0.001  0.00  0.00    +0.009 C 
ATOM     25  C   UNL     1      -1.544  -2.588   0.032  0.00  0.00    +0.002 C 
ATOM     26  C   UNL     1      -0.725  -2.952   1.275  0.00  0.00    +0.112 C 
ATOM     27  N   UNL     1       0.510  -2.157   1.278  0.00  0.00    -0.176 NA
ATOM     28  C   UNL     1       0.410  -0.695   1.160  0.00  0.00    +0.112 C 
ATOM     29  C   UNL     1      -0.783  -3.016  -1.224  0.00  0.00    +0.009 C 
ENDBRANCH  19  27
ENDBRANCH   1  19
TORSDOF 4
