REMARK  Name = ZINC01407313
REMARK  5 active torsions:
REMARK  status: ('A' for Active; 'I' for Inactive)
REMARK    1  A    between atoms: C_3  and  O_24
REMARK    2  A    between atoms: C_6  and  C_7
REMARK    3  A    between atoms: N_14  and  C_17
REMARK    4  A    between atoms: O_24  and  C_25
REMARK    5  A    between atoms: C_25  and  C_26
REMARK                            x       y       z     vdW  Elec       q    Type
REMARK                         _______ _______ _______ _____ _____    ______ ____
ROOT
ATOM      1  C   UNL     1       2.096   3.542   0.552  0.00  0.00    +0.026 C 
ATOM      2  C   UNL     1       1.044   2.929  -0.102  0.00  0.00    +0.100 C 
ATOM      3  C   UNL     1       1.255   1.749  -0.965  0.00  0.00    +0.255 C 
ATOM      4  O   UNL     1       2.367   1.282  -1.123  0.00  0.00    -0.270 OA
ATOM      5  N   UNL     1       0.181   1.204  -1.571  0.00  0.00    -0.263 N 
ATOM      6  C   UNL     1      -1.049   1.712  -1.409  0.00  0.00    +0.150 C 
ATOM      7  S   UNL     1      -2.351   0.957  -2.225  0.00  0.00    -0.018 S 
ATOM      8  N   UNL     1      -1.315   2.775  -0.638  0.00  0.00    -0.217 N 
ATOM      9  C   UNL     1      -0.340   3.425   0.031  0.00  0.00    +0.262 C 
ATOM     10  O   UNL     1      -0.594   4.391   0.724  0.00  0.00    -0.269 OA
ATOM     11  H   UNL     1       0.302   0.429  -2.142  0.00  0.00    +0.157 HD
ENDROOT
BRANCH   8  12
ATOM     12  C   UNL     1      -2.638   3.226  -0.528  0.00  0.00    +0.043 A 
ATOM     13  C   UNL     1      -3.075   4.292  -1.302  0.00  0.00    +0.025 A 
ATOM     14  C   UNL     1      -4.381   4.731  -1.196  0.00  0.00    +0.022 A 
ATOM     15  C   UNL     1      -5.248   4.117  -0.310  0.00  0.00    +0.041 A 
ATOM     16  C   UNL     1      -4.813   3.058   0.467  0.00  0.00    +0.022 A 
ATOM     17  C   UNL     1      -3.510   2.612   0.360  0.00  0.00    +0.025 A 
ATOM     18 CL   UNL     1      -6.886   4.676  -0.173  0.00  0.00    -0.084 Cl
ENDBRANCH   8  12
BRANCH   1  24
ATOM     19  C   UNL     1       3.470   1.503   0.901  0.00  0.00    +0.011 A 
ATOM     20  C   UNL     1       4.687   0.887   0.967  0.00  0.00    +0.046 A 
ATOM     21  C   UNL     1       5.853   1.622   0.775  0.00  0.00    +0.121 A 
ATOM     22  C   UNL     1       5.787   2.986   0.510  0.00  0.00    +0.046 A 
ATOM     23  C   UNL     1       4.576   3.613   0.437  0.00  0.00    +0.011 A 
ATOM     24  C   UNL     1       3.396   2.877   0.629  0.00  0.00    -0.024 A 
BRANCH  21  25
ATOM     25  O   UNL     1       7.059   1.005   0.847  0.00  0.00    -0.483 OA
BRANCH  25  26
ATOM     26  C   UNL     1       7.056  -0.397   1.122  0.00  0.00    +0.324 C 
BRANCH  26  27
ATOM     27  C   UNL     1       8.475  -0.904   1.163  0.00  0.00    +0.248 C 
ATOM     28  O   UNL     1       9.398  -0.140   0.976  0.00  0.00    -0.272 OA
ATOM     29  N   UNL     1       8.717  -2.207   1.409  0.00  0.00    -0.327 N 
ATOM     30  H   UNL     1       7.979  -2.818   1.558  0.00  0.00    +0.145 HD
ATOM     31  H   UNL     1       9.630  -2.533   1.435  0.00  0.00    +0.145 HD
ENDBRANCH  26  27
ENDBRANCH  25  26
ENDBRANCH  21  25
ENDBRANCH   1  24
TORSDOF 5
