REMARK  Name = ZINC34176075
REMARK  4 active torsions:
REMARK  status: ('A' for Active; 'I' for Inactive)
REMARK    1  A    between atoms: C_4  and  C_7
REMARK    2  A    between atoms: C_10  and  C_33
REMARK    3  A    between atoms: C_13  and  C_27
REMARK    4  A    between atoms: C_18  and  C_21
REMARK                            x       y       z     vdW  Elec       q    Type
REMARK                         _______ _______ _______ _____ _____    ______ ____
ROOT
ATOM      1  C   UNL     1       3.473  -0.796  -0.447  0.00  0.00    +0.093 C 
ATOM      2  C   UNL     1       3.644  -1.500  -1.803  0.00  0.00    +0.067 C 
ATOM      3  C   UNL     1       2.518  -2.537  -1.943  0.00  0.00    -0.028 C 
ATOM      4  N   UNL     1       2.554  -3.452  -0.797  0.00  0.00    +0.389 N 
ATOM      5  C   UNL     1       3.792  -4.239  -0.794  0.00  0.00    -0.028 C 
ATOM      6  C   UNL     1       4.992  -3.300  -0.588  0.00  0.00    +0.067 C 
ATOM      7  C   UNL     1       4.949  -2.284  -1.724  0.00  0.00    +0.141 C 
ATOM      8  O   UNL     1       5.866  -2.116  -2.492  0.00  0.00    -0.297 OA
ATOM      9  C   UNL     1       4.760  -2.513   0.713  0.00  0.00    +0.093 C 
ATOM     10  N   UNL     1       3.480  -1.800   0.624  0.00  0.00    -0.301 NA
ATOM     11  H   UNL     1       2.500  -2.916   0.056  0.00  0.00    -0.084 HD
ATOM     12  H   UNL     1       3.235  -1.384   1.510  0.00  0.00    +0.123 HD
ATOM     13  H   UNL     1       1.764  -4.077  -0.846  0.00  0.00    -0.084 HD
ENDROOT
BRANCH   1  17
ATOM     14  C   UNL     1      -0.236   1.322  -0.393  0.00  0.00    +0.000 A 
ATOM     15  C   UNL     1       0.013   0.340   0.547  0.00  0.00    +0.000 A 
ATOM     16  C   UNL     1       1.213  -0.346   0.530  0.00  0.00    +0.005 A 
ATOM     17  C   UNL     1       2.164  -0.049  -0.428  0.00  0.00    -0.030 A 
ATOM     18  C   UNL     1       1.915   0.933  -1.369  0.00  0.00    +0.005 A 
ATOM     19  C   UNL     1       0.716   1.619  -1.350  0.00  0.00    +0.000 A 
ENDBRANCH   1  17
BRANCH   9  20
ATOM     20  C   UNL     1       4.726  -3.466   1.879  0.00  0.00    -0.030 A 
ATOM     21  C   UNL     1       5.821  -4.266   2.149  0.00  0.00    +0.005 A 
ATOM     22  C   UNL     1       5.790  -5.140   3.220  0.00  0.00    +0.000 A 
ATOM     23  C   UNL     1       4.666  -5.214   4.020  0.00  0.00    +0.000 A 
ATOM     24  C   UNL     1       3.572  -4.413   3.751  0.00  0.00    +0.000 A 
ATOM     25  C   UNL     1       3.604  -3.535   2.683  0.00  0.00    +0.005 A 
ENDBRANCH   9  20
BRANCH   5  26
ATOM     26  C   UNL     1       3.744  -5.247   0.325  0.00  0.00    -0.061 A 
ATOM     27  C   UNL     1       2.623  -5.334   1.129  0.00  0.00    +0.002 A 
ATOM     28  C   UNL     1       2.579  -6.259   2.156  0.00  0.00    +0.000 A 
ATOM     29  C   UNL     1       3.655  -7.098   2.377  0.00  0.00    +0.000 A 
ATOM     30  C   UNL     1       4.776  -7.012   1.572  0.00  0.00    +0.000 A 
ATOM     31  C   UNL     1       4.818  -6.090   0.543  0.00  0.00    +0.002 A 
ENDBRANCH   5  26
BRANCH   3  32
ATOM     32  C   UNL     1       1.186  -1.832  -1.982  0.00  0.00    -0.061 A 
ATOM     33  C   UNL     1       0.930  -0.893  -2.964  0.00  0.00    +0.002 A 
ATOM     34  C   UNL     1      -0.291  -0.246  -3.000  0.00  0.00    +0.000 A 
ATOM     35  C   UNL     1      -1.256  -0.539  -2.054  0.00  0.00    +0.000 A 
ATOM     36  C   UNL     1      -1.000  -1.479  -1.073  0.00  0.00    +0.000 A 
ATOM     37  C   UNL     1       0.219  -2.129  -1.040  0.00  0.00    +0.002 A 
ENDBRANCH   3  32
TORSDOF 4
