REMARK  Name = ZINC66244744
REMARK  8 active torsions:
REMARK  status: ('A' for Active; 'I' for Inactive)
REMARK    1  A    between atoms: C_1  and  C_2
REMARK    2  A    between atoms: C_4  and  C_29
REMARK    3  A    between atoms: N_5  and  C_7
REMARK    4  A    between atoms: C_10  and  C_17
REMARK    5  A    between atoms: C_11  and  C_13
REMARK    6  A    between atoms: C_17  and  N_18
REMARK    7  A    between atoms: N_20  and  C_21
REMARK    8  A    between atoms: C_21  and  C_22
REMARK                            x       y       z     vdW  Elec       q    Type
REMARK                         _______ _______ _______ _____ _____    ______ ____
ROOT
ATOM      1  C   UNL     1       0.157  -3.457   1.092  0.00  0.00    +0.066 A 
ATOM      2  C   UNL     1      -0.457  -4.561   0.516  0.00  0.00    +0.028 A 
ATOM      3  C   UNL     1      -0.380  -5.793   1.136  0.00  0.00    +0.008 A 
ATOM      4  C   UNL     1       0.307  -5.927   2.329  0.00  0.00    -0.017 A 
ATOM      5  C   UNL     1       0.919  -4.829   2.904  0.00  0.00    +0.062 A 
ATOM      6  C   UNL     1       0.851  -3.596   2.286  0.00  0.00    +0.040 A 
ENDROOT
BRANCH   1  11
ATOM      7  C   UNL     1       1.470   0.990  -0.670  0.00  0.00    +0.067 C 
ATOM      8  C   UNL     1       0.675  -0.238  -0.310  0.00  0.00    +0.061 A 
ATOM      9  C   UNL     1      -0.676  -0.455  -0.601  0.00  0.00    +0.047 A 
ATOM     10  C   UNL     1      -1.018  -1.671  -0.114  0.00  0.00    +0.042 A 
ATOM     11  N   UNL     1       0.081  -2.205   0.465  0.00  0.00    -0.237 N 
ATOM     12  N   UNL     1       1.131  -1.288   0.324  0.00  0.00    -0.171 NA
ATOM     13  C   UNL     1      -2.378  -2.313  -0.202  0.00  0.00    +0.066 C 
ENDBRANCH   1  11
BRANCH   5  14
ATOM     14  C   UNL     1       1.666  -4.979   4.204  0.00  0.00    +0.418 C 
ATOM     15  F   UNL     1       2.194  -3.741   4.584  0.00  0.00    -0.166 F 
ATOM     16  F   UNL     1       0.791  -5.437   5.195  0.00  0.00    -0.166 F 
ATOM     17  F   UNL     1       2.707  -5.899   4.040  0.00  0.00    -0.166 F 
ENDBRANCH   5  14
BRANCH   4  18
ATOM     18  C   UNL     1       0.388  -7.273   3.002  0.00  0.00    +0.151 C 
BRANCH  18  19
ATOM     19  N   UNL     1      -0.596  -7.337   4.086  0.00  0.00    -0.354 N 
ATOM     20  C   UNL     1      -0.706  -8.476   4.847  0.00  0.00    +0.169 C 
ATOM     21  N   UNL     1      -1.582  -8.533   5.811  0.00  0.00    -0.355 N 
ATOM     22  N   UNL     1       0.107  -9.555   4.592  0.00  0.00    -0.371 N 
ATOM     23  H   UNL     1      -1.169  -6.575   4.266  0.00  0.00    +0.163 HD
ATOM     24  H   UNL     1       0.758  -9.513   3.875  0.00  0.00    +0.159 HD
ATOM     25  H   UNL     1       0.029 -10.359   5.130  0.00  0.00    +0.159 HD
ATOM     26  H   UNL     1      -2.155  -7.772   5.991  0.00  0.00    +0.162 HD
BRANCH  21  27
ATOM     27  C   UNL     1      -1.700  -9.747   6.623  0.00  0.00    +0.147 C 
BRANCH  27  28
ATOM     28  C   UNL     1      -2.792  -9.552   7.676  0.00  0.00    +0.137 C 
ATOM     29  C   UNL     1      -2.842 -10.779   8.612  0.00  0.00    +0.035 C 
ATOM     30  C   UNL     1      -4.368 -10.963   8.834  0.00  0.00    +0.031 C 
ATOM     31  C   UNL     1      -4.920 -10.523   7.455  0.00  0.00    +0.160 C 
ATOM     32  O   UNL     1      -4.069  -9.442   7.036  0.00  0.00    -0.375 OA
ENDBRANCH  27  28
ENDBRANCH  21  27
ENDBRANCH  18  19
ENDBRANCH   4  18
TORSDOF 6
