REMARK  Name = ZINC47582178
REMARK  8 active torsions:
REMARK  status: ('A' for Active; 'I' for Inactive)
REMARK    1  A    between atoms: C_1  and  C_2
REMARK    2  A    between atoms: N_10  and  C_13
REMARK    3  A    between atoms: C_13  and  C_15
REMARK    4  A    between atoms: C_13  and  C_16
REMARK    5  A    between atoms: N_18  and  C_19
REMARK    6  A    between atoms: C_19  and  C_20
REMARK    7  A    between atoms: N_26  and  C_27
REMARK    8  A    between atoms: N_26  and  C_28
REMARK                            x       y       z     vdW  Elec       q    Type
REMARK                         _______ _______ _______ _____ _____    ______ ____
ROOT
ATOM      1  C   UNL     1       1.326  -6.378   1.995  0.00  0.00    +0.234 C 
ATOM      2  O   UNL     1       2.114  -5.908   1.202  0.00  0.00    -0.274 OA
ATOM      3  N   UNL     1       1.558  -7.589   2.538  0.00  0.00    -0.310 N 
ATOM      4  H   UNL     1       0.927  -7.965   3.172  0.00  0.00    +0.149 HD
ENDROOT
BRANCH   1   5
ATOM      5  C   UNL     1       0.087  -5.607   2.373  0.00  0.00    +0.167 C 
ATOM      6  C   UNL     1      -1.153  -6.422   2.002  0.00  0.00    +0.038 C 
BRANCH   5  16
ATOM      7  C   UNL     1      -0.018   1.503   0.010  0.00  0.00    +0.044 C 
ATOM      8  C   UNL     1       0.002  -0.004   0.002  0.00  0.00    -0.050 A 
ATOM      9  C   UNL     1       0.006  -0.684  -1.202  0.00  0.00    +0.004 A 
ATOM     10  C   UNL     1       0.024  -2.070  -1.226  0.00  0.00    +0.014 A 
ATOM     11  C   UNL     1       0.039  -2.777  -0.035  0.00  0.00    +0.049 A 
ATOM     12  C   UNL     1       0.036  -2.084   1.192  0.00  0.00    +0.050 A 
ATOM     13  C   UNL     1       0.023  -0.699   1.201  0.00  0.00    +0.017 A 
ATOM     14  C   UNL     1       0.054  -3.123   2.244  0.00  0.00    +0.254 C 
ATOM     15  O   UNL     1       0.057  -2.920   3.441  0.00  0.00    -0.270 OA
ATOM     16  N   UNL     1       0.067  -4.331   1.652  0.00  0.00    -0.222 N 
ATOM     17  C   UNL     1       0.059  -4.214   0.312  0.00  0.00    +0.254 C 
ATOM     18  O   UNL     1       0.067  -5.135  -0.480  0.00  0.00    -0.270 OA
ENDBRANCH   5  16
ENDBRANCH   1   5
BRANCH   3  19
ATOM     19  C   UNL     1       2.762  -8.338   2.170  0.00  0.00    +0.139 C 
BRANCH  19  20
ATOM     20  C   UNL     1       2.783  -9.650   2.911  0.00  0.00    -0.026 A 
ATOM     21  C   UNL     1       3.383  -9.751   4.160  0.00  0.00    +0.023 A 
ATOM     22  C   UNL     1       3.385 -10.967   4.813  0.00  0.00    +0.084 A 
ATOM     23  N   UNL     1       2.825 -12.030   4.266  0.00  0.00    -0.350 N 
ATOM     24  C   UNL     1       2.244 -11.974   3.078  0.00  0.00    +0.098 A 
ATOM     25  C   UNL     1       2.200 -10.780   2.366  0.00  0.00    +0.047 A 
ATOM     26  N   UNL     1       1.668 -13.119   2.539  0.00  0.00    -0.323 N 
ATOM     27  C   UNL     1       1.705 -14.379   3.285  0.00  0.00    +0.130 C 
ATOM     28  C   UNL     1       1.023 -13.065   1.224  0.00  0.00    +0.130 C 
ATOM     29  H   UNL     1       2.841 -12.872   4.746  0.00  0.00    +0.166 HD
ENDBRANCH  19  20
ENDBRANCH   3  19
TORSDOF 4
