REMARK  Name = ZINC00828299
REMARK  4 active torsions:
REMARK  status: ('A' for Active; 'I' for Inactive)
REMARK    1  A    between atoms: C_4  and  O_34
REMARK    2  A    between atoms: C_5  and  N_7
REMARK    3  A    between atoms: N_22  and  C_25
REMARK    4  A    between atoms: C_30  and  O_31
REMARK                            x       y       z     vdW  Elec       q    Type
REMARK                         _______ _______ _______ _____ _____    ______ ____
ROOT
ATOM      1  N   UNL     1       2.363   3.886  -0.001  0.00  0.00    -0.199 N 
ATOM      2  C   UNL     1       2.926   4.215   1.178  0.00  0.00    +0.258 C 
ATOM      3  O   UNL     1       2.387   3.889   2.217  0.00  0.00    -0.269 OA
ATOM      4  C   UNL     1       4.195   4.966   1.213  0.00  0.00    +0.046 A 
ATOM      5  C   UNL     1       4.817   5.323   2.399  0.00  0.00    +0.014 A 
ATOM      6  C   UNL     1       6.013   6.037   2.391  0.00  0.00    +0.014 A 
ATOM      7  C   UNL     1       6.611   6.407   1.197  0.00  0.00    +0.046 A 
ATOM      8  C   UNL     1       5.993   6.052  -0.025  0.00  0.00    +0.008 A 
ATOM      9  C   UNL     1       4.789   5.334  -0.017  0.00  0.00    +0.008 A 
ATOM     10  C   UNL     1       4.171   4.978  -1.238  0.00  0.00    +0.046 A 
ATOM     11  C   UNL     1       4.769   5.348  -2.433  0.00  0.00    +0.014 A 
ATOM     12  C   UNL     1       5.965   6.062  -2.441  0.00  0.00    +0.014 A 
ATOM     13  C   UNL     1       6.587   6.420  -1.255  0.00  0.00    +0.046 A 
ATOM     14  C   UNL     1       7.853   7.175  -1.220  0.00  0.00    +0.258 C 
ATOM     15  O   UNL     1       8.389   7.506  -2.259  0.00  0.00    -0.269 OA
ATOM     16  N   UNL     1       8.419   7.499  -0.041  0.00  0.00    -0.199 N 
ATOM     17  C   UNL     1       7.876   7.162   1.145  0.00  0.00    +0.258 C 
ATOM     18  O   UNL     1       8.432   7.483   2.177  0.00  0.00    -0.269 OA
ATOM     19  C   UNL     1       2.905   4.223  -1.187  0.00  0.00    +0.258 C 
ATOM     20  O   UNL     1       2.350   3.901  -2.219  0.00  0.00    -0.269 OA
ENDROOT
BRANCH   1  25
ATOM     21  C   UNL     1      -0.013   1.076   0.008  0.00  0.00    +0.002 A 
ATOM     22  C   UNL     1      -1.220   1.749   0.017  0.00  0.00    +0.004 A 
ATOM     23  C   UNL     1      -1.246   3.131   0.030  0.00  0.00    +0.047 A 
ATOM     24  C   UNL     1      -0.058   3.846   0.022  0.00  0.00    +0.139 A 
ATOM     25  C   UNL     1       1.159   3.168   0.008  0.00  0.00    +0.086 A 
ATOM     26  C   UNL     1       1.176   1.781   0.000  0.00  0.00    +0.027 A 
BRANCH  24  27
ATOM     27  O   UNL     1      -0.081   5.205   0.030  0.00  0.00    -0.505 OA
ATOM     28  H   UNL     1      -0.096   5.603  -0.851  0.00  0.00    +0.292 HD
ENDBRANCH  24  27
ENDBRANCH   1  25
BRANCH  16  29
ATOM     29  C   UNL     1       9.623   8.217  -0.049  0.00  0.00    +0.086 A 
ATOM     30  C   UNL     1       9.606   9.604  -0.047  0.00  0.00    +0.027 A 
ATOM     31  C   UNL     1      10.794  10.310  -0.049  0.00  0.00    +0.002 A 
ATOM     32  C   UNL     1      12.002   9.637  -0.066  0.00  0.00    +0.004 A 
ATOM     33  C   UNL     1      12.027   8.255  -0.073  0.00  0.00    +0.047 A 
ATOM     34  C   UNL     1      10.840   7.540  -0.065  0.00  0.00    +0.139 A 
BRANCH  34  35
ATOM     35  O   UNL     1      10.864   6.180  -0.073  0.00  0.00    -0.505 OA
ATOM     36  H   UNL     1      10.861   5.792  -0.958  0.00  0.00    +0.292 HD
ENDBRANCH  34  35
ENDBRANCH  16  29
TORSDOF 4
