REMARK  Name = ZINC12953570
REMARK  8 active torsions:
REMARK  status: ('A' for Active; 'I' for Inactive)
REMARK    1  A    between atoms: C_1  and  C_2
REMARK    2  A    between atoms: C_3  and  C_14
REMARK    3  A    between atoms: C_4  and  C_13
REMARK    4  A    between atoms: N_5  and  C_7
REMARK    5  A    between atoms: N_16  and  C_17
REMARK    6  A    between atoms: N_16  and  C_18
REMARK    7  A    between atoms: C_18  and  C_19
REMARK    8  A    between atoms: C_32  and  C_34
REMARK                            x       y       z     vdW  Elec       q    Type
REMARK                         _______ _______ _______ _____ _____    ______ ____
ROOT
ATOM      1  C   UNL     1      -1.178  -3.326   0.859  0.00  0.00    +0.250 C 
ATOM      2  O   UNL     1      -2.069  -3.832   0.203  0.00  0.00    -0.270 OA
ATOM      3  N   UNL     1      -0.808  -3.879   2.031  0.00  0.00    -0.292 N 
ATOM      4  C   UNL     1       0.266  -3.270   2.821  0.00  0.00    +0.133 C 
ENDROOT
BRANCH   1   7
ATOM      5  C   UNL     1       1.402  -3.247  -0.987  0.00  0.00    +0.068 C 
ATOM      6  C   UNL     1       0.645  -2.060  -0.450  0.00  0.00    +0.073 A 
ATOM      7  C   UNL     1      -0.503  -2.110   0.371  0.00  0.00    +0.080 A 
ATOM      8  C   UNL     1      -0.875  -0.806   0.632  0.00  0.00    +0.054 A 
ATOM      9  N   UNL     1       0.002  -0.004   0.002  0.00  0.00    -0.236 N 
ATOM     10  N   UNL     1       0.933  -0.806  -0.667  0.00  0.00    -0.171 NA
ATOM     11  C   UNL     1      -2.048  -0.363   1.469  0.00  0.00    +0.066 C 
BRANCH   9  12
ATOM     12  C   UNL     1      -0.017   1.397   0.010  0.00  0.00    +0.066 A 
ATOM     13  C   UNL     1      -1.228   2.077   0.019  0.00  0.00    +0.028 A 
ATOM     14  C   UNL     1      -1.243   3.458   0.033  0.00  0.00    +0.002 A 
ATOM     15  C   UNL     1      -0.054   4.164   0.025  0.00  0.00    +0.000 A 
ATOM     16  C   UNL     1       1.153   3.490   0.010  0.00  0.00    +0.002 A 
ATOM     17  C   UNL     1       1.175   2.109   0.002  0.00  0.00    +0.028 A 
ENDBRANCH   9  12
ENDBRANCH   1   7
BRANCH   3  18
ATOM     18  C   UNL     1      -1.478  -5.088   2.516  0.00  0.00    +0.204 C 
BRANCH  18  19
ATOM     19  C   UNL     1      -0.753  -6.305   2.002  0.00  0.00    +0.237 C 
ATOM     20  O   UNL     1       0.228  -6.175   1.300  0.00  0.00    -0.274 OA
ATOM     21  N   UNL     1      -1.194  -7.537   2.322  0.00  0.00    -0.265 N 
ATOM     22  C   UNL     1      -2.326  -7.702   3.132  0.00  0.00    +0.058 A 
ATOM     23  C   UNL     1      -2.273  -7.416   4.487  0.00  0.00    +0.025 A 
ATOM     24  C   UNL     1      -3.393  -7.607   5.274  0.00  0.00    +0.002 A 
ATOM     25  C   UNL     1      -4.565  -8.084   4.716  0.00  0.00    +0.002 A 
ATOM     26  C   UNL     1      -4.629  -8.363   3.363  0.00  0.00    +0.025 A 
ATOM     27  C   UNL     1      -3.514  -8.164   2.565  0.00  0.00    +0.055 A 
ATOM     28  N   UNL     1      -3.571  -8.387   1.185  0.00  0.00    -0.284 N 
ATOM     29  C   UNL     1      -2.610  -9.108   0.567  0.00  0.00    +0.219 C 
ATOM     30  O   UNL     1      -2.626  -9.223  -0.640  0.00  0.00    -0.275 OA
ATOM     31  C   UNL     1      -1.520  -9.770   1.368  0.00  0.00    +0.118 C 
ATOM     32  C   UNL     1      -0.503  -8.729   1.825  0.00  0.00    +0.087 C 
ATOM     33  C   UNL     1       0.357  -9.321   2.943  0.00  0.00    +0.029 C 
ATOM     34  H   UNL     1      -4.305  -8.020   0.668  0.00  0.00    +0.155 HD
ENDBRANCH  18  19
ENDBRANCH   3  18
TORSDOF 4
