REMARK  Name = ZINC63493677
REMARK  7 active torsions:
REMARK  status: ('A' for Active; 'I' for Inactive)
REMARK    1  A    between atoms: C_1  and  C_2
REMARK    2  A    between atoms: C_2  and  C_3
REMARK    3  A    between atoms: C_6  and  S_9
REMARK    4  A    between atoms: S_9  and  C_12
REMARK    5  A    between atoms: N_27  and  C_28
REMARK    6  A    between atoms: C_28  and  C_29
REMARK    7  A    between atoms: C_29  and  C_30
REMARK                            x       y       z     vdW  Elec       q    Type
REMARK                         _______ _______ _______ _____ _____    ______ ____
ROOT
ATOM      1  C   UNL     1       3.415  -0.505   5.784  0.00  0.00    +0.316 C 
ATOM      2  C   UNL     1       4.221  -0.868   7.042  0.00  0.00    +0.241 C 
ATOM      3  N   UNL     1       4.239  -2.309   7.280  0.00  0.00    -0.350 N 
ATOM      4  C   UNL     1       5.316  -2.906   7.718  0.00  0.00    +0.103 C 
ATOM      5  C   UNL     1       6.559  -2.149   7.970  0.00  0.00    +0.035 A 
ATOM      6  C   UNL     1       7.587  -2.643   8.762  0.00  0.00    +0.013 A 
ATOM      7  C   UNL     1       8.730  -1.889   8.943  0.00  0.00    +0.001 A 
ATOM      8  C   UNL     1       8.862  -0.648   8.342  0.00  0.00    +0.002 A 
ATOM      9  C   UNL     1       7.843  -0.139   7.555  0.00  0.00    +0.026 A 
ATOM     10  C   UNL     1       6.696  -0.876   7.374  0.00  0.00    +0.066 A 
ATOM     11  N   UNL     1       5.587  -0.432   6.655  0.00  0.00    -0.179 N 
ATOM     12  N   UNL     1       5.478   0.307   5.491  0.00  0.00    -0.075 NA
ATOM     13  N   UNL     1       4.354   0.292   4.979  0.00  0.00    -0.141 NA
ATOM     14  N   UNL     1       5.292  -4.264   7.948  0.00  0.00    -0.330 N 
ATOM     15  H   UNL     1       6.087  -4.716   8.273  0.00  0.00    +0.147 HD
ATOM     16  H   UNL     1       3.439  -2.831   7.111  0.00  0.00    +0.163 HD
ENDROOT
BRANCH   1  17
ATOM     17  S   UNL     1       2.920  -2.003   4.890  0.00  0.00    +0.025 S 
ATOM     18  O   UNL     1       1.939  -2.715   5.632  0.00  0.00    -0.167 OA
ATOM     19  O   UNL     1       4.067  -2.670   4.380  0.00  0.00    -0.167 OA
BRANCH  17  23
ATOM     20  C   UNL     1       0.731  -0.503   1.223  0.00  0.00    -0.048 A 
ATOM     21  C   UNL     1       2.097  -0.710   1.176  0.00  0.00    +0.005 A 
ATOM     22  C   UNL     1       2.766  -1.167   2.296  0.00  0.00    +0.027 A 
ATOM     23  C   UNL     1       2.068  -1.419   3.463  0.00  0.00    +0.091 A 
ATOM     24  C   UNL     1       0.702  -1.212   3.510  0.00  0.00    +0.027 A 
ATOM     25  C   UNL     1       0.034  -0.750   2.391  0.00  0.00    +0.005 A 
BRANCH  20  27
ATOM     26  C   UNL     1      -0.019   1.526   0.010  0.00  0.00    +0.009 C 
ATOM     27  C   UNL     1       0.002  -0.004   0.002  0.00  0.00    +0.032 C 
ENDBRANCH  20  27
ENDBRANCH  17  23
ENDBRANCH   1  17
BRANCH  14  28
ATOM     28  C   UNL     1       4.066  -5.027   7.703  0.00  0.00    +0.107 C 
BRANCH  28  29
ATOM     29  C   UNL     1       4.306  -6.501   8.036  0.00  0.00    +0.052 C 
BRANCH  29  30
ATOM     30  C   UNL     1       3.045  -7.286   7.783  0.00  0.00    -0.040 C 
ATOM     31  C   UNL     1       2.724  -7.970   6.662  0.00  0.00    -0.001 A 
ATOM     32  C   UNL     1       3.425  -8.180   5.390  0.00  0.00    +0.010 A 
ATOM     33  C   UNL     1       2.836  -8.931   4.432  0.00  0.00    +0.001 A 
ATOM     34  C   UNL     1       1.575  -9.512   4.622  0.00  0.00    +0.002 A 
ATOM     35  C   UNL     1       0.869  -9.365   5.763  0.00  0.00    +0.026 A 
ATOM     36  C   UNL     1       1.393  -8.595   6.838  0.00  0.00    +0.043 A 
ATOM     37  N   UNL     1       0.911  -8.308   8.023  0.00  0.00    -0.380 N 
ATOM     38  C   UNL     1       1.884  -7.472   8.735  0.00  0.00    +0.144 C 
ATOM     39  H   UNL     1       0.055  -8.602   8.372  0.00  0.00    +0.160 HD
ENDBRANCH  29  30
ENDBRANCH  28  29
ENDBRANCH  14  28
TORSDOF 6
