REMARK  Name = ZINC05459060
REMARK  4 active torsions:
REMARK  status: ('A' for Active; 'I' for Inactive)
REMARK    1  A    between atoms: C_1  and  C_2
REMARK    2  A    between atoms: C_2  and  C_3
REMARK    3  A    between atoms: C_6  and  C_9
REMARK    4  A    between atoms: C_12  and  C_24
REMARK                            x       y       z     vdW  Elec       q    Type
REMARK                         _______ _______ _______ _____ _____    ______ ____
ROOT
ATOM      1  C   UNL     1      -5.419  -2.005   0.043  0.00  0.00    +0.122 C 
ATOM      2  C   UNL     1      -5.474  -3.352  -0.686  0.00  0.00    +0.057 C 
ATOM      3  C   UNL     1      -6.934  -3.761  -0.909  0.00  0.00    +0.106 C 
ATOM      4  N   UNL     1      -7.572  -2.763  -1.787  0.00  0.00    -0.309 N 
ATOM      5  C   UNL     1      -7.304  -1.432  -1.506  0.00  0.00    +0.175 A 
ATOM      6  N   UNL     1      -6.299  -1.054  -0.643  0.00  0.00    -0.306 N 
ATOM      7  C   UNL     1      -6.309   0.311  -0.582  0.00  0.00    +0.069 A 
ATOM      8  C   UNL     1      -5.535   1.231   0.115  0.00  0.00    +0.028 A 
ATOM      9  C   UNL     1      -5.831   2.572  -0.067  0.00  0.00    +0.002 A 
ATOM     10  C   UNL     1      -6.851   2.991  -0.903  0.00  0.00    +0.002 A 
ATOM     11  C   UNL     1      -7.635   2.096  -1.608  0.00  0.00    +0.028 A 
ATOM     12  C   UNL     1      -7.354   0.736  -1.439  0.00  0.00    +0.065 A 
ATOM     13  N   UNL     1      -7.915  -0.374  -1.971  0.00  0.00    -0.327 N 
ATOM     14  H   UNL     1      -8.147  -3.024  -2.523  0.00  0.00    +0.149 HD
ATOM     15  H   UNL     1      -8.656  -0.384  -2.596  0.00  0.00    +0.169 HD
ENDROOT
BRANCH   3  16
ATOM     16  C   UNL     1      -7.654  -3.809   0.414  0.00  0.00    -0.027 A 
ATOM     17  C   UNL     1      -8.113  -2.641   0.994  0.00  0.00    +0.008 A 
ATOM     18  C   UNL     1      -8.773  -2.684   2.207  0.00  0.00    +0.038 A 
ATOM     19  C   UNL     1      -8.975  -3.898   2.842  0.00  0.00    +0.123 A 
ATOM     20  C   UNL     1      -8.515  -5.067   2.260  0.00  0.00    +0.038 A 
ATOM     21  C   UNL     1      -7.859  -5.022   1.045  0.00  0.00    +0.008 A 
ATOM     22  F   UNL     1      -9.620  -3.941   4.028  0.00  0.00    -0.205 F 
ENDBRANCH   3  16
BRANCH   1  26
ATOM     23  C   UNL     1      -1.412  -0.526   0.013  0.00  0.00    -0.048 A 
ATOM     24  C   UNL     1      -2.051  -0.766   1.215  0.00  0.00    +0.004 A 
ATOM     25  C   UNL     1      -3.348  -1.244   1.225  0.00  0.00    +0.006 A 
ATOM     26  C   UNL     1      -4.006  -1.482   0.032  0.00  0.00    -0.025 A 
ATOM     27  C   UNL     1      -3.367  -1.241  -1.170  0.00  0.00    +0.006 A 
ATOM     28  C   UNL     1      -2.072  -0.758  -1.179  0.00  0.00    +0.004 A 
BRANCH  23  30
ATOM     29  C   UNL     1      -0.019   1.526   0.010  0.00  0.00    +0.009 C 
ATOM     30  C   UNL     1       0.002  -0.004   0.002  0.00  0.00    +0.032 C 
ENDBRANCH  23  30
ENDBRANCH   1  26
TORSDOF 3
