REMARK  Name = ZINC13033773
REMARK  9 active torsions:
REMARK  status: ('A' for Active; 'I' for Inactive)
REMARK    1  A    between atoms: C_4  and  C_7
REMARK    2  A    between atoms: C_7  and  C_8
REMARK    3  A    between atoms: C_8  and  N_67
REMARK    4  A    between atoms: C_9  and  C_10
REMARK    5  A    between atoms: C_9  and  N_67
REMARK    6  A    between atoms: C_26  and  C_27
REMARK    7  A    between atoms: C_26  and  N_67
REMARK    8  A    between atoms: N_31  and  C_32
REMARK    9  A    between atoms: C_32  and  C_33
REMARK                            x       y       z     vdW  Elec       q    Type
REMARK                         _______ _______ _______ _____ _____    ______ ____
ROOT
ATOM      1  N   UNL     1       5.504   3.017  -1.546  0.00  0.00    +0.387 N 
ATOM      2  H   UNL     1       6.170   2.423  -1.040  0.00  0.00    -0.081 HD
ENDROOT
BRANCH   1   3
ATOM      3  C   UNL     1       4.181   2.357  -1.554  0.00  0.00    -0.073 C 
BRANCH   3   4
ATOM      4  C   UNL     1       3.791   2.016  -0.114  0.00  0.00    +0.016 C 
BRANCH   4   8
ATOM      5  C   UNL     1       0.148  -0.214  -0.116  0.00  0.00    +0.000 A 
ATOM      6  C   UNL     1       0.119   1.157   0.057  0.00  0.00    +0.000 A 
ATOM      7  C   UNL     1       1.298   1.878   0.059  0.00  0.00    +0.003 A 
ATOM      8  C   UNL     1       2.506   1.229  -0.115  0.00  0.00    -0.049 A 
ATOM      9  C   UNL     1       2.535  -0.142  -0.288  0.00  0.00    +0.003 A 
ATOM     10  C   UNL     1       1.356  -0.864  -0.288  0.00  0.00    +0.000 A 
ENDBRANCH   4   8
ENDBRANCH   3   4
ENDBRANCH   1   3
BRANCH   1  11
ATOM     11  C   UNL     1       5.412   4.325  -0.863  0.00  0.00    -0.037 C 
BRANCH  11  12
ATOM     12  C   UNL     1       6.805   4.803  -0.545  0.00  0.00    +0.001 A 
ATOM     13  C   UNL     1       7.429   5.672  -1.381  0.00  0.00    +0.017 A 
ATOM     14  C   UNL     1       8.781   6.117  -1.044  0.00  0.00    +0.002 A 
ATOM     15  C   UNL     1       9.474   7.011  -1.869  0.00  0.00    +0.059 A 
ATOM     16  C   UNL     1      10.748   7.413  -1.526  0.00  0.00    +0.163 A 
ATOM     17  C   UNL     1      11.347   6.932  -0.358  0.00  0.00    +0.164 A 
ATOM     18  C   UNL     1      10.669   6.048   0.463  0.00  0.00    +0.075 A 
ATOM     19  C   UNL     1       9.386   5.633   0.132  0.00  0.00    +0.053 A 
ATOM     20  N   UNL     1       8.696   4.752   0.940  0.00  0.00    -0.322 N 
ATOM     21  H   UNL     1       9.113   4.420   1.750  0.00  0.00    +0.169 HD
ATOM     22  C   UNL     1       7.452   4.353   0.624  0.00  0.00    +0.251 A 
ATOM     23  O   UNL     1       6.871   3.577   1.363  0.00  0.00    -0.268 OA
ATOM     24  O   UNL     1      12.602   7.326  -0.011  0.00  0.00    -0.485 OA
ATOM     25  C   UNL     1      13.400   7.917  -1.042  0.00  0.00    +0.270 C 
ATOM     26  C   UNL     1      12.542   8.953  -1.781  0.00  0.00    +0.270 C 
ATOM     27  O   UNL     1      11.410   8.280  -2.342  0.00  0.00    -0.485 OA
ENDBRANCH  11  12
ENDBRANCH   1  11
BRANCH   1  28
ATOM     28  C   UNL     1       5.983   3.204  -2.932  0.00  0.00    +0.001 C 
BRANCH  28  29
ATOM     29  C   UNL     1       6.277   1.853  -3.531  0.00  0.00    +0.135 A 
ATOM     30  N   UNL     1       7.417   1.207  -3.482  0.00  0.00    -0.115 NA
ATOM     31  N   UNL     1       7.267   0.089  -4.106  0.00  0.00    -0.023 NA
ATOM     32  N   UNL     1       6.064   0.009  -4.558  0.00  0.00    -0.044 NA
ATOM     33  N   UNL     1       5.423   1.077  -4.224  0.00  0.00    -0.229 N 
BRANCH  33  34
ATOM     34  C   UNL     1       4.026   1.388  -4.540  0.00  0.00    +0.178 C 
BRANCH  34  35
ATOM     35  C   UNL     1       3.959   2.131  -5.876  0.00  0.00    +0.140 C 
ATOM     36  C   UNL     1       2.505   2.564  -6.161  0.00  0.00    +0.035 C 
ATOM     37  C   UNL     1       2.381   2.316  -7.689  0.00  0.00    +0.031 C 
ATOM     38  C   UNL     1       3.283   1.067  -7.859  0.00  0.00    +0.160 C 
ATOM     39  O   UNL     1       4.367   1.260  -6.937  0.00  0.00    -0.375 OA
ENDBRANCH  34  35
ENDBRANCH  33  34
ENDBRANCH  28  29
ENDBRANCH   1  28
TORSDOF 9
