REMARK  Name = ZINC64788603
REMARK  7 active torsions:
REMARK  status: ('A' for Active; 'I' for Inactive)
REMARK    1  A    between atoms: C_1  and  C_2
REMARK    2  A    between atoms: C_2  and  O_3
REMARK    3  A    between atoms: O_3  and  C_4
REMARK    4  A    between atoms: C_9  and  C_10
REMARK    5  A    between atoms: N_21  and  C_24
REMARK    6  A    between atoms: C_29  and  O_30
REMARK    7  A    between atoms: O_30  and  C_31
REMARK                            x       y       z     vdW  Elec       q    Type
REMARK                         _______ _______ _______ _____ _____    ______ ____
ROOT
ATOM      1  C   UNL     1       1.990  -1.397  -3.491  0.00  0.00    +0.112 C 
ATOM      2  C   UNL     1       0.898  -0.930  -4.484  0.00  0.00    +0.078 C 
ATOM      3  C   UNL     1       1.651  -0.906  -5.802  0.00  0.00    +0.038 C 
ATOM      4  N   UNL     1       2.799  -1.590  -5.636  0.00  0.00    -0.283 N 
ATOM      5  N   UNL     1       2.928  -2.115  -4.384  0.00  0.00    -0.235 NA
ATOM      6  C   UNL     1       1.232  -0.291  -6.967  0.00  0.00    +0.118 C 
ATOM      7  C   UNL     1      -0.047   0.438  -7.035  0.00  0.00    +0.258 C 
ATOM      8  N   UNL     1      -0.392   1.013  -8.205  0.00  0.00    -0.235 N 
ATOM      9  C   UNL     1       0.397   0.931  -9.286  0.00  0.00    +0.320 C 
ATOM     10  O   UNL     1       0.028   1.471 -10.310  0.00  0.00    -0.251 OA
ATOM     11  N   UNL     1       1.571   0.285  -9.296  0.00  0.00    -0.186 N 
ATOM     12  C   UNL     1       2.046  -0.332  -8.194  0.00  0.00    +0.265 C 
ATOM     13  O   UNL     1       3.116  -0.911  -8.215  0.00  0.00    -0.269 OA
ATOM     14  O   UNL     1      -0.773   0.519  -6.061  0.00  0.00    -0.270 OA
ATOM     15  H   UNL     1       3.878  -2.033  -4.053  0.00  0.00    +0.145 HD
ATOM     16  H   UNL     1      -1.231   1.497  -8.267  0.00  0.00    +0.159 HD
ATOM     17  H   UNL     1       3.464  -1.697  -6.333  0.00  0.00    +0.166 HD
ENDROOT
BRANCH   1  23
ATOM     18  C   UNL     1       0.777  -1.810  -1.336  0.00  0.00    +0.125 A 
ATOM     19  C   UNL     1       0.243  -2.669  -0.386  0.00  0.00    +0.046 A 
ATOM     20  C   UNL     1       0.351  -4.036  -0.554  0.00  0.00    +0.004 A 
ATOM     21  C   UNL     1       0.991  -4.548  -1.667  0.00  0.00    +0.001 A 
ATOM     22  C   UNL     1       1.525  -3.695  -2.615  0.00  0.00    +0.009 A 
ATOM     23  C   UNL     1       1.414  -2.327  -2.455  0.00  0.00    +0.013 A 
BRANCH  18  24
ATOM     24  O   UNL     1       0.671  -0.465  -1.174  0.00  0.00    -0.492 OA
BRANCH  24  26
ATOM     25  C   UNL     1      -0.019   1.526   0.010  0.00  0.00    +0.048 C 
ATOM     26  C   UNL     1       0.002  -0.004   0.002  0.00  0.00    +0.225 C 
ENDBRANCH  24  26
ENDBRANCH  18  24
ENDBRANCH   1  23
BRANCH  11  27
ATOM     27  C   UNL     1       2.327   0.255 -10.478  0.00  0.00    +0.087 A 
ATOM     28  C   UNL     1       3.263   1.247 -10.730  0.00  0.00    +0.028 A 
ATOM     29  C   UNL     1       4.006   1.215 -11.895  0.00  0.00    +0.002 A 
ATOM     30  C   UNL     1       3.819   0.196 -12.811  0.00  0.00    +0.004 A 
ATOM     31  C   UNL     1       2.887  -0.796 -12.567  0.00  0.00    +0.047 A 
ATOM     32  C   UNL     1       2.142  -0.774 -11.398  0.00  0.00    +0.142 A 
BRANCH  32  33
ATOM     33  O   UNL     1       1.230  -1.752 -11.154  0.00  0.00    -0.493 OA
ATOM     34  C   UNL     1       1.094  -2.775 -12.142  0.00  0.00    +0.277 C 
ENDBRANCH  32  33
ENDBRANCH  11  27
TORSDOF 5
