REMARK  Name = ZINC38787554
REMARK  3 active torsions:
REMARK  status: ('A' for Active; 'I' for Inactive)
REMARK    1  A    between atoms: C_3  and  O_31
REMARK    2  A    between atoms: C_6  and  N_7
REMARK    3  A    between atoms: C_11  and  C_12
REMARK                            x       y       z     vdW  Elec       q    Type
REMARK                         _______ _______ _______ _____ _____    ______ ____
ROOT
ATOM      1  N   UNL     1      -1.203  -0.722   0.010  0.00  0.00    -0.224 N 
ATOM      2  C   UNL     1      -1.170  -2.040  -0.093  0.00  0.00    +0.262 C 
ATOM      3  O   UNL     1      -0.122  -2.649  -0.195  0.00  0.00    -0.269 OA
ATOM      4  C   UNL     1      -2.480  -2.737  -0.078  0.00  0.00    +0.074 C 
ATOM      5  C   UNL     1      -2.752  -4.045  -0.163  0.00  0.00    +0.010 C 
ATOM      6  S   UNL     1      -3.594  -1.349   0.088  0.00  0.00    -0.061 S 
ATOM      7  C   UNL     1      -2.367  -0.053   0.128  0.00  0.00    +0.125 C 
ATOM      8  S   UNL     1      -2.611   1.635   0.279  0.00  0.00    -0.027 S 
ENDROOT
BRANCH   5   9
ATOM      9  C   UNL     1      -1.630  -5.041  -0.298  0.00  0.00    +0.122 C 
ATOM     10  C   UNL     1      -1.639  -5.921   0.936  0.00  0.00    -0.001 C 
ATOM     11  C   UNL     1      -1.776  -7.261   0.747  0.00  0.00    -0.003 A 
ATOM     12  C   UNL     1      -1.793  -8.181   1.885  0.00  0.00    +0.059 A 
ATOM     13  C   UNL     1      -1.932  -9.516   1.663  0.00  0.00    +0.163 A 
ATOM     14  C   UNL     1      -2.062 -10.027   0.356  0.00  0.00    +0.164 A 
ATOM     15  C   UNL     1      -2.049  -9.202  -0.751  0.00  0.00    +0.073 A 
ATOM     16  C   UNL     1      -1.909  -7.815  -0.614  0.00  0.00    +0.044 A 
ATOM     17  N   UNL     1      -1.900  -7.036  -1.698  0.00  0.00    -0.284 N 
ATOM     18  C   UNL     1      -1.773  -5.723  -1.640  0.00  0.00    +0.228 C 
ATOM     19  O   UNL     1      -1.772  -5.064  -2.663  0.00  0.00    -0.274 OA
ATOM     20  O   UNL     1      -2.211 -11.364   0.156  0.00  0.00    -0.485 OA
ATOM     21  C   UNL     1      -1.842 -12.225   1.237  0.00  0.00    +0.270 C 
ATOM     22  C   UNL     1      -2.459 -11.669   2.527  0.00  0.00    +0.270 C 
ATOM     23  O   UNL     1      -1.941 -10.353   2.739  0.00  0.00    -0.485 OA
ATOM     24  H   UNL     1      -1.990  -7.454  -2.568  0.00  0.00    +0.155 HD
ENDBRANCH   5   9
BRANCH   1  30
ATOM     25  C   UNL     1       0.534   0.446  -1.199  0.00  0.00    +0.027 A 
ATOM     26  C   UNL     1       1.720   1.153  -1.206  0.00  0.00    +0.047 A 
ATOM     27  C   UNL     1       2.380   1.414  -0.014  0.00  0.00    +0.117 A 
ATOM     28  C   UNL     1       1.849   0.965   1.186  0.00  0.00    +0.047 A 
ATOM     29  C   UNL     1       0.663   0.257   1.195  0.00  0.00    +0.027 A 
ATOM     30  C   UNL     1       0.002  -0.004   0.002  0.00  0.00    +0.043 A 
BRANCH  27  31
ATOM     31  O   UNL     1       3.548   2.110  -0.022  0.00  0.00    -0.507 OA
ATOM     32  H   UNL     1       3.436   3.067   0.060  0.00  0.00    +0.292 HD
ENDBRANCH  27  31
ENDBRANCH   1  30
TORSDOF 3
