REMARK  Name = ZINC51856584
REMARK  9 active torsions:
REMARK  status: ('A' for Active; 'I' for Inactive)
REMARK    1  A    between atoms: C_1  and  C_2
REMARK    2  A    between atoms: N_4  and  C_5
REMARK    3  A    between atoms: C_5  and  C_6
REMARK    4  A    between atoms: N_9  and  C_12
REMARK    5  A    between atoms: C_12  and  C_13
REMARK    6  A    between atoms: N_15  and  C_16
REMARK    7  A    between atoms: C_16  and  C_17
REMARK    8  A    between atoms: N_21  and  C_23
REMARK    9  A    between atoms: C_23  and  C_24
REMARK                            x       y       z     vdW  Elec       q    Type
REMARK                         _______ _______ _______ _____ _____    ______ ____
ROOT
ATOM      1  C   UNL     1      -1.339  -6.350  -5.941  0.00  0.00    +0.196 C 
ATOM      2  O   UNL     1      -1.257  -6.908  -4.867  0.00  0.00    -0.278 OA
ATOM      3  N   UNL     1      -1.432  -7.075  -7.072  0.00  0.00    -0.317 N 
ATOM      4  H   UNL     1      -1.498  -6.629  -7.931  0.00  0.00    +0.149 HD
ENDROOT
BRANCH   1   5
ATOM      5  C   UNL     1      -1.336  -4.844  -6.009  0.00  0.00    +0.019 C 
BRANCH   5   9
ATOM      6  C   UNL     1       0.013  -2.639  -2.622  0.00  0.00    +0.003 C 
ATOM      7  C   UNL     1      -1.311  -2.257  -3.291  0.00  0.00    -0.014 C 
ATOM      8  C   UNL     1      -1.344  -2.831  -4.709  0.00  0.00    -0.078 C 
ATOM      9  N   UNL     1      -1.226  -4.293  -4.652  0.00  0.00    +0.385 N 
ATOM     10  C   UNL     1       0.072  -4.666  -4.078  0.00  0.00    -0.078 C 
ATOM     11  C   UNL     1       0.160  -4.163  -2.635  0.00  0.00    -0.014 C 
ATOM     12  H   UNL     1      -1.967  -4.667  -4.078  0.00  0.00    -0.081 HD
BRANCH   6  13
ATOM     13  C   UNL     1       0.020  -2.136  -1.177  0.00  0.00    +0.107 C 
BRANCH  13  17
ATOM     14  C   UNL     1      -0.018   1.503   0.010  0.00  0.00    +0.109 C 
ATOM     15  C   UNL     1       0.002  -0.004   0.002  0.00  0.00    +0.210 C 
ATOM     16  O   UNL     1       0.020  -0.616   1.049  0.00  0.00    -0.276 OA
ATOM     17  N   UNL     1       0.000  -0.672  -1.169  0.00  0.00    -0.315 N 
ATOM     18  H   UNL     1      -0.015  -0.182  -2.006  0.00  0.00    +0.149 HD
ENDBRANCH  13  17
ENDBRANCH   6  13
ENDBRANCH   5   9
ENDBRANCH   1   5
BRANCH   3  19
ATOM     19  C   UNL     1      -1.435  -8.539  -7.006  0.00  0.00    +0.105 C 
BRANCH  19  20
ATOM     20  C   UNL     1      -1.550  -9.114  -8.419  0.00  0.00    -0.012 C 
ATOM     21  C   UNL     1      -0.259  -8.843  -9.226  0.00  0.00    -0.016 C 
ATOM     22  C   UNL     1      -0.013 -10.130 -10.036  0.00  0.00    -0.078 C 
ATOM     23  N   UNL     1      -1.122 -11.057  -9.723  0.00  0.00    +0.386 N 
ATOM     24  C   UNL     1      -1.619 -10.661  -8.378  0.00  0.00    -0.074 C 
ATOM     25  H   UNL     1      -1.859 -10.962 -10.405  0.00  0.00    -0.081 HD
BRANCH  23  26
ATOM     26  C   UNL     1      -0.631 -12.442  -9.694  0.00  0.00    +0.036 C 
BRANCH  26  27
ATOM     27  C   UNL     1      -0.194 -12.856 -11.101  0.00  0.00    +0.376 C 
ATOM     28  F   UNL     1       0.829 -12.008 -11.540  0.00  0.00    -0.173 F 
ATOM     29  F   UNL     1       0.274 -14.175 -11.074  0.00  0.00    -0.173 F 
ATOM     30  F   UNL     1      -1.282 -12.765 -11.974  0.00  0.00    -0.173 F 
ENDBRANCH  26  27
ENDBRANCH  23  26
ENDBRANCH  19  20
ENDBRANCH   3  19
TORSDOF 8
