REMARK  Name = ZINC15657761
REMARK  16 active torsions:
REMARK  status: ('A' for Active; 'I' for Inactive)
REMARK    1  A    between atoms: C_1  and  C_2
REMARK    2  A    between atoms: C_2  and  C_3
REMARK    3  A    between atoms: C_2  and  C_4
REMARK    4  A    between atoms: C_2  and  O_40
REMARK    5  A    between atoms: C_4  and  C_5
REMARK    6  A    between atoms: C_5  and  C_6
REMARK    7  A    between atoms: C_6  and  C_7
REMARK    8  A    between atoms: C_6  and  C_12
REMARK    9  A    between atoms: C_6  and  O_39
REMARK   10  A    between atoms: C_7  and  C_8
REMARK   11  A    between atoms: C_8  and  O_10
REMARK   12  A    between atoms: O_10  and  C_11
REMARK   13  A    between atoms: C_12  and  O_14
REMARK   14  A    between atoms: O_14  and  C_15
REMARK   15  A    between atoms: C_33  and  O_34
REMARK   16  A    between atoms: O_34  and  C_35
REMARK                            x       y       z     vdW  Elec       q    Type
REMARK                         _______ _______ _______ _____ _____    ______ ____
ROOT
ATOM      1  C   UNL     1       0.518  -0.512   3.553  0.00  0.00    +0.250 C 
ATOM      2  C   UNL     1       0.459   0.469   2.361  0.00  0.00    +0.092 C 
ATOM      3  C   UNL     1       1.536   1.512   2.475  0.00  0.00    -0.031 A 
ATOM      4  C   UNL     1       2.107   1.716   3.730  0.00  0.00    +0.054 A 
ATOM      5  C   UNL     1       3.081   2.695   3.845  0.00  0.00    +0.167 A 
ATOM      6  C   UNL     1       3.474   3.451   2.731  0.00  0.00    +0.167 A 
ATOM      7  C   UNL     1       2.908   3.233   1.486  0.00  0.00    +0.053 A 
ATOM      8  C   UNL     1       1.933   2.237   1.374  0.00  0.00    -0.039 A 
ATOM      9  C   UNL     1       1.418   1.988  -0.001  0.00  0.00    +0.051 C 
ATOM     10  C   UNL     1      -0.018   1.479   0.010  0.00  0.00    +0.090 C 
ATOM     11  N   UNL     1       0.002  -0.004   0.002  0.00  0.00    -0.292 NA
ATOM     12  C   UNL     1       0.732  -0.473   1.183  0.00  0.00    +0.054 C 
ATOM     13  C   UNL     1       2.213  -0.492   0.778  0.00  0.00    +0.028 C 
ATOM     14  C   UNL     1       2.105  -1.043  -0.673  0.00  0.00    +0.017 C 
ATOM     15  C   UNL     1       0.786  -0.428  -1.188  0.00  0.00    +0.085 C 
ATOM     16  C   UNL     1       0.283  -1.831   1.642  0.00  0.00    +0.041 C 
ATOM     17  C   UNL     1       0.165  -1.857   2.954  0.00  0.00    +0.136 C 
ATOM     18  O   UNL     1       4.425   4.333   3.117  0.00  0.00    -0.453 OA
ATOM     19  C   UNL     1       4.903   3.852   4.390  0.00  0.00    +0.466 C 
ATOM     20  O   UNL     1       3.791   3.102   4.922  0.00  0.00    -0.453 OA
ENDROOT
BRANCH  17  21
ATOM     21  O   UNL     1      -0.222  -2.942   3.671  0.00  0.00    -0.496 OA
ATOM     22  C   UNL     1      -0.517  -4.132   2.938  0.00  0.00    +0.276 C 
ENDBRANCH  17  21
BRANCH   1  23
ATOM     23  O   UNL     1      -0.453  -0.138   4.566  0.00  0.00    -0.451 OA
BRANCH  23  24
ATOM     24  C   UNL     1      -0.152  -0.436   5.839  0.00  0.00    +0.340 C 
ATOM     25  O   UNL     1       0.889  -0.992   6.099  0.00  0.00    -0.248 OA
BRANCH  24  26
ATOM     26  C   UNL     1      -1.111  -0.079   6.945  0.00  0.00    +0.172 C 
BRANCH  26  27
ATOM     27  O   UNL     1      -1.760   1.155   6.631  0.00  0.00    -0.377 OA
ATOM     28  H   UNL     1      -2.365   1.242   5.716  0.00  0.00    +0.211 HD
ENDBRANCH  26  27
BRANCH  26  29
ATOM     29  C   UNL     1      -0.343   0.069   8.259  0.00  0.00    +0.049 C 
BRANCH  29  30
ATOM     30  C   UNL     1      -1.330   0.309   9.403  0.00  0.00    +0.037 C 
BRANCH  30  32
ATOM     31  C   UNL     1       0.399   1.643  10.617  0.00  0.00    +0.041 C 
ATOM     32  C   UNL     1      -0.562   0.456  10.718  0.00  0.00    +0.061 C 
ATOM     33  C   UNL     1      -1.549   0.696  11.862  0.00  0.00    +0.041 C 
BRANCH  32  34
ATOM     34  O   UNL     1       0.181  -0.738  10.972  0.00  0.00    -0.389 OA
ATOM     35  H   UNL     1      -0.343  -1.699  11.077  0.00  0.00    +0.210 HD
ENDBRANCH  32  34
ENDBRANCH  30  32
ENDBRANCH  29  30
ENDBRANCH  26  29
BRANCH  26  36
ATOM     36  C   UNL     1      -2.159  -1.184   7.088  0.00  0.00    +0.166 C 
BRANCH  36  37
ATOM     37  C   UNL     1      -2.832  -1.414   5.759  0.00  0.00    +0.310 C 
ATOM     38  O   UNL     1      -2.507  -0.761   4.796  0.00  0.00    -0.251 OA
BRANCH  37  39
ATOM     39  O   UNL     1      -3.792  -2.345   5.645  0.00  0.00    -0.468 OA
ATOM     40  C   UNL     1      -4.397  -2.512   4.335  0.00  0.00    +0.280 C 
ENDBRANCH  37  39
ENDBRANCH  36  37
ENDBRANCH  26  36
ENDBRANCH  24  26
ENDBRANCH  23  24
ENDBRANCH   1  23
TORSDOF 12
