REMARK  Name = ZINC39354270
REMARK  5 active torsions:
REMARK  status: ('A' for Active; 'I' for Inactive)
REMARK    1  A    between atoms: C_4  and  N_7
REMARK    2  A    between atoms: C_8  and  C_10
REMARK    3  A    between atoms: C_10  and  C_11
REMARK    4  A    between atoms: N_17  and  N_18
REMARK    5  A    between atoms: C_19  and  C_20
REMARK                            x       y       z     vdW  Elec       q    Type
REMARK                         _______ _______ _______ _____ _____    ______ ____
ROOT
ATOM      1  C   UNL     1       4.708  -4.227   0.249  0.00  0.00    +0.149 C 
ATOM      2  C   UNL     1       6.015  -5.003   0.321  0.00  0.00    +0.233 C 
ATOM      3  O   UNL     1       6.844  -5.000  -0.564  0.00  0.00    -0.274 OA
ATOM      4  N   UNL     1       6.155  -5.684   1.450  0.00  0.00    -0.263 N 
ATOM      5  C   UNL     1       5.209  -5.674   2.434  0.00  0.00    +0.183 C 
ATOM      6  N   UNL     1       5.254  -6.319   3.597  0.00  0.00    -0.127 NA
ATOM      7  S   UNL     1       3.974  -4.678   1.873  0.00  0.00    -0.075 S 
ATOM      8  H   UNL     1       6.960  -6.209   1.582  0.00  0.00    +0.157 HD
ENDROOT
BRANCH   6   9
ATOM      9  N   UNL     1       6.274  -7.052   3.890  0.00  0.00    -0.155 NA
ATOM     10  C   UNL     1       6.318  -7.693   5.045  0.00  0.00    +0.141 C 
BRANCH  10  11
ATOM     11  C   UNL     1       7.417  -8.482   5.360  0.00  0.00    +0.000 C 
ATOM     12  C   UNL     1       7.619  -9.227   6.530  0.00  0.00    +0.004 A 
ATOM     13  C   UNL     1       6.837  -9.410   7.688  0.00  0.00    +0.010 A 
ATOM     14  C   UNL     1       7.293 -10.208   8.690  0.00  0.00    +0.001 A 
ATOM     15  C   UNL     1       8.525 -10.857   8.603  0.00  0.00    +0.002 A 
ATOM     16  C   UNL     1       9.329 -10.723   7.518  0.00  0.00    +0.026 A 
ATOM     17  C   UNL     1       8.918  -9.907   6.433  0.00  0.00    +0.043 A 
ATOM     18  N   UNL     1       9.506  -9.620   5.286  0.00  0.00    -0.380 N 
ATOM     19  C   UNL     1       8.644  -8.723   4.509  0.00  0.00    +0.150 C 
ATOM     20  H   UNL     1      10.370  -9.954   5.000  0.00  0.00    +0.160 HD
ENDBRANCH  10  11
ENDBRANCH   6   9
BRANCH   1  21
ATOM     21  C   UNL     1       4.962  -2.721   0.153  0.00  0.00    +0.120 C 
BRANCH  21  23
ATOM     22  N   UNL     1       3.622  -0.651  -0.037  0.00  0.00    -0.285 N 
ATOM     23  C   UNL     1       3.645  -1.995   0.057  0.00  0.00    +0.219 C 
ATOM     24  O   UNL     1       2.606  -2.620   0.064  0.00  0.00    -0.275 OA
ATOM     25  H   UNL     1       4.452  -0.156  -0.121  0.00  0.00    +0.155 HD
BRANCH  22  29
ATOM     26  C   UNL     1      -0.015   1.381   0.029  0.00  0.00    +0.000 A 
ATOM     27  C   UNL     1       0.140   0.218   0.763  0.00  0.00    +0.002 A 
ATOM     28  C   UNL     1       1.344  -0.457   0.743  0.00  0.00    +0.023 A 
ATOM     29  C   UNL     1       2.400   0.031  -0.015  0.00  0.00    +0.033 A 
ATOM     30  C   UNL     1       2.241   1.198  -0.751  0.00  0.00    +0.023 A 
ATOM     31  C   UNL     1       1.034   1.870  -0.727  0.00  0.00    +0.002 A 
ENDBRANCH  22  29
ENDBRANCH  21  23
ENDBRANCH   1  21
TORSDOF 5
