REMARK  Name = ZINC64179072
REMARK  11 active torsions:
REMARK  status: ('A' for Active; 'I' for Inactive)
REMARK    1  A    between atoms: C_1  and  O_2
REMARK    2  A    between atoms: O_2  and  C_3
REMARK    3  A    between atoms: C_5  and  C_11
REMARK    4  A    between atoms: C_7  and  O_9
REMARK    5  A    between atoms: O_9  and  C_10
REMARK    6  A    between atoms: C_11  and  C_12
REMARK    7  A    between atoms: C_12  and  C_13
REMARK    8  A    between atoms: C_19  and  C_21
REMARK    9  A    between atoms: C_21  and  C_23
REMARK   10  A    between atoms: C_21  and  N_33
REMARK   11  A    between atoms: C_23  and  C_24
REMARK                            x       y       z     vdW  Elec       q    Type
REMARK                         _______ _______ _______ _____ _____    ______ ____
ROOT
ATOM      1  C   UNL     1      -2.599  -6.215   1.455  0.00  0.00    -0.008 C 
ATOM      2  C   UNL     1      -3.929  -6.675   0.852  0.00  0.00    +0.022 C 
ATOM      3  C   UNL     1      -3.968  -8.206   0.820  0.00  0.00    +0.108 C 
ATOM      4  N   UNL     1      -3.711  -8.714   2.175  0.00  0.00    -0.300 N 
ATOM      5  C   UNL     1      -2.505  -8.263   2.882  0.00  0.00    +0.108 C 
ATOM      6  C   UNL     1      -2.482  -6.732   2.891  0.00  0.00    +0.022 C 
ATOM      7  C   UNL     1      -4.567  -9.577   2.758  0.00  0.00    +0.236 C 
ATOM      8  O   UNL     1      -5.559  -9.942   2.164  0.00  0.00    -0.274 OA
ENDROOT
BRANCH   1   9
ATOM      9  C   UNL     1      -2.542  -4.686   1.457  0.00  0.00    +0.008 C 
BRANCH   9  10
ATOM     10  C   UNL     1      -2.533  -4.175   0.015  0.00  0.00    +0.035 C 
BRANCH  10  13
ATOM     11  C   UNL     1      -1.200  -0.637   0.010  0.00  0.00    +0.124 A 
ATOM     12  C   UNL     1      -1.255  -2.024   0.009  0.00  0.00    +0.049 A 
ATOM     13  C   UNL     1      -2.477  -2.669   0.017  0.00  0.00    -0.040 A 
ATOM     14  C   UNL     1      -3.647  -1.935   0.025  0.00  0.00    +0.049 A 
ATOM     15  C   UNL     1      -3.598  -0.548   0.027  0.00  0.00    +0.124 A 
ATOM     16  C   UNL     1      -2.373   0.101   0.025  0.00  0.00    +0.091 A 
BRANCH  11  18
ATOM     17  C   UNL     1      -0.017   1.425   0.010  0.00  0.00    +0.277 C 
ATOM     18  O   UNL     1       0.002  -0.004   0.002  0.00  0.00    -0.495 OA
ENDBRANCH  11  18
BRANCH  15  19
ATOM     19  O   UNL     1      -4.750   0.173   0.036  0.00  0.00    -0.495 OA
ATOM     20  C   UNL     1      -4.624   1.597   0.037  0.00  0.00    +0.277 C 
ENDBRANCH  15  19
ENDBRANCH  10  13
ENDBRANCH   9  10
ENDBRANCH   1   9
BRANCH   7  21
ATOM     21  C   UNL     1      -4.290 -10.089   4.148  0.00  0.00    +0.165 C 
BRANCH  21  22
ATOM     22  N   UNL     1      -5.531 -10.598   4.737  0.00  0.00    -0.288 N 
ATOM     23  C   UNL     1      -6.194 -11.610   4.143  0.00  0.00    +0.298 C 
ATOM     24  O   UNL     1      -5.762 -12.101   3.118  0.00  0.00    -0.253 OA
ATOM     25  N   UNL     1      -7.336 -12.077   4.686  0.00  0.00    -0.313 N 
ATOM     26  H   UNL     1      -5.876 -10.206   5.555  0.00  0.00    +0.151 HD
ATOM     27  H   UNL     1      -7.681 -11.685   5.503  0.00  0.00    +0.146 HD
ATOM     28  H   UNL     1      -7.813 -12.805   4.258  0.00  0.00    +0.146 HD
ENDBRANCH  21  22
BRANCH  21  29
ATOM     29  C   UNL     1      -3.259 -11.217   4.080  0.00  0.00    +0.065 C 
BRANCH  29  30
ATOM     30  C   UNL     1      -2.890 -11.646   5.477  0.00  0.00    -0.039 C 
ATOM     31  C   UNL     1      -3.423 -12.671   6.180  0.00  0.00    -0.001 A 
ATOM     32  C   UNL     1      -4.467 -13.655   5.867  0.00  0.00    +0.010 A 
ATOM     33  C   UNL     1      -4.793 -14.583   6.795  0.00  0.00    +0.001 A 
ATOM     34  C   UNL     1      -4.162 -14.628   8.046  0.00  0.00    +0.002 A 
ATOM     35  C   UNL     1      -3.195 -13.758   8.406  0.00  0.00    +0.026 A 
ATOM     36  C   UNL     1      -2.772 -12.740   7.507  0.00  0.00    +0.043 A 
ATOM     37  N   UNL     1      -1.871 -11.794   7.620  0.00  0.00    -0.380 N 
ATOM     38  C   UNL     1      -1.845 -11.022   6.374  0.00  0.00    +0.144 C 
ATOM     39  H   UNL     1      -1.312 -11.635   8.397  0.00  0.00    +0.160 HD
ENDBRANCH  29  30
ENDBRANCH  21  29
ENDBRANCH   7  21
TORSDOF 9
