REMARK  Name = ZINC39682890
REMARK  9 active torsions:
REMARK  status: ('A' for Active; 'I' for Inactive)
REMARK    1  A    between atoms: C_1  and  C_2
REMARK    2  A    between atoms: C_6  and  C_8
REMARK    3  A    between atoms: C_8  and  C_9
REMARK    4  A    between atoms: C_13  and  C_22
REMARK    5  A    between atoms: N_24  and  C_25
REMARK    6  A    between atoms: C_25  and  C_26
REMARK    7  A    between atoms: C_26  and  C_27
REMARK    8  A    between atoms: C_27  and  C_28
REMARK    9  A    between atoms: C_28  and  C_29
REMARK                            x       y       z     vdW  Elec       q    Type
REMARK                         _______ _______ _______ _____ _____    ______ ____
ROOT
ATOM      1  C   UNL     1       1.187  -3.004   3.002  0.00  0.00    +0.220 C 
ATOM      2  O   UNL     1       2.031  -2.528   2.273  0.00  0.00    -0.275 OA
ATOM      3  N   UNL     1       1.555  -3.689   4.103  0.00  0.00    -0.300 N 
ATOM      4  C   UNL     1       0.677  -4.343   5.102  0.00  0.00    +0.121 C 
ATOM      5  C   UNL     1       1.397  -5.665   5.449  0.00  0.00    +0.100 C 
ATOM      6  C   UNL     1       2.875  -5.407   5.111  0.00  0.00    -0.004 C 
ATOM      7  C   UNL     1       2.930  -3.966   4.584  0.00  0.00    +0.115 C 
ATOM      8  C   UNL     1       3.347  -6.376   4.032  0.00  0.00    -0.010 C 
ATOM      9  C   UNL     1       4.834  -6.138   3.753  0.00  0.00    -0.082 C 
ATOM     10  N   UNL     1       5.603  -6.337   4.988  0.00  0.00    +0.379 N 
ATOM     11  C   UNL     1       5.207  -5.341   5.991  0.00  0.00    -0.082 C 
ATOM     12  C   UNL     1       3.736  -5.545   6.363  0.00  0.00    -0.010 C 
ATOM     13  H   UNL     1       5.425  -7.263   5.348  0.00  0.00    -0.086 HD
ATOM     14  H   UNL     1       6.587  -6.240   4.789  0.00  0.00    -0.086 HD
ENDROOT
BRANCH   5  15
ATOM     15  C   UNL     1       0.854  -6.794   4.612  0.00  0.00    +0.218 C 
ATOM     16  O   UNL     1       0.423  -6.572   3.501  0.00  0.00    -0.275 OA
ATOM     17  N   UNL     1       0.848  -8.051   5.099  0.00  0.00    -0.315 N 
ATOM     18  H   UNL     1       1.193  -8.229   5.988  0.00  0.00    +0.149 HD
BRANCH  17  19
ATOM     19  C   UNL     1       0.320  -9.149   4.285  0.00  0.00    +0.104 C 
BRANCH  19  20
ATOM     20  C   UNL     1       0.428 -10.460   5.066  0.00  0.00    +0.019 C 
BRANCH  20  21
ATOM     21  C   UNL     1      -0.123 -11.607   4.216  0.00  0.00    +0.013 C 
BRANCH  21  22
ATOM     22  C   UNL     1      -0.014 -12.918   4.997  0.00  0.00    +0.125 C 
BRANCH  22  23
ATOM     23  C   UNL     1      -0.557 -14.048   4.160  0.00  0.00    +0.356 C 
ATOM     24  O   UNL     1      -0.990 -13.825   3.043  0.00  0.00    -0.246 OA
ATOM     25  O   UNL     1      -0.563 -15.184   4.601  0.00  0.00    -0.246 OA
ENDBRANCH  22  23
ENDBRANCH  21  22
ENDBRANCH  20  21
ENDBRANCH  19  20
ENDBRANCH  17  19
ENDBRANCH   5  15
BRANCH   1  26
ATOM     26  C   UNL     1      -0.274  -2.827   2.678  0.00  0.00    +0.131 C 
BRANCH  26  32
ATOM     27  C   UNL     1      -0.720   1.584   0.356  0.00  0.00    +0.044 C 
ATOM     28  C   UNL     1      -0.628   0.081   0.296  0.00  0.00    -0.050 A 
ATOM     29  C   UNL     1      -0.672  -0.567  -0.925  0.00  0.00    +0.003 A 
ATOM     30  C   UNL     1      -0.587  -1.945  -0.980  0.00  0.00    +0.001 A 
ATOM     31  C   UNL     1      -0.459  -2.677   0.186  0.00  0.00    +0.004 A 
ATOM     32  C   UNL     1      -0.414  -2.030   1.407  0.00  0.00    -0.038 A 
ATOM     33  C   UNL     1      -0.494  -0.651   1.462  0.00  0.00    +0.007 A 
ENDBRANCH  26  32
ENDBRANCH   1  26
TORSDOF 8
