REMARK  Name = ZINC43125980
REMARK  8 active torsions:
REMARK  status: ('A' for Active; 'I' for Inactive)
REMARK    1  A    between atoms: C_1  and  C_2
REMARK    2  A    between atoms: C_2  and  C_4
REMARK    3  A    between atoms: C_2  and  N_24
REMARK    4  A    between atoms: C_4  and  C_6
REMARK    5  A    between atoms: C_4  and  S_11
REMARK    6  A    between atoms: S_11  and  C_12
REMARK    7  A    between atoms: C_17  and  O_22
REMARK    8  A    between atoms: O_22  and  C_23
REMARK                            x       y       z     vdW  Elec       q    Type
REMARK                         _______ _______ _______ _____ _____    ______ ____
ROOT
ATOM      1  S   UNL     1       0.808  -2.322   1.074  0.00  0.00    -0.081 S 
ENDROOT
BRANCH   1   2
ATOM      2  C   UNL     1       1.657  -2.682  -0.427  0.00  0.00    +0.168 A 
ATOM      3  N   UNL     1       1.848  -3.934  -0.941  0.00  0.00    -0.333 N 
ATOM      4  H   UNL     1       1.544  -4.769  -0.550  0.00  0.00    +0.168 HD
ATOM      5  C   UNL     1       2.554  -3.790  -2.124  0.00  0.00    +0.070 A 
ATOM      6  C   UNL     1       3.032  -4.682  -3.072  0.00  0.00    +0.073 A 
ATOM      7  C   UNL     1       3.721  -4.210  -4.175  0.00  0.00    +0.122 A 
ATOM      8  C   UNL     1       3.937  -2.845  -4.337  0.00  0.00    +0.048 A 
ATOM      9  C   UNL     1       3.468  -1.949  -3.403  0.00  0.00    +0.033 A 
ATOM     10  C   UNL     1       2.770  -2.412  -2.285  0.00  0.00    +0.090 A 
ATOM     11  N   UNL     1       2.195  -1.789  -1.221  0.00  0.00    -0.222 NA
BRANCH   7  12
ATOM     12  O   UNL     1       4.191  -5.084  -5.105  0.00  0.00    -0.495 OA
ATOM     13  C   UNL     1       4.894  -4.531  -6.220  0.00  0.00    +0.277 C 
ENDBRANCH   7  12
ENDBRANCH   1   2
BRANCH   1  14
ATOM     14  C   UNL     1       0.885  -0.514   1.199  0.00  0.00    +0.070 C 
BRANCH  14  15
ATOM     15  C   UNL     1       0.295  -0.076   2.515  0.00  0.00    -0.029 A 
ATOM     16  C   UNL     1       0.970   0.821   3.322  0.00  0.00    +0.012 A 
ATOM     17  C   UNL     1       0.412   1.195   4.499  0.00  0.00    +0.045 A 
ATOM     18  S   UNL     1      -1.114   0.268   4.495  0.00  0.00    -0.105 S 
ATOM     19  C   UNL     1      -0.907  -0.551   2.922  0.00  0.00    +0.049 A 
ENDBRANCH  14  15
BRANCH  14  21
ATOM     20  C   UNL     1       0.215   1.634   0.113  0.00  0.00    -0.013 C 
ATOM     21  C   UNL     1       0.090   0.111   0.051  0.00  0.00    -0.060 C 
BRANCH  21  22
ATOM     22  N   UNL     1      -1.324  -0.270   0.170  0.00  0.00    +0.381 N 
ATOM     23  H   UNL     1      -1.826   0.041  -0.649  0.00  0.00    -0.090 HD
ATOM     24  H   UNL     1      -1.396  -1.274   0.248  0.00  0.00    -0.090 HD
ATOM     25  H   UNL     1      -1.720   0.161   0.991  0.00  0.00    -0.090 HD
ENDBRANCH  21  22
ENDBRANCH  14  21
ENDBRANCH   1  14
TORSDOF 6
