REMARK  Name = ZINC04884628
REMARK  7 active torsions:
REMARK  status: ('A' for Active; 'I' for Inactive)
REMARK    1  A    between atoms: C_1  and  C_2
REMARK    2  A    between atoms: C_2  and  C_3
REMARK    3  A    between atoms: C_6  and  N_9
REMARK    4  A    between atoms: N_9  and  S_10
REMARK    5  A    between atoms: S_10  and  C_13
REMARK    6  A    between atoms: N_21  and  C_26
REMARK    7  A    between atoms: N_24  and  C_25
REMARK                            x       y       z     vdW  Elec       q    Type
REMARK                         _______ _______ _______ _____ _____    ______ ____
ROOT
ATOM      1  C   UNL     1      -0.681   5.111   3.810  0.00  0.00    +0.109 A 
ATOM      2  C   UNL     1      -0.839   3.836   4.331  0.00  0.00    +0.031 A 
ATOM      3  C   UNL     1       0.095   2.851   4.077  0.00  0.00    +0.028 A 
ATOM      4  C   UNL     1       1.202   3.139   3.293  0.00  0.00    +0.058 A 
ATOM      5  C   UNL     1       1.363   4.431   2.765  0.00  0.00    +0.065 A 
ATOM      6  C   UNL     1       0.413   5.415   3.028  0.00  0.00    +0.044 A 
ATOM      7  C   UNL     1       2.554   4.704   1.941  0.00  0.00    +0.264 A 
ATOM      8  O   UNL     1       2.744   5.807   1.464  0.00  0.00    -0.267 OA
ATOM      9  N   UNL     1       3.427   3.696   1.724  0.00  0.00    -0.263 N 
ATOM     10  C   UNL     1       3.229   2.478   2.251  0.00  0.00    +0.332 A 
ATOM     11  O   UNL     1       4.049   1.608   2.029  0.00  0.00    -0.246 OA
ATOM     12  N   UNL     1       2.163   2.178   3.014  0.00  0.00    -0.296 N 
ATOM     13  C   UNL     1       2.016   0.825   3.554  0.00  0.00    +0.154 C 
ATOM     14  C   UNL     1       4.617   3.940   0.904  0.00  0.00    +0.157 C 
ENDROOT
BRANCH   1  15
ATOM     15  S   UNL     1      -1.887   6.350   4.148  0.00  0.00    +0.072 S 
ATOM     16  O   UNL     1      -1.881   7.237   3.037  0.00  0.00    -0.150 OA
ATOM     17  O   UNL     1      -3.060   5.670   4.573  0.00  0.00    -0.150 OA
BRANCH  15  18
ATOM     18  N   UNL     1      -1.345   7.218   5.450  0.00  0.00    -0.216 N 
ATOM     19  H   UNL     1      -1.148   8.163   5.354  0.00  0.00    +0.174 HD
BRANCH  18  23
ATOM     20  C   UNL     1      -0.831   5.347   9.134  0.00  0.00    -0.048 A 
ATOM     21  C   UNL     1       0.271   5.663   8.360  0.00  0.00    +0.005 A 
ATOM     22  C   UNL     1       0.104   6.283   7.138  0.00  0.00    +0.025 A 
ATOM     23  C   UNL     1      -1.173   6.590   6.685  0.00  0.00    +0.048 A 
ATOM     24  C   UNL     1      -2.278   6.277   7.467  0.00  0.00    +0.025 A 
ATOM     25  C   UNL     1      -2.104   5.652   8.686  0.00  0.00    +0.005 A 
BRANCH  20  27
ATOM     26  C   UNL     1      -0.500   5.729  11.561  0.00  0.00    +0.009 C 
ATOM     27  C   UNL     1      -0.645   4.670  10.467  0.00  0.00    +0.032 C 
ENDBRANCH  20  27
ENDBRANCH  18  23
ENDBRANCH  15  18
ENDBRANCH   1  15
TORSDOF 4
