REMARK  Name = ZINC03958552
REMARK  8 active torsions:
REMARK  status: ('A' for Active; 'I' for Inactive)
REMARK    1  A    between atoms: C_6  and  N_7
REMARK    2  A    between atoms: C_8  and  C_24
REMARK    3  A    between atoms: C_11  and  S_12
REMARK    4  A    between atoms: S_12  and  C_13
REMARK    5  A    between atoms: C_13  and  C_14
REMARK    6  A    between atoms: N_16  and  C_17
REMARK    7  A    between atoms: C_17  and  C_18
REMARK    8  A    between atoms: C_24  and  C_25
REMARK                            x       y       z     vdW  Elec       q    Type
REMARK                         _______ _______ _______ _____ _____    ______ ____
ROOT
ATOM      1  N   UNL     1      -1.202  -0.723   0.010  0.00  0.00    -0.274 N 
ATOM      2  C   UNL     1      -1.670  -1.544   1.002  0.00  0.00    +0.144 A 
ATOM      3  N   UNL     1      -2.821  -2.011   0.608  0.00  0.00    -0.133 NA
ATOM      4  N   UNL     1      -3.113  -1.546  -0.554  0.00  0.00    -0.122 NA
ATOM      5  C   UNL     1      -2.158  -0.746  -0.968  0.00  0.00    +0.197 A 
ENDROOT
BRANCH   1  11
ATOM      6  C   UNL     1      -0.017   1.384   0.010  0.00  0.00    +0.028 A 
ATOM      7  C   UNL     1       1.171   2.090   0.002  0.00  0.00    +0.022 A 
ATOM      8  C   UNL     1       2.378   1.414  -0.013  0.00  0.00    +0.041 A 
ATOM      9  C   UNL     1       2.399   0.030  -0.021  0.00  0.00    +0.022 A 
ATOM     10  C   UNL     1       1.215  -0.679  -0.013  0.00  0.00    +0.028 A 
ATOM     11  C   UNL     1       0.002  -0.004   0.002  0.00  0.00    +0.050 A 
ATOM     12 CL   UNL     1       3.869   2.304  -0.024  0.00  0.00    -0.084 Cl
ENDBRANCH   1  11
BRANCH   5  13
ATOM     13  S   UNL     1      -2.115   0.131  -2.496  0.00  0.00    -0.076 S 
BRANCH  13  14
ATOM     14  C   UNL     1      -3.666  -0.335  -3.313  0.00  0.00    +0.173 C 
BRANCH  14  15
ATOM     15  C   UNL     1      -3.757   0.356  -4.650  0.00  0.00    +0.223 C 
ATOM     16  O   UNL     1      -2.863   1.089  -5.015  0.00  0.00    -0.275 OA
ATOM     17  N   UNL     1      -4.831   0.158  -5.439  0.00  0.00    -0.312 N 
ATOM     18  H   UNL     1      -5.546  -0.429  -5.147  0.00  0.00    +0.149 HD
BRANCH  17  19
ATOM     19  C   UNL     1      -4.919   0.829  -6.738  0.00  0.00    +0.135 C 
BRANCH  19  20
ATOM     20  C   UNL     1      -6.228   0.436  -7.427  0.00  0.00    +0.135 C 
ATOM     21  C   UNL     1      -6.325   1.108  -8.820  0.00  0.00    +0.035 C 
ATOM     22  C   UNL     1      -7.286   0.133  -9.552  0.00  0.00    +0.031 C 
ATOM     23  C   UNL     1      -6.896  -1.231  -8.943  0.00  0.00    +0.160 C 
ATOM     24  O   UNL     1      -6.250  -0.976  -7.688  0.00  0.00    -0.375 OA
ENDBRANCH  19  20
ENDBRANCH  17  19
ENDBRANCH  14  15
ENDBRANCH  13  14
ENDBRANCH   5  13
BRANCH   2  25
ATOM     25  C   UNL     1      -0.980  -1.852   2.306  0.00  0.00    +0.130 C 
BRANCH  25  26
ATOM     26  C   UNL     1      -1.404  -0.849   3.348  0.00  0.00    +0.033 A 
ATOM     27  C   UNL     1      -2.417  -1.137   4.193  0.00  0.00    +0.091 A 
ATOM     28  C   UNL     1      -2.797  -0.179   5.164  0.00  0.00    +0.254 A 
ATOM     29  O   UNL     1      -3.707  -0.416   5.938  0.00  0.00    -0.268 OA
ATOM     30  N   UNL     1      -2.143   0.999   5.223  0.00  0.00    -0.275 N 
ATOM     31  H   UNL     1      -2.397   1.660   5.886  0.00  0.00    +0.173 HD
ATOM     32  C   UNL     1      -1.137   1.260   4.368  0.00  0.00    +0.327 A 
ATOM     33  O   UNL     1      -0.556   2.326   4.433  0.00  0.00    -0.247 OA
ATOM     34  N   UNL     1      -0.762   0.356   3.444  0.00  0.00    -0.311 N 
ATOM     35  H   UNL     1      -0.033   0.561   2.839  0.00  0.00    +0.170 HD
ENDBRANCH  25  26
ENDBRANCH   2  25
TORSDOF 8
