REMARK  Name = ZINC38792984
REMARK  3 active torsions:
REMARK  status: ('A' for Active; 'I' for Inactive)
REMARK    1  A    between atoms: C_8  and  C_10
REMARK    2  A    between atoms: C_10  and  C_11
REMARK    3  A    between atoms: C_11  and  C_16
REMARK                            x       y       z     vdW  Elec       q    Type
REMARK                         _______ _______ _______ _____ _____    ______ ____
ROOT
ATOM      1  C   UNL     1       3.005  -4.513  -1.394  0.00  0.00    +0.053 C 
ATOM      2  C   UNL     1       4.226  -3.779  -2.002  0.00  0.00    +0.016 C 
ATOM      3  C   UNL     1       4.615  -4.689  -3.193  0.00  0.00    +0.001 C 
ATOM      4  C   UNL     1       4.384  -6.121  -2.666  0.00  0.00    +0.001 C 
ATOM      5  C   UNL     1       3.361  -6.009  -1.523  0.00  0.00    +0.016 C 
ENDROOT
BRANCH   1   6
ATOM      6  C   UNL     1       1.756  -4.199  -2.176  0.00  0.00    +0.224 C 
ATOM      7  O   UNL     1       1.086  -5.100  -2.636  0.00  0.00    -0.275 OA
ATOM      8  N   UNL     1       1.382  -2.918  -2.363  0.00  0.00    -0.285 N 
ATOM      9  C   UNL     1       0.179  -2.521  -1.993  0.00  0.00    +0.036 C 
ATOM     10  C   UNL     1      -0.701  -3.435  -1.254  0.00  0.00    +0.025 C 
ATOM     11  C   UNL     1      -1.930  -3.037  -0.873  0.00  0.00    +0.032 C 
ATOM     12  C   UNL     1      -2.397  -1.685  -1.194  0.00  0.00    +0.095 C 
ATOM     13  N   UNL     1      -3.513  -1.019  -0.967  0.00  0.00    -0.190 NA
ATOM     14  C   UNL     1      -3.408   0.214  -1.491  0.00  0.00    +0.369 C 
ATOM     15  O   UNL     1      -4.382   1.153  -1.431  0.00  0.00    -0.243 OA
ATOM     16  N   UNL     1      -2.243   0.393  -2.069  0.00  0.00    -0.190 NA
ATOM     17  C   UNL     1      -1.521  -0.757  -1.936  0.00  0.00    +0.097 C 
ATOM     18  C   UNL     1      -0.280  -1.153  -2.317  0.00  0.00    +0.053 C 
ATOM     19  H   UNL     1       1.997  -2.288  -2.769  0.00  0.00    +0.155 HD
ENDBRANCH   1   6
BRANCH   1  20
ATOM     20  C   UNL     1       2.826  -4.130   0.076  0.00  0.00    +0.079 C 
BRANCH  20  28
ATOM     21  C   UNL     1       0.553   1.577   0.564  0.00  0.00    +0.002 A 
ATOM     22  C   UNL     1       1.821   2.142   0.551  0.00  0.00    +0.001 A 
ATOM     23  C   UNL     1       2.930   1.323   0.449  0.00  0.00    +0.017 A 
ATOM     24  C   UNL     1       2.757  -0.037   0.362  0.00  0.00    +0.039 A 
ATOM     25  C   UNL     1       1.478  -0.638   0.373  0.00  0.00    +0.078 A 
ATOM     26  C   UNL     1       0.371   0.231   0.478  0.00  0.00    +0.029 A 
ATOM     27  N   UNL     1       1.516  -1.983   0.278  0.00  0.00    -0.244 NA
ATOM     28  C   UNL     1       2.636  -2.639   0.187  0.00  0.00    +0.080 A 
ATOM     29  S   UNL     1       3.824  -1.447   0.221  0.00  0.00    -0.072 S 
ENDBRANCH  20  28
ENDBRANCH   1  20
TORSDOF 3
