REMARK  Name = ZINC21526675
REMARK  6 active torsions:
REMARK  status: ('A' for Active; 'I' for Inactive)
REMARK    1  A    between atoms: C_1  and  C_2
REMARK    2  A    between atoms: C_2  and  C_3
REMARK    3  A    between atoms: C_2  and  N_4
REMARK    4  A    between atoms: C_13  and  C_14
REMARK    5  A    between atoms: C_13  and  C_15
REMARK    6  A    between atoms: N_17  and  C_18
REMARK                            x       y       z     vdW  Elec       q    Type
REMARK                         _______ _______ _______ _____ _____    ______ ____
ROOT
ATOM      1  N   UNL     1       4.227   2.175  -5.583  0.00  0.00    -0.278 N 
ATOM      2  C   UNL     1       5.226   2.804  -6.244  0.00  0.00    +0.264 C 
ATOM      3  O   UNL     1       6.397   2.556  -6.023  0.00  0.00    -0.268 OA
ATOM      4  C   UNL     1       4.822   3.803  -7.241  0.00  0.00    +0.109 A 
ATOM      5  C   UNL     1       5.554   4.462  -8.184  0.00  0.00    +0.079 A 
ATOM      6  C   UNL     1       4.674   5.289  -8.897  0.00  0.00    +0.153 A 
ATOM      7  C   UNL     1       3.399   5.113  -8.359  0.00  0.00    +0.088 A 
ATOM      8  N   UNL     1       3.495   4.213  -7.341  0.00  0.00    -0.331 N 
ATOM      9  C   UNL     1       2.461   3.697  -6.439  0.00  0.00    +0.157 C 
ATOM     10  C   UNL     1       2.835   2.280  -6.005  0.00  0.00    +0.129 C 
ATOM     11  C   UNL     1       2.599   1.325  -7.177  0.00  0.00    +0.043 C 
ATOM     12  C   UNL     1       2.538   5.953  -9.106  0.00  0.00    +0.067 A 
ATOM     13  C   UNL     1       3.292   6.580 -10.025  0.00  0.00    +0.198 A 
ATOM     14  O   UNL     1       4.570   6.186  -9.901  0.00  0.00    -0.461 OA
ENDROOT
BRANCH  10  15
ATOM     15  C   UNL     1       1.946   1.872  -4.858  0.00  0.00    +0.238 C 
ATOM     16  O   UNL     1       1.006   1.132  -5.054  0.00  0.00    -0.273 OA
ATOM     17  N   UNL     1       2.198   2.329  -3.615  0.00  0.00    -0.311 N 
ATOM     18  H   UNL     1       3.095   2.936  -3.423  0.00  0.00    +0.149 HD
BRANCH  17  19
ATOM     19  C   UNL     1       1.276   2.017  -2.520  0.00  0.00    +0.073 C 
ATOM     20  C   UNL     1       0.096   3.007  -2.565  0.00  0.00    +0.022 C 
ATOM     21  C   UNL     1      -0.694   3.055  -1.243  0.00  0.00    +0.002 C 
ATOM     22  C   UNL     1      -0.904   1.689  -0.648  0.00  0.00    +0.000 C 
ATOM     23  C   UNL     1       0.224   1.419   0.369  0.00  0.00    +0.000 C 
ATOM     24  C   UNL     1       1.460   0.998  -0.274  0.00  0.00    +0.002 C 
ATOM     25  C   UNL     1       2.028   2.077  -1.218  0.00  0.00    +0.022 C 
ENDBRANCH  17  19
ENDBRANCH  10  15
BRANCH   1  27
ATOM     26  C   UNL     1       5.355   0.133  -4.848  0.00  0.00    +0.028 C 
ATOM     27  C   UNL     1       4.554   1.361  -4.410  0.00  0.00    +0.071 C 
ATOM     28  C   UNL     1       5.388   2.190  -3.431  0.00  0.00    +0.028 C 
ENDBRANCH   1  27
TORSDOF 3
