REMARK  Name = ZINC09252474
REMARK  7 active torsions:
REMARK  status: ('A' for Active; 'I' for Inactive)
REMARK    1  A    between atoms: C_1  and  C_2
REMARK    2  A    between atoms: C_2  and  C_3
REMARK    3  A    between atoms: C_2  and  C_4
REMARK    4  A    between atoms: C_4  and  C_6
REMARK    5  A    between atoms: C_4  and  N_17
REMARK    6  A    between atoms: C_18  and  C_20
REMARK    7  A    between atoms: C_20  and  N_21
REMARK                            x       y       z     vdW  Elec       q    Type
REMARK                         _______ _______ _______ _____ _____    ______ ____
ROOT
ATOM      1  N   UNL     1      -3.002   5.515  -1.610  0.00  0.00    -0.307 N 
ATOM      2  C   UNL     1      -2.112   4.530  -1.377  0.00  0.00    +0.231 C 
ATOM      3  O   UNL     1      -1.593   3.949  -2.306  0.00  0.00    -0.274 OA
ATOM      4  H   UNL     1      -3.417   5.979  -0.867  0.00  0.00    +0.149 HD
ENDROOT
BRANCH   1   5
ATOM      5  C   UNL     1      -3.341   5.884  -2.987  0.00  0.00    +0.106 C 
BRANCH   5   6
ATOM      6  C   UNL     1      -4.713   6.508  -3.016  0.00  0.00    -0.023 A 
ATOM      7  C   UNL     1      -5.096   7.377  -2.011  0.00  0.00    +0.009 A 
ATOM      8  C   UNL     1      -6.353   7.954  -2.032  0.00  0.00    +0.050 A 
ATOM      9  C   UNL     1      -7.228   7.658  -3.063  0.00  0.00    +0.162 A 
ATOM     10  C   UNL     1      -6.843   6.785  -4.071  0.00  0.00    +0.162 A 
ATOM     11  C   UNL     1      -5.583   6.213  -4.051  0.00  0.00    +0.055 A 
ATOM     12  O   UNL     1      -7.713   6.500  -5.083  0.00  0.00    -0.488 OA
ATOM     13  C   UNL     1      -8.867   5.739  -4.719  0.00  0.00    +0.232 C 
ATOM     14  C   UNL     1      -9.964   6.646  -4.183  0.00  0.00    +0.082 C 
ATOM     15  C   UNL     1      -9.566   7.329  -2.884  0.00  0.00    +0.232 C 
ATOM     16  O   UNL     1      -8.470   8.221  -3.096  0.00  0.00    -0.488 OA
ENDBRANCH   5   6
BRANCH   5  18
ATOM     17  C   UNL     1      -0.921   6.253  -3.485  0.00  0.00    +0.009 C 
ATOM     18  C   UNL     1      -2.313   6.887  -3.514  0.00  0.00    +0.008 C 
ATOM     19  C   UNL     1      -2.668   7.272  -4.952  0.00  0.00    +0.009 C 
ENDBRANCH   5  18
ENDBRANCH   1   5
BRANCH   2  20
ATOM     20  C   UNL     1      -1.763   4.150   0.039  0.00  0.00    +0.213 C 
BRANCH  20  21
ATOM     21  N   UNL     1      -0.782   3.062   0.025  0.00  0.00    -0.215 N 
ATOM     22  C   UNL     1       0.556   3.246   0.014  0.00  0.00    +0.251 C 
ATOM     23  O   UNL     1       1.154   4.301   0.014  0.00  0.00    -0.272 OA
ATOM     24  C   UNL     1       1.147   1.860   0.001  0.00  0.00    +0.138 C 
ATOM     25  C   UNL     1       2.019   1.640  -1.242  0.00  0.00    +0.045 C 
ATOM     26  C   UNL     1       3.435   1.949  -0.705  0.00  0.00    +0.038 C 
ATOM     27  C   UNL     1       3.364   1.676   0.783  0.00  0.00    -0.042 A 
ATOM     28  C   UNL     1       2.041   1.627   1.189  0.00  0.00    -0.012 A 
ATOM     29  C   UNL     1       1.740   1.390   2.519  0.00  0.00    +0.006 A 
ATOM     30  C   UNL     1       2.751   1.202   3.441  0.00  0.00    +0.000 A 
ATOM     31  C   UNL     1       4.072   1.251   3.035  0.00  0.00    +0.000 A 
ATOM     32  C   UNL     1       4.376   1.488   1.708  0.00  0.00    +0.004 A 
ATOM     33  N   UNL     1      -0.011   0.966   0.007  0.00  0.00    -0.281 N 
ATOM     34  C   UNL     1      -1.100   1.761   0.016  0.00  0.00    +0.310 C 
ATOM     35  O   UNL     1      -2.242   1.344   0.019  0.00  0.00    -0.252 OA
ATOM     36  H   UNL     1       0.002  -0.004   0.002  0.00  0.00    +0.152 HD
ENDBRANCH  20  21
ENDBRANCH   2  20
TORSDOF 5
