REMARK  Name = ZINC16416372
REMARK  6 active torsions:
REMARK  status: ('A' for Active; 'I' for Inactive)
REMARK    1  A    between atoms: C_1  and  C_2
REMARK    2  A    between atoms: C_6  and  C_13
REMARK    3  A    between atoms: C_13  and  O_14
REMARK    4  A    between atoms: O_14  and  C_15
REMARK    5  A    between atoms: C_15  and  C_17
REMARK    6  A    between atoms: C_18  and  C_22
REMARK                            x       y       z     vdW  Elec       q    Type
REMARK                         _______ _______ _______ _____ _____    ______ ____
ROOT
ATOM      1  C   UNL     1      -0.018   1.503   0.010  0.00  0.00    +0.044 C 
ATOM      2  C   UNL     1       0.002  -0.004   0.002  0.00  0.00    -0.047 A 
ATOM      3  C   UNL     1       0.006  -0.684  -1.207  0.00  0.00    +0.004 A 
ATOM      4  C   UNL     1       0.025  -2.050  -1.235  0.00  0.00    +0.012 A 
ATOM      5  C   UNL     1       0.040  -2.768  -0.035  0.00  0.00    +0.024 A 
ATOM      6  C   UNL     1       0.061  -4.234  -0.030  0.00  0.00    +0.007 A 
ATOM      7  C   UNL     1       0.077  -4.870   1.169  0.00  0.00    +0.099 A 
ATOM      8  C   UNL     1       0.072  -4.118   2.363  0.00  0.00    +0.338 A 
ATOM      9  O   UNL     1       0.086  -4.701   3.432  0.00  0.00    -0.245 OA
ATOM     10  O   UNL     1       0.053  -2.776   2.350  0.00  0.00    -0.422 OA
ATOM     11  C   UNL     1       0.037  -2.082   1.193  0.00  0.00    +0.140 A 
ATOM     12  C   UNL     1       0.023  -0.693   1.196  0.00  0.00    +0.050 A 
ENDROOT
BRANCH   6  13
ATOM     13  C   UNL     1       0.066  -5.012  -1.320  0.00  0.00    +0.269 C 
BRANCH  13  14
ATOM     14  O   UNL     1       0.087  -6.412  -1.032  0.00  0.00    -0.454 OA
BRANCH  14  15
ATOM     15  C   UNL     1       0.093  -7.254  -2.086  0.00  0.00    +0.375 C 
ATOM     16  O   UNL     1       0.081  -6.811  -3.219  0.00  0.00    -0.241 OA
BRANCH  15  17
ATOM     17  C   UNL     1       0.115  -8.702  -1.866  0.00  0.00    +0.214 A 
ATOM     18  C   UNL     1       0.129  -9.661  -2.839  0.00  0.00    +0.002 A 
ATOM     19  C   UNL     1       0.149 -10.901  -2.182  0.00  0.00    +0.045 A 
ATOM     20  C   UNL     1       0.146 -10.648  -0.854  0.00  0.00    +0.196 A 
ATOM     21  O   UNL     1       0.131  -9.322  -0.668  0.00  0.00    -0.456 OA
ATOM     22  C   UNL     1       0.124  -9.433  -4.328  0.00  0.00    +0.048 C 
ENDBRANCH  15  17
ENDBRANCH  14  15
ENDBRANCH  13  14
ENDBRANCH   6  13
TORSDOF 4
