REMARK  Name = ZINC04308915
REMARK  6 active torsions:
REMARK  status: ('A' for Active; 'I' for Inactive)
REMARK    1  A    between atoms: C_1  and  C_2
REMARK    2  A    between atoms: C_7  and  N_12
REMARK    3  A    between atoms: C_9  and  C_11
REMARK    4  A    between atoms: C_13  and  C_15
REMARK    5  A    between atoms: C_15  and  N_16
REMARK    6  A    between atoms: C_24  and  C_26
REMARK                            x       y       z     vdW  Elec       q    Type
REMARK                         _______ _______ _______ _____ _____    ______ ____
ROOT
ATOM      1  N   UNL     1       2.165   0.796   2.445  0.00  0.00    -0.215 N 
ATOM      2  C   UNL     1       2.129   0.082   1.301  0.00  0.00    +0.247 C 
ATOM      3  O   UNL     1       3.023  -0.056   0.494  0.00  0.00    -0.273 OA
ATOM      4  C   UNL     1       0.740  -0.509   1.237  0.00  0.00    +0.115 C 
ATOM      5  C   UNL     1       0.808  -2.032   1.241  0.00  0.00    +0.035 C 
ATOM      6  C   UNL     1       1.518  -2.517  -0.025  0.00  0.00    +0.003 C 
ATOM      7  C   UNL     1       0.754  -2.027  -1.257  0.00  0.00    +0.000 C 
ATOM      8  C   UNL     1       0.716  -0.497  -1.259  0.00  0.00    +0.006 C 
ATOM      9  C   UNL     1       0.002  -0.004   0.002  0.00  0.00    +0.018 C 
ATOM     10  C   UNL     1      -0.019   1.526   0.010  0.00  0.00    +0.010 C 
ATOM     11  N   UNL     1       0.088  -0.021   2.460  0.00  0.00    -0.285 N 
ATOM     12  C   UNL     1       1.000   0.735   3.102  0.00  0.00    +0.310 C 
ATOM     13  O   UNL     1       0.789   1.296   4.159  0.00  0.00    -0.252 OA
ATOM     14  H   UNL     1      -0.819  -0.205   2.748  0.00  0.00    +0.151 HD
ENDROOT
BRANCH   1  15
ATOM     15  C   UNL     1       3.334   1.547   2.911  0.00  0.00    +0.213 C 
BRANCH  15  17
ATOM     16  N   UNL     1       5.328   1.136   4.316  0.00  0.00    -0.311 N 
ATOM     17  C   UNL     1       4.192   0.656   3.773  0.00  0.00    +0.231 C 
ATOM     18  O   UNL     1       3.860  -0.492   3.978  0.00  0.00    -0.274 OA
ATOM     19  H   UNL     1       5.594   2.055   4.152  0.00  0.00    +0.149 HD
BRANCH  16  25
ATOM     20  C   UNL     1       8.701   2.940   6.275  0.00  0.00    +0.008 C 
ATOM     21  C   UNL     1       7.878   2.080   5.313  0.00  0.00    -0.009 C 
ATOM     22  C   UNL     1       8.820   1.264   4.425  0.00  0.00    +0.003 C 
ATOM     23  C   UNL     1       7.998   0.404   3.464  0.00  0.00    +0.002 C 
ATOM     24  C   UNL     1       7.104  -0.544   4.265  0.00  0.00    +0.022 C 
ATOM     25  C   UNL     1       6.162   0.271   5.153  0.00  0.00    +0.076 C 
ATOM     26  C   UNL     1       6.985   1.131   6.115  0.00  0.00    +0.009 C 
ATOM     27  C   UNL     1       6.043   1.946   7.003  0.00  0.00    +0.009 C 
ENDBRANCH  16  25
ENDBRANCH  15  17
ENDBRANCH   1  15
TORSDOF 3
