REMARK  Name = ZINC39627611
REMARK  13 active torsions:
REMARK  status: ('A' for Active; 'I' for Inactive)
REMARK    1  A    between atoms: C_1  and  C_2
REMARK    2  A    between atoms: C_2  and  C_3
REMARK    3  A    between atoms: C_3  and  C_4
REMARK    4  A    between atoms: C_4  and  C_5
REMARK    5  A    between atoms: C_5  and  C_7
REMARK    6  A    between atoms: C_5  and  C_8
REMARK    7  A    between atoms: C_12  and  C_21
REMARK    8  A    between atoms: N_23  and  C_24
REMARK    9  A    between atoms: C_24  and  C_25
REMARK   10  A    between atoms: C_25  and  C_26
REMARK   11  A    between atoms: C_26  and  N_27
REMARK   12  A    between atoms: N_27  and  C_28
REMARK   13  A    between atoms: N_27  and  C_29
REMARK                            x       y       z     vdW  Elec       q    Type
REMARK                         _______ _______ _______ _____ _____    ______ ____
ROOT
ATOM      1  C   UNL     1      -2.789  -3.990   0.443  0.00  0.00    +0.218 C 
ATOM      2  O   UNL     1      -1.786  -4.626   0.691  0.00  0.00    -0.275 OA
ATOM      3  N   UNL     1      -3.963  -4.627   0.265  0.00  0.00    -0.300 N 
ATOM      4  C   UNL     1      -5.259  -4.042  -0.152  0.00  0.00    +0.121 C 
ATOM      5  C   UNL     1      -5.870  -5.090  -1.110  0.00  0.00    +0.100 C 
ATOM      6  C   UNL     1      -5.205  -6.419  -0.713  0.00  0.00    -0.004 C 
ATOM      7  C   UNL     1      -4.249  -6.072   0.437  0.00  0.00    +0.115 C 
ATOM      8  C   UNL     1      -4.420  -6.989  -1.890  0.00  0.00    -0.010 C 
ATOM      9  C   UNL     1      -3.816  -8.338  -1.488  0.00  0.00    -0.082 C 
ATOM     10  N   UNL     1      -4.890  -9.260  -1.097  0.00  0.00    +0.379 N 
ATOM     11  C   UNL     1      -5.581  -8.748   0.092  0.00  0.00    -0.082 C 
ATOM     12  C   UNL     1      -6.259  -7.417  -0.242  0.00  0.00    -0.010 C 
ATOM     13  H   UNL     1      -5.549  -9.347  -1.856  0.00  0.00    -0.086 HD
ATOM     14  H   UNL     1      -4.495 -10.166  -0.892  0.00  0.00    -0.086 HD
ENDROOT
BRANCH   5  15
ATOM     15  C   UNL     1      -5.545  -4.745  -2.541  0.00  0.00    +0.218 C 
ATOM     16  O   UNL     1      -4.559  -4.088  -2.797  0.00  0.00    -0.275 OA
ATOM     17  N   UNL     1      -6.351  -5.167  -3.535  0.00  0.00    -0.315 N 
ATOM     18  H   UNL     1      -7.140  -5.693  -3.330  0.00  0.00    +0.149 HD
BRANCH  17  19
ATOM     19  C   UNL     1      -6.036  -4.832  -4.926  0.00  0.00    +0.102 C 
BRANCH  19  20
ATOM     20  C   UNL     1      -7.101  -5.428  -5.848  0.00  0.00    +0.000 C 
BRANCH  20  21
ATOM     21  C   UNL     1      -6.772  -5.078  -7.301  0.00  0.00    -0.078 C 
BRANCH  21  22
ATOM     22  N   UNL     1      -7.795  -5.650  -8.186  0.00  0.00    +0.376 N 
ATOM     23  C   UNL     1      -7.546  -5.214  -9.567  0.00  0.00    -0.097 C 
ATOM     24  C   UNL     1      -7.738  -7.116  -8.117  0.00  0.00    -0.097 C 
ATOM     25  H   UNL     1      -8.708  -5.334  -7.894  0.00  0.00    -0.083 HD
ENDBRANCH  21  22
ENDBRANCH  20  21
ENDBRANCH  19  20
ENDBRANCH  17  19
ENDBRANCH   5  15
BRANCH   1  26
ATOM     26  C   UNL     1      -2.721  -2.489   0.334  0.00  0.00    +0.072 C 
ATOM     27  C   UNL     1      -1.377  -2.081  -0.272  0.00  0.00    +0.017 C 
BRANCH  26  28
ATOM     28  C   UNL     1      -2.862  -1.870   1.726  0.00  0.00    +0.012 C 
BRANCH  28  29
ATOM     29  C   UNL     1      -2.919  -0.346   1.604  0.00  0.00    +0.000 C 
BRANCH  29  31
ATOM     30  C   UNL     1      -3.117   1.797   2.873  0.00  0.00    +0.004 C 
ATOM     31  C   UNL     1      -3.060   0.273   2.996  0.00  0.00    -0.003 C 
ENDBRANCH  29  31
ENDBRANCH  28  29
ENDBRANCH  26  28
ENDBRANCH   1  26
TORSDOF 9
