REMARK  Name = ZINC09944581
REMARK  11 active torsions:
REMARK  status: ('A' for Active; 'I' for Inactive)
REMARK    1  A    between atoms: C_1  and  C_2
REMARK    2  A    between atoms: C_2  and  C_4
REMARK    3  A    between atoms: C_2  and  S_10
REMARK    4  A    between atoms: S_10  and  C_11
REMARK    5  A    between atoms: C_14  and  C_19
REMARK    6  A    between atoms: N_15  and  C_16
REMARK    7  A    between atoms: C_16  and  C_17
REMARK    8  A    between atoms: C_26  and  C_29
REMARK    9  A    between atoms: C_29  and  C_30
REMARK   10  A    between atoms: C_29  and  C_31
REMARK   11  A    between atoms: C_29  and  C_32
REMARK                            x       y       z     vdW  Elec       q    Type
REMARK                         _______ _______ _______ _____ _____    ______ ____
ROOT
ATOM      1  C   UNL     1      -5.986   1.637   0.231  0.00  0.00    +0.193 A 
ATOM      2  N   UNL     1      -5.549   2.829  -0.107  0.00  0.00    -0.122 NA
ATOM      3  N   UNL     1      -4.268   2.817  -0.215  0.00  0.00    -0.128 NA
ATOM      4  C   UNL     1      -3.807   1.614   0.049  0.00  0.00    +0.172 A 
ATOM      5  N   UNL     1      -4.895   0.820   0.338  0.00  0.00    -0.298 N 
ENDROOT
BRANCH   4   6
ATOM      6  C   UNL     1      -2.397   1.194   0.033  0.00  0.00    +0.057 A 
ATOM      7  C   UNL     1      -1.266   1.967   0.030  0.00  0.00    +0.023 A 
ATOM      8  C   UNL     1      -0.016   1.359   0.009  0.00  0.00    -0.036 A 
ATOM      9  C   UNL     1       0.002  -0.004   0.002  0.00  0.00    -0.006 A 
ATOM     10  S   UNL     1      -1.712  -0.456   0.018  0.00  0.00    -0.090 S 
ATOM     11  C   UNL     1       1.200  -0.898  -0.016  0.00  0.00    +0.043 C 
ATOM     12  C   UNL     1       2.426  -0.054  -0.397  0.00  0.00    +0.009 C 
ATOM     13  C   UNL     1       2.425   1.223   0.448  0.00  0.00    -0.001 C 
ATOM     14  C   UNL     1       1.291   2.147   0.001  0.00  0.00    +0.040 C 
BRANCH  13  15
ATOM     15  C   UNL     1       3.764   1.945   0.280  0.00  0.00    -0.035 C 
ATOM     16  C   UNL     1       3.966   2.307  -1.193  0.00  0.00    +0.011 C 
ATOM     17  C   UNL     1       3.765   3.221   1.123  0.00  0.00    +0.011 C 
ATOM     18  C   UNL     1       4.899   1.028   0.740  0.00  0.00    +0.011 C 
ENDBRANCH  13  15
ENDBRANCH   4   6
BRANCH   1  19
ATOM     19  S   UNL     1      -7.666   1.176   0.492  0.00  0.00    -0.073 S 
BRANCH  19  21
ATOM     20  C   UNL     1      -8.060   3.779   1.221  0.00  0.00    +0.029 C 
ATOM     21  C   UNL     1      -8.481   2.758   0.162  0.00  0.00    +0.137 C 
BRANCH  21  22
ATOM     22  C   UNL     1      -9.976   2.572   0.210  0.00  0.00    +0.233 C 
ATOM     23  O   UNL     1     -10.454   1.666   0.857  0.00  0.00    -0.274 OA
ATOM     24  N   UNL     1     -10.781   3.414  -0.468  0.00  0.00    -0.239 N 
ATOM     25  C   UNL     1     -12.118   3.248  -0.426  0.00  0.00    +0.303 C 
ATOM     26  O   UNL     1     -12.598   2.339   0.224  0.00  0.00    -0.253 OA
ATOM     27  N   UNL     1     -12.924   4.090  -1.103  0.00  0.00    -0.313 N 
ATOM     28  H   UNL     1     -10.399   4.139  -0.986  0.00  0.00    +0.159 HD
ATOM     29  H   UNL     1     -12.541   4.815  -1.621  0.00  0.00    +0.146 HD
ATOM     30  H   UNL     1     -13.886   3.970  -1.073  0.00  0.00    +0.146 HD
ENDBRANCH  21  22
ENDBRANCH  19  21
ENDBRANCH   1  19
BRANCH   5  31
ATOM     31  C   UNL     1      -4.884  -0.602   0.689  0.00  0.00    +0.152 C 
BRANCH  31  32
ATOM     32  C   UNL     1      -4.764  -0.750   2.184  0.00  0.00    -0.013 C 
ATOM     33  C   UNL     1      -5.652  -1.449   2.846  0.00  0.00    +0.005 C 
ENDBRANCH  31  32
ENDBRANCH   5  31
TORSDOF 7
