REMARK  Name = ZINC67483531
REMARK  8 active torsions:
REMARK  status: ('A' for Active; 'I' for Inactive)
REMARK    1  A    between atoms: C_1  and  C_2
REMARK    2  A    between atoms: C_3  and  C_13
REMARK    3  A    between atoms: C_5  and  C_7
REMARK    4  A    between atoms: C_18  and  C_21
REMARK    5  A    between atoms: C_21  and  C_22
REMARK    6  A    between atoms: C_22  and  N_23
REMARK    7  A    between atoms: N_23  and  C_24
REMARK    8  A    between atoms: N_23  and  C_25
REMARK                            x       y       z     vdW  Elec       q    Type
REMARK                         _______ _______ _______ _____ _____    ______ ____
ROOT
ATOM      1  C   UNL     1      -0.008  -0.258  -2.570  0.00  0.00    +0.255 C 
ATOM      2  O   UNL     1       0.108  -0.649  -1.424  0.00  0.00    -0.269 OA
ATOM      3  N   UNL     1      -0.102  -1.146  -3.579  0.00  0.00    -0.297 N 
ATOM      4  C   UNL     1      -0.198  -2.586  -3.303  0.00  0.00    +0.108 C 
ATOM      5  C   UNL     1       0.896  -3.313  -4.090  0.00  0.00    +0.022 C 
ATOM      6  C   UNL     1       0.781  -2.948  -5.572  0.00  0.00    -0.010 C 
ATOM      7  C   UNL     1       0.982  -1.441  -5.746  0.00  0.00    +0.022 C 
ATOM      8  C   UNL     1      -0.117  -0.692  -4.977  0.00  0.00    +0.108 C 
ENDROOT
BRANCH   1  11
ATOM      9  C   UNL     1       1.540   1.993  -1.054  0.00  0.00    +0.067 C 
ATOM     10  C   UNL     1       0.616   2.226  -2.221  0.00  0.00    +0.058 A 
ATOM     11  C   UNL     1      -0.044   1.180  -2.853  0.00  0.00    +0.097 A 
ATOM     12  S   UNL     1      -0.950   2.073  -4.107  0.00  0.00    -0.059 S 
ATOM     13  C   UNL     1      -0.420   3.623  -3.718  0.00  0.00    +0.148 A 
ATOM     14  N   UNL     1       0.388   3.425  -2.690  0.00  0.00    -0.240 NA
BRANCH  13  15
ATOM     15  C   UNL     1      -0.778   4.901  -4.367  0.00  0.00    +0.206 A 
ATOM     16  N   UNL     1      -0.323   6.113  -4.013  0.00  0.00    -0.213 NA
ATOM     17  H   UNL     1      -2.164   6.840  -6.382  0.00  0.00    +0.190 HD
ATOM     18  C   UNL     1      -0.838   7.024  -4.794  0.00  0.00    +0.216 A 
ATOM     19  N   UNL     1      -1.647   6.414  -5.680  0.00  0.00    -0.265 N 
ATOM     20  N   UNL     1      -1.592   5.041  -5.393  0.00  0.00    -0.150 NA
ENDBRANCH  13  15
ENDBRANCH   1  11
BRANCH   6  21
ATOM     21  C   UNL     1       1.851  -3.700  -6.367  0.00  0.00    -0.015 C 
BRANCH  21  22
ATOM     22  C   UNL     1       1.658  -3.434  -7.861  0.00  0.00    -0.079 C 
BRANCH  22  23
ATOM     23  N   UNL     1       2.685  -4.155  -8.624  0.00  0.00    +0.376 N 
ATOM     24  C   UNL     1       2.491  -5.602  -8.459  0.00  0.00    -0.097 C 
ATOM     25  C   UNL     1       2.575  -3.805 -10.046  0.00  0.00    -0.097 C 
ATOM     26  H   UNL     1       3.600  -3.897  -8.284  0.00  0.00    -0.083 HD
ENDBRANCH  22  23
ENDBRANCH  21  22
ENDBRANCH   6  21
TORSDOF 5
