REMARK  Name = ZINC65491760
REMARK  5 active torsions:
REMARK  status: ('A' for Active; 'I' for Inactive)
REMARK    1  A    between atoms: C_3  and  N_22
REMARK    2  A    between atoms: C_6  and  C_7
REMARK    3  A    between atoms: C_7  and  C_8
REMARK    4  A    between atoms: N_10  and  C_11
REMARK    5  A    between atoms: N_15  and  C_16
REMARK                            x       y       z     vdW  Elec       q    Type
REMARK                         _______ _______ _______ _____ _____    ______ ____
ROOT
ATOM      1  C   UNL     1      -1.738  -1.025  -1.408  0.00  0.00    +0.223 C 
ATOM      2  O   UNL     1      -1.069  -0.616  -2.334  0.00  0.00    -0.275 OA
ATOM      3  N   UNL     1      -2.878  -1.701  -1.647  0.00  0.00    -0.270 N 
ATOM      4  H   UNL     1      -3.413  -2.028  -0.906  0.00  0.00    +0.156 HD
ENDROOT
BRANCH   3   5
ATOM      5  C   UNL     1      -3.290  -1.932  -2.959  0.00  0.00    +0.123 A 
ATOM      6  C   UNL     1      -2.639  -1.539  -4.088  0.00  0.00    +0.065 A 
ATOM      7  C   UNL     1      -3.387  -1.970  -5.186  0.00  0.00    +0.136 A 
ATOM      8  N   UNL     1      -4.446  -2.598  -4.742  0.00  0.00    -0.178 NA
ATOM      9  N   UNL     1      -4.407  -2.593  -3.342  0.00  0.00    -0.247 N 
BRANCH   9  10
ATOM     10  C   UNL     1      -5.401  -3.194  -2.450  0.00  0.00    +0.109 C 
ATOM     11  C   UNL     1      -6.766  -2.550  -2.700  0.00  0.00    +0.027 C 
ATOM     12  C   UNL     1      -7.805  -3.178  -1.768  0.00  0.00    +0.002 C 
ATOM     13  C   UNL     1      -7.892  -4.681  -2.041  0.00  0.00    +0.000 C 
ATOM     14  C   UNL     1      -6.527  -5.325  -1.790  0.00  0.00    +0.002 C 
ATOM     15  C   UNL     1      -5.488  -4.697  -2.722  0.00  0.00    +0.027 C 
ENDBRANCH   9  10
ENDBRANCH   3   5
BRANCH   1  16
ATOM     16  C   UNL     1      -1.293  -0.775   0.010  0.00  0.00    +0.131 C 
BRANCH  16  22
ATOM     17  C   UNL     1      -0.017   1.378   0.010  0.00  0.00    +0.006 A 
ATOM     18  C   UNL     1       1.171   2.086   0.002  0.00  0.00    +0.033 A 
ATOM     19  C   UNL     1       2.377   1.411  -0.013  0.00  0.00    +0.126 A 
ATOM     20  C   UNL     1       2.396   0.029  -0.020  0.00  0.00    +0.033 A 
ATOM     21  C   UNL     1       1.208  -0.679  -0.012  0.00  0.00    +0.006 A 
ATOM     22  C   UNL     1       0.002  -0.004   0.002  0.00  0.00    -0.038 A 
BRANCH  19  23
ATOM     23  N   UNL     1       3.649   2.168  -0.022  0.00  0.00    +0.056 N 
ATOM     24  O   UNL     1       3.633   3.377  -0.016  0.00  0.00    -0.126 OA
ATOM     25  O   UNL     1       4.704   1.578  -0.035  0.00  0.00    -0.126 OA
ENDBRANCH  19  23
ENDBRANCH  16  22
ENDBRANCH   1  16
TORSDOF 5
