REMARK  Name = ZINC04758308
REMARK  7 active torsions:
REMARK  status: ('A' for Active; 'I' for Inactive)
REMARK    1  A    between atoms: C_1  and  C_2
REMARK    2  A    between atoms: C_2  and  O_3
REMARK    3  A    between atoms: O_3  and  C_4
REMARK    4  A    between atoms: C_5  and  C_11
REMARK    5  A    between atoms: C_9  and  O_10
REMARK    6  A    between atoms: C_29  and  C_31
REMARK    7  A    between atoms: C_29  and  C_32
REMARK                            x       y       z     vdW  Elec       q    Type
REMARK                         _______ _______ _______ _____ _____    ______ ____
ROOT
ATOM      1  C   UNL     1      -2.394   1.243   0.697  0.00  0.00    +0.090 C 
ATOM      2  C   UNL     1      -3.406   1.373  -0.404  0.00  0.00    -0.005 A 
ATOM      3  C   UNL     1      -3.245   0.649  -1.597  0.00  0.00    +0.006 A 
ATOM      4  C   UNL     1      -2.146  -0.212  -1.784  0.00  0.00    +0.012 A 
ATOM      5  C   UNL     1      -2.048  -0.883  -2.970  0.00  0.00    +0.020 A 
ATOM      6  C   UNL     1      -3.020  -0.705  -3.952  0.00  0.00    +0.111 A 
ATOM      7  N   UNL     1      -4.042   0.096  -3.773  0.00  0.00    -0.255 NA
ATOM      8  C   UNL     1      -4.199   0.781  -2.636  0.00  0.00    +0.071 A 
ATOM      9  C   UNL     1      -5.300   1.637  -2.454  0.00  0.00    +0.030 A 
ATOM     10  C   UNL     1      -5.438   2.325  -1.291  0.00  0.00    +0.025 A 
ATOM     11  C   UNL     1      -4.497   2.200  -0.260  0.00  0.00    +0.036 A 
ATOM     12  N   UNL     1      -4.667   2.916   0.925  0.00  0.00    -0.317 N 
ATOM     13  C   UNL     1      -4.033   2.522   2.068  0.00  0.00    +0.016 C 
ATOM     14  C   UNL     1      -2.942   1.726   2.014  0.00  0.00    +0.024 C 
ATOM     15  C   UNL     1      -2.283   1.325   3.188  0.00  0.00    +0.162 C 
ATOM     16  O   UNL     1      -1.308   0.604   3.106  0.00  0.00    -0.292 OA
ATOM     17  C   UNL     1      -2.760   1.769   4.543  0.00  0.00    +0.086 C 
ATOM     18  C   UNL     1      -3.452   3.130   4.406  0.00  0.00    -0.023 C 
ATOM     19  C   UNL     1      -4.588   2.995   3.390  0.00  0.00    +0.058 C 
ATOM     20  C   UNL     1      -2.444   4.172   3.917  0.00  0.00    +0.011 C 
ATOM     21  C   UNL     1      -4.021   3.561   5.760  0.00  0.00    +0.011 C 
ATOM     22  H   UNL     1      -5.239   3.699   0.937  0.00  0.00    +0.152 HD
ENDROOT
BRANCH   1  24
ATOM     23  C   UNL     1      -1.315   3.370  -0.073  0.00  0.00    +0.166 A 
ATOM     24  C   UNL     1      -1.175   2.055   0.343  0.00  0.00    +0.010 A 
ATOM     25  C   UNL     1       0.083   1.488   0.428  0.00  0.00    +0.008 A 
ATOM     26  C   UNL     1       1.203   2.232   0.110  0.00  0.00    +0.004 A 
ATOM     27  C   UNL     1       1.071   3.546  -0.299  0.00  0.00    +0.049 A 
ATOM     28  C   UNL     1      -0.187   4.119  -0.393  0.00  0.00    +0.159 A 
BRANCH  28  29
ATOM     29  O   UNL     1      -0.320   5.412  -0.795  0.00  0.00    -0.503 OA
ATOM     30  H   UNL     1      -0.297   6.053  -0.072  0.00  0.00    +0.292 HD
ENDBRANCH  28  29
BRANCH  23  31
ATOM     31  O   UNL     1      -2.552   3.928  -0.163  0.00  0.00    -0.488 OA
BRANCH  31  33
ATOM     32  C   UNL     1      -4.362   4.976  -1.374  0.00  0.00    +0.048 C 
ATOM     33  C   UNL     1      -3.049   4.196  -1.475  0.00  0.00    +0.226 C 
ENDBRANCH  31  33
ENDBRANCH  23  31
ENDBRANCH   1  24
TORSDOF 4
