REMARK  Name = ZINC38793691
REMARK  10 active torsions:
REMARK  status: ('A' for Active; 'I' for Inactive)
REMARK    1  A    between atoms: C_1  and  C_2
REMARK    2  A    between atoms: C_2  and  C_3
REMARK    3  A    between atoms: C_2  and  C_4
REMARK    4  A    between atoms: C_4  and  C_5
REMARK    5  A    between atoms: C_5  and  C_7
REMARK    6  A    between atoms: C_5  and  N_18
REMARK    7  A    between atoms: C_11  and  S_14
REMARK    8  A    between atoms: S_14  and  C_17
REMARK    9  A    between atoms: C_19  and  C_21
REMARK   10  A    between atoms: C_21  and  C_22
REMARK                            x       y       z     vdW  Elec       q    Type
REMARK                         _______ _______ _______ _____ _____    ______ ____
ROOT
ATOM      1  N   UNL     1      -0.876  -2.426  -1.433  0.00  0.00    -0.308 N 
ATOM      2  C   UNL     1       0.456  -2.525  -1.610  0.00  0.00    +0.218 C 
ATOM      3  O   UNL     1       1.209  -2.308  -0.684  0.00  0.00    -0.275 OA
ATOM      4  H   UNL     1      -1.478  -2.600  -2.173  0.00  0.00    +0.149 HD
ENDROOT
BRANCH   1   5
ATOM      5  C   UNL     1      -1.416  -2.058  -0.121  0.00  0.00    +0.126 C 
BRANCH   5   6
ATOM      6  C   UNL     1      -2.841  -2.598   0.015  0.00  0.00    +0.281 C 
ATOM      7  N   UNL     1      -3.685  -2.086  -1.072  0.00  0.00    -0.154 NA
ATOM      8  N   UNL     1      -4.376  -3.000  -1.540  0.00  0.00    -0.134 NA
ATOM      9  C   UNL     1      -4.095  -4.257  -0.836  0.00  0.00    +0.402 C 
ATOM     10  O   UNL     1      -2.849  -4.032  -0.141  0.00  0.00    -0.307 OA
BRANCH   9  11
ATOM     11  S   UNL     1      -3.921  -5.619  -2.022  0.00  0.00    +0.016 S 
ATOM     12  O   UNL     1      -3.495  -6.777  -1.318  0.00  0.00    -0.170 OA
ATOM     13  O   UNL     1      -5.102  -5.683  -2.808  0.00  0.00    -0.170 OA
ATOM     14  C   UNL     1      -2.558  -5.057  -3.079  0.00  0.00    +0.199 C 
ENDBRANCH   9  11
ENDBRANCH   5   6
BRANCH   5  15
ATOM     15  C   UNL     1      -1.433  -0.534   0.013  0.00  0.00    +0.030 C 
BRANCH  15  17
ATOM     16  C   UNL     1      -0.019   1.526   0.010  0.00  0.00    +0.007 C 
ATOM     17  C   UNL     1       0.002  -0.004   0.002  0.00  0.00    -0.015 C 
ATOM     18  C   UNL     1       0.742  -0.511   1.242  0.00  0.00    +0.007 C 
ENDBRANCH  15  17
ENDBRANCH   5  15
ENDBRANCH   1   5
BRANCH   2  19
ATOM     19  C   UNL     1       1.011  -2.904  -2.959  0.00  0.00    +0.133 C 
BRANCH  19  20
ATOM     20  C   UNL     1       2.515  -2.943  -2.890  0.00  0.00    -0.014 A 
ATOM     21  C   UNL     1       3.338  -4.073  -2.451  0.00  0.00    +0.003 A 
ATOM     22  C   UNL     1       3.054  -5.361  -1.994  0.00  0.00    +0.010 A 
ATOM     23  C   UNL     1       4.076  -6.201  -1.653  0.00  0.00    +0.001 A 
ATOM     24  C   UNL     1       5.396  -5.784  -1.756  0.00  0.00    +0.002 A 
ATOM     25  C   UNL     1       5.699  -4.516  -2.204  0.00  0.00    +0.026 A 
ATOM     26  C   UNL     1       4.675  -3.645  -2.558  0.00  0.00    +0.047 A 
ATOM     27  N   UNL     1       4.650  -2.351  -3.028  0.00  0.00    -0.360 N 
ATOM     28  C   UNL     1       3.356  -1.952  -3.225  0.00  0.00    +0.087 A 
ATOM     29  H   UNL     1       5.434  -1.805  -3.197  0.00  0.00    +0.165 HD
ENDBRANCH  19  20
ENDBRANCH   2  19
TORSDOF 7
