REMARK  Name = ZINC67610780
REMARK  9 active torsions:
REMARK  status: ('A' for Active; 'I' for Inactive)
REMARK    1  A    between atoms: C_1  and  C_2
REMARK    2  A    between atoms: C_2  and  C_3
REMARK    3  A    between atoms: C_2  and  N_4
REMARK    4  A    between atoms: N_4  and  C_5
REMARK    5  A    between atoms: N_4  and  S_6
REMARK    6  A    between atoms: S_6  and  C_9
REMARK    7  A    between atoms: C_12  and  C_15
REMARK    8  A    between atoms: C_15  and  N_16
REMARK    9  A    between atoms: N_19  and  C_20
REMARK                            x       y       z     vdW  Elec       q    Type
REMARK                         _______ _______ _______ _____ _____    ______ ____
ROOT
ATOM      1  C   UNL     1      -0.740  -7.189   0.272  0.00  0.00    +0.141 C 
ENDROOT
BRANCH   1   5
ATOM      2  C   UNL     1      -1.570  -3.136  -0.791  0.00  0.00    +0.105 A 
ATOM      3  C   UNL     1      -0.362  -3.709  -1.142  0.00  0.00    +0.029 A 
ATOM      4  C   UNL     1      -0.094  -5.020  -0.798  0.00  0.00    +0.007 A 
ATOM      5  C   UNL     1      -1.033  -5.759  -0.102  0.00  0.00    -0.030 A 
ATOM      6  C   UNL     1      -2.240  -5.185   0.250  0.00  0.00    +0.007 A 
ATOM      7  C   UNL     1      -2.507  -3.872  -0.091  0.00  0.00    +0.029 A 
BRANCH   2   8
ATOM      8  S   UNL     1      -1.913  -1.464  -1.230  0.00  0.00    +0.061 S 
ATOM      9  O   UNL     1      -3.328  -1.333  -1.256  0.00  0.00    -0.153 OA
ATOM     10  O   UNL     1      -1.099  -1.164  -2.355  0.00  0.00    -0.153 OA
BRANCH   8  11
ATOM     11  N   UNL     1      -1.372  -0.511   0.012  0.00  0.00    -0.177 NA
ATOM     12  C   UNL     1      -2.269  -0.175   1.122  0.00  0.00    +0.132 C 
BRANCH  11  14
ATOM     13  C   UNL     1      -0.019   1.526   0.010  0.00  0.00    +0.025 C 
ATOM     14  C   UNL     1       0.002  -0.004   0.002  0.00  0.00    +0.073 C 
ATOM     15  C   UNL     1       0.742  -0.511   1.242  0.00  0.00    +0.025 C 
ENDBRANCH  11  14
ENDBRANCH   8  11
ENDBRANCH   2   8
ENDBRANCH   1   5
BRANCH   1  16
ATOM     16  N   UNL     1      -0.095  -7.227   1.587  0.00  0.00    -0.295 N 
ATOM     17  C   UNL     1       0.260  -8.409   2.129  0.00  0.00    +0.300 C 
ATOM     18  O   UNL     1       0.045  -9.443   1.526  0.00  0.00    -0.253 OA
ATOM     19  N   UNL     1       0.854  -8.444   3.338  0.00  0.00    -0.288 N 
ATOM     20  H   UNL     1       0.076  -6.402   2.067  0.00  0.00    +0.151 HD
ATOM     21  H   UNL     1       1.025  -7.620   3.819  0.00  0.00    +0.151 HD
BRANCH  19  22
ATOM     22  C   UNL     1       1.240  -9.729   3.927  0.00  0.00    +0.160 C 
ATOM     23  C   UNL     1       2.380  -9.515   4.926  0.00  0.00    +0.032 C 
ATOM     24  C   UNL     1       3.193 -10.786   5.094  0.00  0.00    +0.004 C 
ATOM     25  C   UNL     1       2.430 -11.918   5.757  0.00  0.00    +0.019 C 
ATOM     26  C   UNL     1       1.298 -12.414   4.855  0.00  0.00    +0.104 C 
ATOM     27  N   UNL     1       0.106 -11.586   5.098  0.00  0.00    -0.314 N 
ATOM     28  C   UNL     1       0.059 -10.327   4.662  0.00  0.00    +0.233 C 
ATOM     29  O   UNL     1      -0.932  -9.657   4.861  0.00  0.00    -0.274 OA
ATOM     30  H   UNL     1      -0.652 -11.960   5.574  0.00  0.00    +0.149 HD
ENDBRANCH  19  22
ENDBRANCH   1  16
TORSDOF 6
