REMARK  Name = ZINC59385742
REMARK  6 active torsions:
REMARK  status: ('A' for Active; 'I' for Inactive)
REMARK    1  A    between atoms: C_1  and  C_2
REMARK    2  A    between atoms: C_3  and  C_18
REMARK    3  A    between atoms: C_4  and  C_10
REMARK    4  A    between atoms: N_20  and  N_21
REMARK    5  A    between atoms: C_22  and  C_23
REMARK    6  A    between atoms: C_28  and  N_29
REMARK                            x       y       z     vdW  Elec       q    Type
REMARK                         _______ _______ _______ _____ _____    ______ ____
ROOT
ATOM      1  C   UNL     1       0.405   0.934   0.577  0.00  0.00    +0.061 C 
ATOM      2  C   UNL     1       0.478  -0.566   0.444  0.00  0.00    +0.019 C 
ATOM      3  C   UNL     1      -0.660  -1.277   0.307  0.00  0.00    +0.057 C 
ATOM      4  C   UNL     1      -0.541  -2.782   0.176  0.00  0.00    +0.143 C 
ATOM      5  N   UNL     1       0.818  -3.349   0.208  0.00  0.00    -0.288 N 
ATOM      6  C   UNL     1       1.861  -2.507   0.350  0.00  0.00    +0.304 C 
ATOM      7  O   UNL     1       2.987  -2.966   0.378  0.00  0.00    -0.252 OA
ATOM      8  N   UNL     1       1.698  -1.182   0.456  0.00  0.00    -0.273 N 
ATOM      9  H   UNL     1       0.959  -4.305   0.129  0.00  0.00    +0.151 HD
ATOM     10  H   UNL     1       2.490  -0.630   0.552  0.00  0.00    +0.156 HD
ENDROOT
BRANCH   4  11
ATOM     11  C   UNL     1      -1.332  -3.410   1.295  0.00  0.00    -0.004 A 
ATOM     12  C   UNL     1      -0.714  -3.709   2.494  0.00  0.00    +0.008 A 
ATOM     13  C   UNL     1      -1.439  -4.285   3.521  0.00  0.00    +0.020 A 
ATOM     14  C   UNL     1      -2.783  -4.562   3.348  0.00  0.00    +0.042 A 
ATOM     15  C   UNL     1      -3.402  -4.262   2.148  0.00  0.00    +0.040 A 
ATOM     16  C   UNL     1      -2.677  -3.681   1.123  0.00  0.00    +0.048 A 
ATOM     17 CL   UNL     1      -3.455  -3.298  -0.382  0.00  0.00    -0.083 Cl
ATOM     18 CL   UNL     1      -3.693  -5.286   4.637  0.00  0.00    -0.083 Cl
ENDBRANCH   4  11
BRANCH   3  19
ATOM     19  C   UNL     1      -1.925  -0.638   0.289  0.00  0.00    +0.263 C 
ATOM     20  O   UNL     1      -2.486  -0.431  -0.772  0.00  0.00    -0.269 OA
ATOM     21  N   UNL     1      -2.506  -0.260   1.444  0.00  0.00    -0.203 N 
ATOM     22  H   UNL     1      -2.028  -0.358   2.283  0.00  0.00    +0.178 HD
BRANCH  21  23
ATOM     23  N   UNL     1      -3.800   0.275   1.435  0.00  0.00    -0.187 NA
ATOM     24  C   UNL     1      -4.397   0.549   2.554  0.00  0.00    +0.140 C 
BRANCH  24  25
ATOM     25  C   UNL     1      -5.799   1.008   2.549  0.00  0.00    +0.025 A 
ATOM     26  C   UNL     1      -6.529   1.021   1.358  0.00  0.00    +0.012 A 
ATOM     27  C   UNL     1      -7.839   1.451   1.361  0.00  0.00    +0.001 A 
ATOM     28  C   UNL     1      -8.431   1.871   2.539  0.00  0.00    +0.002 A 
ATOM     29  C   UNL     1      -7.714   1.862   3.723  0.00  0.00    +0.033 A 
ATOM     30  C   UNL     1      -6.404   1.428   3.736  0.00  0.00    +0.135 A 
BRANCH  30  31
ATOM     31  N   UNL     1      -5.640   1.413   5.004  0.00  0.00    +0.057 N 
ATOM     32  O   UNL     1      -6.198   1.658   6.048  0.00  0.00    -0.126 OA
ATOM     33  O   UNL     1      -4.459   1.155   4.995  0.00  0.00    -0.126 OA
ENDBRANCH  30  31
ENDBRANCH  24  25
ENDBRANCH  21  23
ENDBRANCH   3  19
TORSDOF 5
