REMARK  Name = ZINC01531027
REMARK  11 active torsions:
REMARK  status: ('A' for Active; 'I' for Inactive)
REMARK    1  A    between atoms: C_1  and  C_2
REMARK    2  A    between atoms: C_2  and  N_3
REMARK    3  A    between atoms: N_6  and  C_7
REMARK    4  A    between atoms: C_7  and  C_8
REMARK    5  A    between atoms: C_8  and  C_9
REMARK    6  A    between atoms: C_9  and  N_10
REMARK    7  A    between atoms: N_10  and  C_11
REMARK    8  A    between atoms: N_10  and  C_12
REMARK    9  A    between atoms: C_13  and  C_15
REMARK   10  A    between atoms: N_33  and  C_35
REMARK   11  A    between atoms: C_35  and  C_36
REMARK                            x       y       z     vdW  Elec       q    Type
REMARK                         _______ _______ _______ _____ _____    ______ ____
ROOT
ATOM      1  C   UNL     1       2.405   0.016   1.235  0.00  0.00    +0.060 C 
ATOM      2  C   UNL     1       1.233   0.358   2.159  0.00  0.00    +0.017 C 
ATOM      3  C   UNL     1       0.706   1.754   1.811  0.00  0.00    +0.007 C 
ATOM      4  C   UNL     1      -0.403   2.119   2.751  0.00  0.00    -0.036 A 
ATOM      5  C   UNL     1      -1.293   1.294   3.362  0.00  0.00    +0.004 A 
ATOM      6  C   UNL     1      -2.270   1.815   4.209  0.00  0.00    +0.002 A 
ATOM      7  C   UNL     1      -2.418   3.166   4.493  0.00  0.00    +0.026 A 
ATOM      8  C   UNL     1      -1.519   4.039   3.882  0.00  0.00    +0.047 A 
ATOM      9  C   UNL     1      -0.551   3.477   3.041  0.00  0.00    +0.006 A 
ATOM     10  C   UNL     1       0.286   4.558   2.520  0.00  0.00    -0.024 A 
ATOM     11  C   UNL     1      -0.205   5.671   3.044  0.00  0.00    +0.087 A 
ATOM     12  N   UNL     1      -1.288   5.381   3.861  0.00  0.00    -0.360 N 
ATOM     13  H   UNL     1      -1.806   6.040   4.347  0.00  0.00    +0.165 HD
ATOM     14  C   UNL     1       1.422   4.208   1.594  0.00  0.00    +0.022 C 
ATOM     15  C   UNL     1       1.846   2.768   1.916  0.00  0.00    -0.056 C 
ATOM     16  N   UNL     1       2.927   2.396   0.994  0.00  0.00    +0.385 N 
ATOM     17  C   UNL     1       3.484   1.092   1.372  0.00  0.00    -0.065 C 
ATOM     18  H   UNL     1       2.563   2.343   0.054  0.00  0.00    -0.081 HD
ENDROOT
BRANCH   1  23
ATOM     19  N   UNL     1       3.863  -3.723   2.472  0.00  0.00    -0.299 N 
ATOM     20  C   UNL     1       2.858  -3.655   1.576  0.00  0.00    +0.309 C 
ATOM     21  O   UNL     1       2.339  -4.674   1.166  0.00  0.00    -0.252 OA
ATOM     22  N   UNL     1       2.430  -2.455   1.135  0.00  0.00    -0.226 N 
ATOM     23  C   UNL     1       2.977  -1.323   1.621  0.00  0.00    +0.224 C 
ATOM     24  O   UNL     1       3.929  -1.383   2.370  0.00  0.00    -0.275 OA
ATOM     25  H   UNL     1       4.217  -2.911   2.867  0.00  0.00    +0.150 HD
BRANCH  19  27
ATOM     26  C   UNL     1       5.454  -4.834   3.961  0.00  0.00    +0.024 C 
ATOM     27  C   UNL     1       4.421  -5.024   2.849  0.00  0.00    +0.102 C 
ENDBRANCH  19  27
BRANCH  22  28
ATOM     28  C   UNL     1       1.369  -2.382   0.127  0.00  0.00    +0.116 C 
BRANCH  28  29
ATOM     29  C   UNL     1       0.011  -2.588   0.800  0.00  0.00    +0.001 C 
BRANCH  29  30
ATOM     30  C   UNL     1      -1.105  -2.337  -0.216  0.00  0.00    -0.078 C 
BRANCH  30  31
ATOM     31  N   UNL     1      -2.408  -2.406   0.460  0.00  0.00    +0.376 N 
ATOM     32  C   UNL     1      -3.462  -1.965  -0.463  0.00  0.00    -0.097 C 
ATOM     33  C   UNL     1      -2.669  -3.791   0.876  0.00  0.00    -0.097 C 
ATOM     34  H   UNL     1      -2.398  -1.807   1.271  0.00  0.00    -0.083 HD
ENDBRANCH  30  31
ENDBRANCH  29  30
ENDBRANCH  28  29
ENDBRANCH  22  28
ENDBRANCH   1  23
BRANCH  16  35
ATOM     35  C   UNL     1       3.986   3.413   1.048  0.00  0.00    -0.051 C 
BRANCH  35  36
ATOM     36  C   UNL     1       5.077   3.054   0.073  0.00  0.00    -0.053 C 
ATOM     37  C   UNL     1       5.449   3.917  -0.840  0.00  0.00    +0.002 C 
ENDBRANCH  35  36
ENDBRANCH  16  35
TORSDOF 8
