REMARK  Name = ZINC41683115
REMARK  6 active torsions:
REMARK  status: ('A' for Active; 'I' for Inactive)
REMARK    1  A    between atoms: C_1  and  C_2
REMARK    2  A    between atoms: C_2  and  C_3
REMARK    3  A    between atoms: C_6  and  C_21
REMARK    4  A    between atoms: N_8  and  C_20
REMARK    5  A    between atoms: C_10  and  O_12
REMARK    6  A    between atoms: O_12  and  C_13
REMARK                            x       y       z     vdW  Elec       q    Type
REMARK                         _______ _______ _______ _____ _____    ______ ____
ROOT
ATOM      1  C   UNL     1      -1.458  -0.422   0.018  0.00  0.00    +0.133 A 
ATOM      2  N   UNL     1      -2.044  -0.642   1.173  0.00  0.00    -0.228 NA
ATOM      3  C   UNL     1      -3.285  -1.140   1.221  0.00  0.00    +0.119 A 
ATOM      4  C   UNL     1      -4.172  -1.483   2.264  0.00  0.00    +0.086 A 
ATOM      5  N   UNL     1      -5.278  -1.934   1.742  0.00  0.00    -0.174 NA
ATOM      6  N   UNL     1      -5.182  -1.914   0.344  0.00  0.00    -0.260 N 
ATOM      7  C   UNL     1      -3.948  -1.423   0.012  0.00  0.00    +0.149 A 
ATOM      8  C   UNL     1      -3.277  -1.170  -1.190  0.00  0.00    +0.250 A 
ATOM      9  N   UNL     1      -2.050  -0.669  -1.138  0.00  0.00    -0.196 NA
ATOM     10  C   UNL     1      -6.219  -2.344  -0.597  0.00  0.00    +0.173 C 
ATOM     11  C   UNL     1      -3.887  -1.349   3.738  0.00  0.00    +0.070 C 
ENDROOT
BRANCH   1  13
ATOM     12  C   UNL     1      -0.124   1.669  -0.002  0.00  0.00    +0.012 C 
ATOM     13  C   UNL     1      -0.060   0.140   0.011  0.00  0.00    +0.073 C 
ENDBRANCH   1  13
BRANCH   8  14
ATOM     14  O   UNL     1      -3.870  -1.425  -2.381  0.00  0.00    -0.436 OA
BRANCH  14  15
ATOM     15  C   UNL     1      -3.210  -1.065  -3.513  0.00  0.00    +0.131 A 
ATOM     16  C   UNL     1      -2.154  -1.837  -3.975  0.00  0.00    +0.048 A 
ATOM     17  C   UNL     1      -1.484  -1.471  -5.126  0.00  0.00    +0.023 A 
ATOM     18  C   UNL     1      -1.864  -0.335  -5.818  0.00  0.00    +0.041 A 
ATOM     19  C   UNL     1      -2.917   0.437  -5.358  0.00  0.00    +0.023 A 
ATOM     20  C   UNL     1      -3.594   0.071  -4.211  0.00  0.00    +0.048 A 
ATOM     21 CL   UNL     1      -1.020   0.124  -7.264  0.00  0.00    -0.084 Cl
ENDBRANCH  14  15
ENDBRANCH   8  14
TORSDOF 3
