REMARK  Name = ZINC63279362
REMARK  4 active torsions:
REMARK  status: ('A' for Active; 'I' for Inactive)
REMARK    1  A    between atoms: C_4  and  N_7
REMARK    2  A    between atoms: C_8  and  C_21
REMARK    3  A    between atoms: N_9  and  N_10
REMARK    4  A    between atoms: C_11  and  C_12
REMARK                            x       y       z     vdW  Elec       q    Type
REMARK                         _______ _______ _______ _____ _____    ______ ____
ROOT
ATOM      1  N   UNL     1       3.611  -0.602  -0.009  0.00  0.00    -0.233 NA
ATOM      2  C   UNL     1       3.830  -1.574   0.829  0.00  0.00    +0.146 C 
ATOM      3  N   UNL     1       2.833  -1.989   1.673  0.00  0.00    -0.222 N 
ATOM      4  H   UNL     1       1.939  -1.622   1.585  0.00  0.00    +0.176 HD
ENDROOT
BRANCH   2   5
ATOM      5  C   UNL     1       5.180  -2.242   0.871  0.00  0.00    +0.199 C 
ATOM      6  N   UNL     1       5.843  -2.177  -0.438  0.00  0.00    -0.325 N 
ATOM      7  C   UNL     1       6.129  -3.383  -1.076  0.00  0.00    +0.042 A 
ATOM      8  C   UNL     1       6.756  -3.518  -2.328  0.00  0.00    +0.024 A 
ATOM      9  C   UNL     1       6.994  -4.757  -2.875  0.00  0.00    +0.002 A 
ATOM     10  C   UNL     1       6.625  -5.913  -2.213  0.00  0.00    +0.001 A 
ATOM     11  C   UNL     1       6.005  -5.811  -0.979  0.00  0.00    +0.016 A 
ATOM     12  C   UNL     1       5.767  -4.570  -0.432  0.00  0.00    +0.031 A 
ATOM     13  S   UNL     1       5.011  -4.059   1.096  0.00  0.00    -0.093 S 
ATOM     14  H   UNL     1       6.074  -1.327  -0.843  0.00  0.00    +0.148 HD
ENDBRANCH   2   5
BRANCH   1  18
ATOM     15  C   UNL     1      -0.196   0.974  -0.403  0.00  0.00    +0.000 A 
ATOM     16  C   UNL     1       0.860   1.801  -0.064  0.00  0.00    +0.002 A 
ATOM     17  C   UNL     1       2.131   1.282   0.069  0.00  0.00    +0.028 A 
ATOM     18  C   UNL     1       2.351  -0.080  -0.139  0.00  0.00    +0.066 A 
ATOM     19  C   UNL     1       1.280  -0.909  -0.481  0.00  0.00    +0.028 A 
ATOM     20  C   UNL     1       0.014  -0.377  -0.612  0.00  0.00    +0.002 A 
ENDBRANCH   1  18
BRANCH   3  21
ATOM     21  N   UNL     1       3.104  -2.942   2.663  0.00  0.00    -0.189 NA
ATOM     22  C   UNL     1       2.178  -3.265   3.534  0.00  0.00    +0.136 C 
BRANCH  22  23
ATOM     23  C   UNL     1       2.481  -4.137   4.585  0.00  0.00    +0.000 C 
ATOM     24  C   UNL     1       1.597  -4.655   5.533  0.00  0.00    +0.004 A 
ATOM     25  C   UNL     1       0.210  -4.488   5.735  0.00  0.00    +0.010 A 
ATOM     26  C   UNL     1      -0.402  -5.129   6.763  0.00  0.00    +0.001 A 
ATOM     27  C   UNL     1       0.307  -5.958   7.636  0.00  0.00    +0.002 A 
ATOM     28  C   UNL     1       1.640  -6.164   7.501  0.00  0.00    +0.026 A 
ATOM     29  C   UNL     1       2.350  -5.527   6.450  0.00  0.00    +0.043 A 
ATOM     30  N   UNL     1       3.623  -5.564   6.111  0.00  0.00    -0.380 N 
ATOM     31  C   UNL     1       3.833  -4.721   4.929  0.00  0.00    +0.150 C 
ATOM     32  H   UNL     1       4.311  -6.071   6.568  0.00  0.00    +0.160 HD
ENDBRANCH  22  23
ENDBRANCH   3  21
TORSDOF 4
