REMARK  Name = ZINC39949338
REMARK  7 active torsions:
REMARK  status: ('A' for Active; 'I' for Inactive)
REMARK    1  A    between atoms: C_1  and  O_2
REMARK    2  A    between atoms: O_2  and  C_3
REMARK    3  A    between atoms: C_7  and  C_11
REMARK    4  A    between atoms: C_8  and  O_9
REMARK    5  A    between atoms: O_9  and  C_10
REMARK    6  A    between atoms: N_12  and  C_13
REMARK    7  A    between atoms: C_18  and  C_19
REMARK                            x       y       z     vdW  Elec       q    Type
REMARK                         _______ _______ _______ _____ _____    ______ ____
ROOT
ATOM      1  C   UNL     1      -2.335  -7.643  -1.605  0.00  0.00    +0.069 A 
ATOM      2  C   UNL     1      -3.182  -7.993  -2.659  0.00  0.00    +0.028 A 
ATOM      3  C   UNL     1      -3.183  -9.286  -3.138  0.00  0.00    +0.002 A 
ATOM      4  C   UNL     1      -2.347 -10.236  -2.577  0.00  0.00    +0.000 A 
ATOM      5  C   UNL     1      -1.506  -9.896  -1.532  0.00  0.00    +0.008 A 
ATOM      6  C   UNL     1      -1.491  -8.604  -1.047  0.00  0.00    +0.010 A 
ENDROOT
BRANCH   6   7
ATOM      7  C   UNL     1      -0.569  -8.234   0.087  0.00  0.00    +0.214 C 
ATOM      8  C   UNL     1      -1.380  -8.229   1.369  0.00  0.00    +0.247 C 
ATOM      9  O   UNL     1      -2.354  -7.520   1.506  0.00  0.00    -0.273 OA
ATOM     10  N   UNL     1      -0.958  -9.059   2.353  0.00  0.00    -0.263 N 
ATOM     11  C   UNL     1       0.125  -9.828   2.160  0.00  0.00    +0.178 C 
ATOM     12  S   UNL     1       0.616 -10.859   3.436  0.00  0.00    -0.015 S 
ATOM     13  N   UNL     1       0.844  -9.839   1.034  0.00  0.00    -0.123 NA
ATOM     14  N   UNL     1       0.590  -9.141   0.046  0.00  0.00    -0.299 N 
ATOM     15  H   UNL     1      -1.438  -9.098   3.196  0.00  0.00    +0.157 HD
ATOM     16  H   UNL     1       1.148  -9.190  -0.746  0.00  0.00    +0.181 HD
ENDBRANCH   6   7
BRANCH   1  18
ATOM     17  C   UNL     1      -3.452  -5.779  -0.806  0.00  0.00    +0.123 C 
ATOM     18  N   UNL     1      -2.329  -6.361  -1.125  0.00  0.00    -0.255 NA
BRANCH  17  23
ATOM     19  C   UNL     1      -2.319  -2.240  -0.217  0.00  0.00    +0.162 A 
ATOM     20  C   UNL     1      -3.495  -1.660   0.229  0.00  0.00    +0.049 A 
ATOM     21  C   UNL     1      -4.651  -2.414   0.337  0.00  0.00    +0.004 A 
ATOM     22  C   UNL     1      -4.644  -3.751   0.003  0.00  0.00    +0.013 A 
ATOM     23  C   UNL     1      -3.464  -4.352  -0.449  0.00  0.00    +0.038 A 
ATOM     24  C   UNL     1      -2.296  -3.586  -0.564  0.00  0.00    +0.170 A 
BRANCH  19  26
ATOM     25  C   UNL     1      -1.284  -0.116   0.053  0.00  0.00    +0.277 C 
ATOM     26  O   UNL     1      -1.188  -1.492  -0.321  0.00  0.00    -0.491 OA
ENDBRANCH  19  26
BRANCH  24  27
ATOM     27  O   UNL     1      -1.146  -4.157  -1.007  0.00  0.00    -0.491 OA
ATOM     28  C   UNL     1      -0.204  -4.573  -0.016  0.00  0.00    +0.277 C 
ENDBRANCH  24  27
ENDBRANCH  17  23
ENDBRANCH   1  18
TORSDOF 5
