REMARK  Name = ZINC63775531
REMARK  5 active torsions:
REMARK  status: ('A' for Active; 'I' for Inactive)
REMARK    1  A    between atoms: C_1  and  C_2
REMARK    2  A    between atoms: C_12  and  C_14
REMARK    3  A    between atoms: C_14  and  N_15
REMARK    4  A    between atoms: C_18  and  C_23
REMARK    5  A    between atoms: C_23  and  C_24
REMARK                            x       y       z     vdW  Elec       q    Type
REMARK                         _______ _______ _______ _____ _____    ______ ____
ROOT
ATOM      1  N   UNL     1       3.948  -0.428   2.911  0.00  0.00    -0.216 N 
ATOM      2  C   UNL     1       4.988  -1.121   2.407  0.00  0.00    +0.244 C 
ATOM      3  O   UNL     1       4.944  -2.163   1.789  0.00  0.00    -0.273 OA
ATOM      4  C   UNL     1       6.226  -0.325   2.774  0.00  0.00    +0.165 C 
ATOM      5  N   UNL     1       5.688   0.832   3.510  0.00  0.00    -0.287 N 
ATOM      6  C   UNL     1       4.351   0.685   3.534  0.00  0.00    +0.310 C 
ATOM      7  O   UNL     1       3.594   1.474   4.064  0.00  0.00    -0.252 OA
ATOM      8  H   UNL     1       6.198   1.559   3.900  0.00  0.00    +0.151 HD
ENDROOT
BRANCH   1   9
ATOM      9  C   UNL     1       2.547  -0.841   2.786  0.00  0.00    +0.214 C 
BRANCH   9  20
ATOM     10  C   UNL     1      -0.019   1.526   0.010  0.00  0.00    +0.029 C 
ATOM     11  C   UNL     1       0.002  -0.004   0.002  0.00  0.00    +0.083 C 
ATOM     12  C   UNL     1      -1.430  -0.557   0.082  0.00  0.00    +0.059 C 
ATOM     13  C   UNL     1      -1.457  -1.361   1.363  0.00  0.00    -0.024 A 
ATOM     14  C   UNL     1      -2.472  -2.086   1.957  0.00  0.00    +0.005 A 
ATOM     15  C   UNL     1      -2.247  -2.747   3.150  0.00  0.00    +0.000 A 
ATOM     16  C   UNL     1      -1.003  -2.681   3.749  0.00  0.00    +0.002 A 
ATOM     17  C   UNL     1       0.013  -1.959   3.160  0.00  0.00    +0.024 A 
ATOM     18  C   UNL     1      -0.206  -1.288   1.955  0.00  0.00    +0.040 A 
ATOM     19  N   UNL     1       0.679  -0.510   1.199  0.00  0.00    -0.267 N 
ATOM     20  C   UNL     1       1.964  -0.262   1.523  0.00  0.00    +0.238 C 
ATOM     21  O   UNL     1       2.650   0.428   0.799  0.00  0.00    -0.273 OA
ENDBRANCH   9  20
ENDBRANCH   1   9
BRANCH   4  22
ATOM     22  C   UNL     1       7.153  -1.152   3.667  0.00  0.00    +0.065 C 
BRANCH  22  23
ATOM     23  C   UNL     1       8.427  -0.386   3.914  0.00  0.00    -0.039 C 
ATOM     24  C   UNL     1       8.708   0.402   4.977  0.00  0.00    -0.001 A 
ATOM     25  C   UNL     1       7.942   0.768   6.174  0.00  0.00    +0.010 A 
ATOM     26  C   UNL     1       8.502   1.597   7.084  0.00  0.00    +0.001 A 
ATOM     27  C   UNL     1       9.794   2.114   6.912  0.00  0.00    +0.002 A 
ATOM     28  C   UNL     1      10.559   1.823   5.839  0.00  0.00    +0.026 A 
ATOM     29  C   UNL     1      10.070   0.961   4.820  0.00  0.00    +0.043 A 
ATOM     30  N   UNL     1      10.609   0.535   3.703  0.00  0.00    -0.380 N 
ATOM     31  C   UNL     1       9.651  -0.348   3.028  0.00  0.00    +0.144 C 
ATOM     32  H   UNL     1      11.495   0.763   3.379  0.00  0.00    +0.160 HD
ENDBRANCH  22  23
ENDBRANCH   4  22
TORSDOF 4
