REMARK  Name = ZINC06300988
REMARK  7 active torsions:
REMARK  status: ('A' for Active; 'I' for Inactive)
REMARK    1  A    between atoms: C_1  and  C_2
REMARK    2  A    between atoms: C_4  and  C_39
REMARK    3  A    between atoms: C_9  and  C_14
REMARK    4  A    between atoms: C_14  and  C_16
REMARK    5  A    between atoms: C_14  and  N_71
REMARK    6  A    between atoms: N_20  and  C_21
REMARK    7  A    between atoms: C_29  and  C_32
REMARK                            x       y       z     vdW  Elec       q    Type
REMARK                         _______ _______ _______ _____ _____    ______ ____
ROOT
ATOM      1  C   UNL     1       3.510   0.737  -0.027  0.00  0.00    +0.039 C 
ENDROOT
BRANCH   1  10
ATOM      2  C   UNL     1       7.315  -1.093  -6.175  0.00  0.00    +0.044 C 
ATOM      3  C   UNL     1       6.607  -0.071  -5.323  0.00  0.00    -0.050 A 
ATOM      4  C   UNL     1       6.531   1.247  -5.750  0.00  0.00    +0.008 A 
ATOM      5  C   UNL     1       5.888   2.198  -4.987  0.00  0.00    -0.026 A 
ATOM      6  C   UNL     1       5.309   1.835  -3.776  0.00  0.00    +0.052 A 
ATOM      7  C   UNL     1       5.388   0.497  -3.346  0.00  0.00    -0.001 A 
ATOM      8  C   UNL     1       6.045  -0.451  -4.137  0.00  0.00    +0.013 A 
ATOM      9  C   UNL     1       4.775   0.125  -2.069  0.00  0.00    +0.017 A 
ATOM     10  C   UNL     1       4.152   1.087  -1.345  0.00  0.00    +0.011 A 
ATOM     11  C   UNL     1       4.096   2.413  -1.824  0.00  0.00    +0.251 A 
ATOM     12  O   UNL     1       3.525   3.261  -1.160  0.00  0.00    -0.268 OA
ATOM     13  N   UNL     1       4.660   2.765  -2.993  0.00  0.00    -0.322 N 
ATOM     14  H   UNL     1       4.606   3.687  -3.290  0.00  0.00    +0.169 HD
ATOM     15  C   UNL     1       5.814   3.626  -5.464  0.00  0.00    +0.046 C 
ENDBRANCH   1  10
BRANCH   1  21
ATOM     16  C   UNL     1       5.470   1.456   1.205  0.00  0.00    -0.072 C 
ATOM     17  C   UNL     1       5.996   2.613   2.058  0.00  0.00    +0.017 C 
ATOM     18  C   UNL     1       5.133   2.778   3.277  0.00  0.00    -0.048 C 
ATOM     19  C   UNL     1       3.934   2.245   3.376  0.00  0.00    -0.041 C 
ATOM     20  C   UNL     1       3.314   1.417   2.288  0.00  0.00    -0.049 C 
ATOM     21  N   UNL     1       4.019   1.657   1.015  0.00  0.00    +0.392 N 
ATOM     22  H   UNL     1       3.851   2.625   0.717  0.00  0.00    -0.080 HD
BRANCH  18  23
ATOM     23  C   UNL     1       5.652   3.570   4.412  0.00  0.00    -0.022 A 
ATOM     24  C   UNL     1       5.898   4.935   4.258  0.00  0.00    +0.011 A 
ATOM     25  C   UNL     1       6.378   5.671   5.322  0.00  0.00    +0.039 A 
ATOM     26  C   UNL     1       6.626   5.055   6.538  0.00  0.00    +0.123 A 
ATOM     27  C   UNL     1       6.388   3.699   6.694  0.00  0.00    +0.039 A 
ATOM     28  C   UNL     1       5.903   2.955   5.639  0.00  0.00    +0.011 A 
ATOM     29  F   UNL     1       7.101   5.779   7.575  0.00  0.00    -0.205 F 
ENDBRANCH  18  23
ENDBRANCH   1  21
BRANCH   1  30
ATOM     30  C   UNL     1       2.016   0.894  -0.138  0.00  0.00    +0.143 A 
ATOM     31  N   UNL     1       1.347   2.021  -0.159  0.00  0.00    -0.115 NA
ATOM     32  N   UNL     1       0.094   1.738  -0.263  0.00  0.00    -0.023 NA
ATOM     33  N   UNL     1      -0.054   0.460  -0.309  0.00  0.00    -0.044 NA
ATOM     34  N   UNL     1       1.109  -0.096  -0.235  0.00  0.00    -0.227 N 
BRANCH  34  35
ATOM     35  C   UNL     1       1.388  -1.534  -0.252  0.00  0.00    +0.111 C 
ATOM     36  C   UNL     1       0.875  -2.137  -1.562  0.00  0.00    +0.027 C 
ATOM     37  C   UNL     1       1.167  -3.639  -1.580  0.00  0.00    +0.002 C 
ATOM     38  C   UNL     1       0.463  -4.310  -0.399  0.00  0.00    +0.000 C 
ATOM     39  C   UNL     1       0.976  -3.707   0.910  0.00  0.00    +0.002 C 
ATOM     40  C   UNL     1       0.684  -2.205   0.929  0.00  0.00    +0.027 C 
ENDBRANCH  34  35
ENDBRANCH   1  30
TORSDOF 5
