REMARK  Name = ZINC16075556
REMARK  10 active torsions:
REMARK  status: ('A' for Active; 'I' for Inactive)
REMARK    1  A    between atoms: C_1  and  C_2
REMARK    2  A    between atoms: N_5  and  C_11
REMARK    3  A    between atoms: C_7  and  C_10
REMARK    4  A    between atoms: C_11  and  N_12
REMARK    5  A    between atoms: C_15  and  C_19
REMARK    6  A    between atoms: C_15  and  C_20
REMARK    7  A    between atoms: C_23  and  C_26
REMARK    8  A    between atoms: C_26  and  C_27
REMARK    9  A    between atoms: C_26  and  C_28
REMARK   10  A    between atoms: C_26  and  C_29
REMARK                            x       y       z     vdW  Elec       q    Type
REMARK                         _______ _______ _______ _____ _____    ______ ____
ROOT
ATOM      1  N   UNL     1      -1.099   2.007   0.017  0.00  0.00    -0.210 N 
ATOM      2  C   UNL     1      -0.014   1.208   0.009  0.00  0.00    +0.252 C 
ATOM      3  O   UNL     1       0.002  -0.004   0.002  0.00  0.00    -0.272 OA
ATOM      4  C   UNL     1       1.181   2.140   0.002  0.00  0.00    +0.135 C 
ATOM      5  N   UNL     1       0.574   3.482   0.015  0.00  0.00    -0.281 N 
ATOM      6  C   UNL     1      -0.759   3.301   0.026  0.00  0.00    +0.311 C 
ATOM      7  O   UNL     1      -1.564   4.212   0.039  0.00  0.00    -0.252 OA
ATOM      8  C   UNL     1       2.014   1.938  -1.265  0.00  0.00    +0.047 C 
ATOM      9  H   UNL     1       1.215   4.376   0.013  0.00  0.00    +0.152 HD
ENDROOT
BRANCH   4  10
ATOM     10  C   UNL     1       2.027   1.926   1.231  0.00  0.00    -0.015 A 
ATOM     11  C   UNL     1       2.076   0.680   1.828  0.00  0.00    +0.006 A 
ATOM     12  C   UNL     1       2.855   0.482   2.952  0.00  0.00    +0.004 A 
ATOM     13  C   UNL     1       3.578   1.533   3.486  0.00  0.00    -0.042 A 
ATOM     14  C   UNL     1       3.526   2.780   2.892  0.00  0.00    +0.004 A 
ATOM     15  C   UNL     1       2.750   2.977   1.764  0.00  0.00    +0.006 A 
BRANCH  13  16
ATOM     16  C   UNL     1       4.424   1.319   4.714  0.00  0.00    -0.013 C 
ATOM     17  C   UNL     1       3.939   2.241   5.834  0.00  0.00    +0.015 C 
ATOM     18  C   UNL     1       4.306  -0.138   5.167  0.00  0.00    +0.015 C 
ATOM     19  C   UNL     1       5.885   1.635   4.389  0.00  0.00    +0.015 C 
ENDBRANCH  13  16
ENDBRANCH   4  10
BRANCH   1  20
ATOM     20  C   UNL     1      -2.481   1.520   0.020  0.00  0.00    +0.205 C 
BRANCH  20  24
ATOM     21  C   UNL     1      -6.352   1.383   3.056  0.00  0.00    +0.039 C 
ATOM     22  C   UNL     1      -4.837   1.204   2.942  0.00  0.00    +0.130 C 
ATOM     23  C   UNL     1      -4.401   1.447   1.494  0.00  0.00    +0.117 C 
ATOM     24  N   UNL     1      -2.937   1.349   1.406  0.00  0.00    -0.282 NA
ATOM     25  C   UNL     1      -2.295   2.327   2.296  0.00  0.00    +0.117 C 
ATOM     26  C   UNL     1      -2.752   2.075   3.736  0.00  0.00    +0.130 C 
ATOM     27  O   UNL     1      -4.179   2.143   3.796  0.00  0.00    -0.371 OA
ATOM     28  C   UNL     1      -2.151   3.139   4.656  0.00  0.00    +0.039 C 
ENDBRANCH  20  24
ENDBRANCH   1  20
TORSDOF 4
