REMARK  Name = ZINC00413735
REMARK  5 active torsions:
REMARK  status: ('A' for Active; 'I' for Inactive)
REMARK    1  A    between atoms: C_4  and  C_7
REMARK    2  A    between atoms: C_7  and  N_8
REMARK    3  A    between atoms: N_8  and  C_9
REMARK    4  A    between atoms: C_10  and  C_19
REMARK    5  A    between atoms: C_22  and  O_25
REMARK                            x       y       z     vdW  Elec       q    Type
REMARK                         _______ _______ _______ _____ _____    ______ ____
ROOT
ATOM      1  C   UNL     1       5.394  -1.518  -1.484  0.00  0.00    +0.131 A 
ATOM      2  C   UNL     1       6.126  -1.788  -2.621  0.00  0.00    +0.112 A 
ATOM      3  N   UNL     1       7.292  -2.342  -2.244  0.00  0.00    -0.226 NA
ATOM      4  C   UNL     1       7.322  -2.441  -0.924  0.00  0.00    +0.140 A 
ATOM      5  N   UNL     1       6.146  -1.933  -0.421  0.00  0.00    -0.286 N 
ATOM      6  C   UNL     1       5.922  -1.918   0.930  0.00  0.00    +0.114 A 
ATOM      7  C   UNL     1       6.847  -2.399   1.786  0.00  0.00    +0.058 A 
ATOM      8  C   UNL     1       8.059  -2.924   1.300  0.00  0.00    +0.025 A 
ATOM      9  C   UNL     1       8.297  -2.946  -0.038  0.00  0.00    +0.048 A 
ATOM     10 CL   UNL     1       6.543  -2.369   3.494  0.00  0.00    -0.082 Cl
ENDROOT
BRANCH   2  11
ATOM     11  C   UNL     1       5.703  -1.512  -4.014  0.00  0.00    +0.004 A 
ATOM     12  C   UNL     1       4.363  -1.644  -4.377  0.00  0.00    +0.014 A 
ATOM     13  C   UNL     1       3.972  -1.383  -5.674  0.00  0.00    +0.046 A 
ATOM     14  C   UNL     1       4.913  -0.998  -6.620  0.00  0.00    +0.117 A 
ATOM     15  C   UNL     1       6.248  -0.871  -6.263  0.00  0.00    +0.046 A 
ATOM     16  C   UNL     1       6.645  -1.126  -4.967  0.00  0.00    +0.014 A 
BRANCH  14  17
ATOM     17  O   UNL     1       4.525  -0.745  -7.898  0.00  0.00    -0.507 OA
ATOM     18  H   UNL     1       4.549  -1.520  -8.476  0.00  0.00    +0.292 HD
ENDBRANCH  14  17
ENDBRANCH   2  11
BRANCH   1  19
ATOM     19  N   UNL     1       4.125  -0.939  -1.429  0.00  0.00    -0.324 N 
ATOM     20  H   UNL     1       3.445  -1.511  -1.907  0.00  0.00    +0.148 HD
BRANCH  19  21
ATOM     21  C   UNL     1       3.720  -0.689  -0.040  0.00  0.00    +0.138 C 
BRANCH  21  25
ATOM     22  C   UNL     1       0.028   1.460   0.003  0.00  0.00    +0.000 A 
ATOM     23  C   UNL     1       1.227   2.147  -0.014  0.00  0.00    +0.000 A 
ATOM     24  C   UNL     1       2.422   1.452  -0.028  0.00  0.00    +0.005 A 
ATOM     25  C   UNL     1       2.417   0.069  -0.025  0.00  0.00    -0.030 A 
ATOM     26  C   UNL     1       1.218  -0.618  -0.007  0.00  0.00    +0.005 A 
ATOM     27  C   UNL     1       0.023   0.078   0.007  0.00  0.00    +0.000 A 
ENDBRANCH  21  25
ENDBRANCH  19  21
ENDBRANCH   1  19
TORSDOF 5
