REMARK  Name = ZINC19524420
REMARK  9 active torsions:
REMARK  status: ('A' for Active; 'I' for Inactive)
REMARK    1  A    between atoms: C_1  and  C_2
REMARK    2  A    between atoms: C_2  and  N_3
REMARK    3  A    between atoms: N_12  and  C_13
REMARK    4  A    between atoms: C_13  and  C_15
REMARK    5  A    between atoms: C_15  and  N_16
REMARK    6  A    between atoms: C_21  and  O_28
REMARK    7  A    between atoms: C_22  and  O_26
REMARK    8  A    between atoms: O_26  and  C_27
REMARK    9  A    between atoms: O_28  and  C_29
REMARK                            x       y       z     vdW  Elec       q    Type
REMARK                         _______ _______ _______ _____ _____    ______ ____
ROOT
ATOM      1  C   UNL     1      -2.050  -0.944  -4.764  0.00  0.00    +0.021 C 
ENDROOT
BRANCH   1   2
ATOM      2  N   UNL     1      -3.104  -1.429  -5.665  0.00  0.00    +0.388 N 
ATOM      3  C   UNL     1      -2.595  -1.462  -7.044  0.00  0.00    -0.073 C 
ATOM      4  C   UNL     1      -3.583  -2.247  -7.909  0.00  0.00    +0.017 C 
ATOM      5  C   UNL     1      -4.977  -1.711  -7.706  0.00  0.00    -0.044 A 
ATOM      6  C   UNL     1      -5.955  -2.039  -8.633  0.00  0.00    +0.053 A 
ATOM      7  C   UNL     1      -7.247  -1.569  -8.482  0.00  0.00    +0.162 A 
ATOM      8  C   UNL     1      -7.565  -0.765  -7.391  0.00  0.00    +0.162 A 
ATOM      9  C   UNL     1      -6.585  -0.441  -6.469  0.00  0.00    +0.051 A 
ATOM     10  C   UNL     1      -5.290  -0.912  -6.627  0.00  0.00    -0.057 A 
ATOM     11  C   UNL     1      -4.256  -0.524  -5.602  0.00  0.00    -0.042 C 
ATOM     12  H   UNL     1      -3.387  -2.356  -5.385  0.00  0.00    -0.081 HD
BRANCH   8  13
ATOM     13  O   UNL     1      -8.833  -0.299  -7.232  0.00  0.00    -0.491 OA
ATOM     14  C   UNL     1      -9.084   0.520  -6.088  0.00  0.00    +0.277 C 
ENDBRANCH   8  13
BRANCH   7  15
ATOM     15  O   UNL     1      -8.203  -1.892  -9.393  0.00  0.00    -0.491 OA
ATOM     16  C   UNL     1      -7.803  -2.722 -10.486  0.00  0.00    +0.277 C 
ENDBRANCH   7  15
ENDBRANCH   1   2
BRANCH   1  17
ATOM     17  C   UNL     1      -2.535  -1.016  -3.339  0.00  0.00    +0.223 C 
ATOM     18  O   UNL     1      -3.652  -1.430  -3.097  0.00  0.00    -0.276 OA
BRANCH  17  28
ATOM     19  N   UNL     1      -1.367  -0.525   0.012  0.00  0.00    -0.312 N 
ATOM     20  C   UNL     1      -2.121  -0.810   1.145  0.00  0.00    +0.068 A 
ATOM     21  C   UNL     1      -1.856  -0.727   2.505  0.00  0.00    +0.028 A 
ATOM     22  C   UNL     1      -2.826  -1.089   3.418  0.00  0.00    +0.002 A 
ATOM     23  C   UNL     1      -4.063  -1.535   2.983  0.00  0.00    +0.002 A 
ATOM     24  C   UNL     1      -4.337  -1.621   1.633  0.00  0.00    +0.028 A 
ATOM     25  C   UNL     1      -3.368  -1.259   0.707  0.00  0.00    +0.066 A 
ATOM     26  N   UNL     1      -3.345  -1.238  -0.684  0.00  0.00    -0.326 N 
ATOM     27  C   UNL     1      -2.128  -0.785  -1.083  0.00  0.00    +0.201 A 
ATOM     28  N   UNL     1      -1.741  -0.625  -2.346  0.00  0.00    -0.148 NA
ATOM     29  H   UNL     1      -4.074  -1.498  -1.268  0.00  0.00    +0.169 HD
BRANCH  19  31
ATOM     30  C   UNL     1      -0.003   1.506   0.017  0.00  0.00    +0.027 C 
ATOM     31  C   UNL     1       0.010  -0.024   0.001  0.00  0.00    +0.122 C 
ENDBRANCH  19  31
ENDBRANCH  17  28
ENDBRANCH   1  17
TORSDOF 6
