REMARK  Name = ZINC13506762
REMARK  9 active torsions:
REMARK  status: ('A' for Active; 'I' for Inactive)
REMARK    1  A    between atoms: C_1  and  C_2
REMARK    2  A    between atoms: C_5  and  N_8
REMARK    3  A    between atoms: N_8  and  C_9
REMARK    4  A    between atoms: C_9  and  C_11
REMARK    5  A    between atoms: C_9  and  C_16
REMARK    6  A    between atoms: N_18  and  C_19
REMARK    7  A    between atoms: C_24  and  C_26
REMARK    8  A    between atoms: C_26  and  N_27
REMARK    9  A    between atoms: C_28  and  C_30
REMARK                            x       y       z     vdW  Elec       q    Type
REMARK                         _______ _______ _______ _____ _____    ______ ____
ROOT
ATOM      1  N   UNL     1       2.313  -2.974  -0.481  0.00  0.00    -0.254 N 
ATOM      2  C   UNL     1       2.646  -3.245  -1.759  0.00  0.00    +0.238 C 
ATOM      3  O   UNL     1       3.350  -2.476  -2.378  0.00  0.00    -0.274 OA
ENDROOT
BRANCH   1   8
ATOM      4  C   UNL     1      -2.367  -5.252   1.774  0.00  0.00    +0.044 C 
ATOM      5  C   UNL     1      -1.124  -4.647   1.175  0.00  0.00    -0.050 A 
ATOM      6  C   UNL     1      -0.279  -3.886   1.962  0.00  0.00    +0.005 A 
ATOM      7  C   UNL     1       0.861  -3.330   1.416  0.00  0.00    +0.024 A 
ATOM      8  C   UNL     1       1.159  -3.536   0.075  0.00  0.00    +0.038 A 
ATOM      9  C   UNL     1       0.305  -4.296  -0.714  0.00  0.00    +0.024 A 
ATOM     10  C   UNL     1      -0.831  -4.854  -0.160  0.00  0.00    +0.005 A 
ENDBRANCH   1   8
BRANCH   1  11
ATOM     11  C   UNL     1       3.159  -2.090   0.325  0.00  0.00    +0.204 C 
BRANCH  11  12
ATOM     12  C   UNL     1       2.393  -0.840   0.671  0.00  0.00    +0.019 A 
ATOM     13  C   UNL     1       2.691   0.451   0.385  0.00  0.00    +0.013 A 
ATOM     14  C   UNL     1       1.832   1.448   0.809  0.00  0.00    +0.008 A 
ATOM     15  C   UNL     1       0.717   1.105   1.498  0.00  0.00    +0.045 A 
ATOM     16  S   UNL     1       0.857  -0.674   1.567  0.00  0.00    -0.099 S 
ENDBRANCH  11  12
BRANCH  11  17
ATOM     17  C   UNL     1       3.563  -2.800   1.592  0.00  0.00    +0.239 C 
ATOM     18  O   UNL     1       3.181  -3.932   1.801  0.00  0.00    -0.273 OA
ATOM     19  N   UNL     1       4.348  -2.176   2.492  0.00  0.00    -0.311 N 
ATOM     20  H   UNL     1       4.653  -1.270   2.325  0.00  0.00    +0.149 HD
BRANCH  19  21
ATOM     21  C   UNL     1       4.740  -2.865   3.724  0.00  0.00    +0.073 C 
ATOM     22  C   UNL     1       3.677  -2.639   4.818  0.00  0.00    +0.022 C 
ATOM     23  C   UNL     1       4.498  -2.505   6.124  0.00  0.00    +0.002 C 
ATOM     24  C   UNL     1       5.747  -1.713   5.663  0.00  0.00    +0.002 C 
ATOM     25  C   UNL     1       6.056  -2.276   4.261  0.00  0.00    +0.022 C 
ENDBRANCH  19  21
ENDBRANCH  11  17
ENDBRANCH   1  11
BRANCH   2  26
ATOM     26  C   UNL     1       2.144  -4.504  -2.417  0.00  0.00    +0.201 C 
BRANCH  26  27
ATOM     27  N   UNL     1       3.218  -5.098  -3.218  0.00  0.00    -0.300 N 
ATOM     28  C   UNL     1       2.997  -6.238  -3.901  0.00  0.00    +0.280 C 
ATOM     29  O   UNL     1       1.905  -6.774  -3.854  0.00  0.00    -0.267 OA
ATOM     30  H   UNL     1       4.088  -4.671  -3.255  0.00  0.00    +0.150 HD
BRANCH  28  31
ATOM     31  C   UNL     1       4.071  -6.833  -4.703  0.00  0.00    +0.189 A 
ATOM     32  C   UNL     1       3.982  -7.979  -5.440  0.00  0.00    +0.054 A 
ATOM     33  C   UNL     1       5.237  -8.172  -6.039  0.00  0.00    +0.042 A 
ATOM     34  C   UNL     1       6.027  -7.148  -5.646  0.00  0.00    +0.196 A 
ATOM     35  O   UNL     1       5.319  -6.341  -4.845  0.00  0.00    -0.458 OA
ENDBRANCH  28  31
ENDBRANCH  26  27
ENDBRANCH   2  26
TORSDOF 8
