REMARK  Name = ZINC20921567
REMARK  13 active torsions:
REMARK  status: ('A' for Active; 'I' for Inactive)
REMARK    1  A    between atoms: C_1  and  C_2
REMARK    2  A    between atoms: C_2  and  C_3
REMARK    3  A    between atoms: C_2  and  N_4
REMARK    4  A    between atoms: C_6  and  C_9
REMARK    5  A    between atoms: N_10  and  N_11
REMARK    6  A    between atoms: C_15  and  S_18
REMARK    7  A    between atoms: N_16  and  N_17
REMARK    8  A    between atoms: S_18  and  C_19
REMARK    9  A    between atoms: C_19  and  C_20
REMARK   10  A    between atoms: N_22  and  C_23
REMARK   11  A    between atoms: C_24  and  C_32
REMARK   12  A    between atoms: C_32  and  O_34
REMARK   13  A    between atoms: O_34  and  C_35
REMARK                            x       y       z     vdW  Elec       q    Type
REMARK                         _______ _______ _______ _____ _____    ______ ____
ROOT
ATOM      1  N   UNL     1      -4.986   7.247   0.064  0.00  0.00    -0.204 N 
ATOM      2  C   UNL     1      -4.287   6.049   0.054  0.00  0.00    +0.254 A 
ATOM      3  N   UNL     1      -4.815   4.849   0.050  0.00  0.00    -0.109 NA
ATOM      4  N   UNL     1      -3.770   3.916   0.035  0.00  0.00    -0.119 NA
ATOM      5  C   UNL     1      -2.637   4.577   0.039  0.00  0.00    +0.210 A 
ATOM      6  N   UNL     1      -2.927   5.912   0.048  0.00  0.00    -0.211 N 
ATOM      7  H   UNL     1      -4.440   8.202   0.067  0.00  0.00    +0.177 HD
ENDROOT
BRANCH   6   8
ATOM      8  N   UNL     1      -2.017   6.931   0.051  0.00  0.00    -0.294 N 
ATOM      9  H   UNL     1      -0.940   6.707   0.045  0.00  0.00    +0.163 HD
ATOM     10  H   UNL     1      -2.361   7.976   0.059  0.00  0.00    +0.163 HD
ENDBRANCH   6   8
BRANCH   1  12
ATOM     11  C   UNL     1      -7.040   8.362   0.079  0.00  0.00    +0.141 C 
ATOM     12  N   UNL     1      -6.387   7.241   0.070  0.00  0.00    -0.187 NA
BRANCH  11  15
ATOM     13  N   UNL     1     -10.612   9.018   0.096  0.00  0.00    -0.268 N 
ATOM     14  C   UNL     1      -9.338   9.461   0.094  0.00  0.00    +0.118 A 
ATOM     15  C   UNL     1      -8.517   8.355   0.085  0.00  0.00    +0.032 A 
ATOM     16  C   UNL     1      -9.348   7.215   0.076  0.00  0.00    +0.143 A 
ATOM     17  N   UNL     1     -10.591   7.618   0.088  0.00  0.00    -0.179 NA
BRANCH  13  19
ATOM     18  C   UNL     1     -12.153  10.244   1.545  0.00  0.00    +0.032 C 
ATOM     19  C   UNL     1     -11.812   9.857   0.105  0.00  0.00    +0.101 C 
ATOM     20  C   UNL     1     -11.556  11.122  -0.717  0.00  0.00    +0.032 C 
ENDBRANCH  13  19
ENDBRANCH  11  15
ENDBRANCH   1  12
BRANCH   5  21
ATOM     21  S   UNL     1      -1.024   3.867   0.028  0.00  0.00    -0.075 S 
BRANCH  21  22
ATOM     22  C   UNL     1      -1.331   2.079   0.020  0.00  0.00    +0.173 C 
BRANCH  22  23
ATOM     23  C   UNL     1      -0.016   1.344   0.009  0.00  0.00    +0.228 C 
ATOM     24  O   UNL     1       1.026   1.964   0.003  0.00  0.00    -0.275 OA
ATOM     25  N   UNL     1       0.002  -0.004   0.002  0.00  0.00    -0.279 N 
ATOM     26  H   UNL     1      -0.943  -0.567   0.008  0.00  0.00    +0.155 HD
BRANCH  25  27
ATOM     27  C   UNL     1       1.212  -0.681  -0.013  0.00  0.00    +0.086 A 
ATOM     28  C   UNL     1       1.434  -2.052  -0.017  0.00  0.00    +0.091 A 
ATOM     29  C   UNL     1       2.813  -2.508  -0.039  0.00  0.00    -0.021 A 
ATOM     30  C   UNL     1       3.743  -1.528  -0.042  0.00  0.00    -0.004 A 
ATOM     31  S   UNL     1       2.814  -0.021  -0.024  0.00  0.00    -0.077 S 
ATOM     32  C   UNL     1       5.231  -1.696  -0.055  0.00  0.00    +0.043 C 
ATOM     33  C   UNL     1       5.558  -3.151   0.312  0.00  0.00    +0.005 C 
ATOM     34  C   UNL     1       4.672  -4.081  -0.522  0.00  0.00    +0.005 C 
ATOM     35  C   UNL     1       3.220  -3.976  -0.051  0.00  0.00    +0.037 C 
BRANCH  28  36
ATOM     36  C   UNL     1       0.319  -3.002  -0.004  0.00  0.00    +0.342 C 
ATOM     37  O   UNL     1      -0.156  -3.396  -1.052  0.00  0.00    -0.245 OA
BRANCH  36  38
ATOM     38  O   UNL     1      -0.179  -3.440   1.170  0.00  0.00    -0.464 OA
ATOM     39  C   UNL     1      -1.284  -4.380   1.107  0.00  0.00    +0.280 C 
ENDBRANCH  36  38
ENDBRANCH  28  36
ENDBRANCH  25  27
ENDBRANCH  22  23
ENDBRANCH  21  22
ENDBRANCH   5  21
TORSDOF 10
