REMARK  Name = ZINC08017256
REMARK  8 active torsions:
REMARK  status: ('A' for Active; 'I' for Inactive)
REMARK    1  A    between atoms: C_1  and  C_2
REMARK    2  A    between atoms: C_9  and  N_14
REMARK    3  A    between atoms: C_15  and  C_17
REMARK    4  A    between atoms: C_18  and  C_19
REMARK    5  A    between atoms: C_21  and  O_27
REMARK    6  A    between atoms: C_23  and  O_25
REMARK    7  A    between atoms: O_25  and  C_26
REMARK    8  A    between atoms: O_27  and  C_28
REMARK                            x       y       z     vdW  Elec       q    Type
REMARK                         _______ _______ _______ _____ _____    ______ ____
ROOT
ATOM      1  N   UNL     1       1.178  -0.662  -0.013  0.00  0.00    -0.282 N 
ATOM      2  C   UNL     1       0.005  -0.016  -0.165  0.00  0.00    +0.241 C 
ATOM      3  O   UNL     1      -1.023  -0.649  -0.314  0.00  0.00    -0.270 OA
ATOM      4  H   UNL     1       2.007  -0.160   0.029  0.00  0.00    +0.155 HD
ENDROOT
BRANCH   1  12
ATOM      5  C   UNL     1       0.460  -8.248   1.332  0.00  0.00    +0.062 C 
ATOM      6  C   UNL     1       0.653  -6.744   1.537  0.00  0.00    +0.256 C 
ATOM      7  C   UNL     1      -0.687  -6.092   1.766  0.00  0.00    +0.258 C 
ATOM      8  O   UNL     1      -1.592  -6.722   2.272  0.00  0.00    -0.271 OA
ATOM      9  N   UNL     1      -0.876  -4.804   1.406  0.00  0.00    -0.279 N 
ATOM     10  C   UNL     1       0.176  -4.109   0.793  0.00  0.00    +0.077 A 
ATOM     11  C   UNL     1       0.152  -2.727   0.703  0.00  0.00    +0.050 A 
ATOM     12  C   UNL     1       1.200  -2.058   0.085  0.00  0.00    +0.036 A 
ATOM     13  C   UNL     1       2.274  -2.773  -0.431  0.00  0.00    +0.027 A 
ATOM     14  C   UNL     1       2.300  -4.152  -0.336  0.00  0.00    +0.049 A 
ATOM     15  C   UNL     1       1.255  -4.824   0.274  0.00  0.00    +0.143 A 
ATOM     16  O   UNL     1       1.269  -6.180   0.377  0.00  0.00    -0.478 OA
ATOM     17  H   UNL     1      -1.726  -4.367   1.570  0.00  0.00    +0.155 HD
ENDBRANCH   1  12
BRANCH   2  18
ATOM     18  C   UNL     1      -0.031   1.448  -0.152  0.00  0.00    +0.068 C 
ATOM     19  C   UNL     1      -1.204   2.094  -0.310  0.00  0.00    +0.013 C 
BRANCH  19  20
ATOM     20  C   UNL     1      -1.240   3.566  -0.296  0.00  0.00    -0.018 A 
ATOM     21  C   UNL     1      -0.062   4.295  -0.114  0.00  0.00    +0.053 A 
ATOM     22  C   UNL     1      -0.101   5.679  -0.108  0.00  0.00    +0.124 A 
ATOM     23  C   UNL     1      -1.310   6.342  -0.271  0.00  0.00    +0.091 A 
ATOM     24  C   UNL     1      -2.483   5.623  -0.447  0.00  0.00    +0.124 A 
ATOM     25  C   UNL     1      -2.455   4.239  -0.460  0.00  0.00    +0.053 A 
BRANCH  24  26
ATOM     26  O   UNL     1      -3.663   6.278  -0.606  0.00  0.00    -0.495 OA
ATOM     27  C   UNL     1      -3.620   7.706  -0.582  0.00  0.00    +0.277 C 
ENDBRANCH  24  26
BRANCH  22  28
ATOM     28  O   UNL     1       1.044   6.390   0.064  0.00  0.00    -0.495 OA
ATOM     29  C   UNL     1       0.930   7.814   0.066  0.00  0.00    +0.277 C 
ENDBRANCH  22  28
ENDBRANCH  19  20
ENDBRANCH   2  18
TORSDOF 5
