REMARK  Name = ZINC12425820
REMARK  9 active torsions:
REMARK  status: ('A' for Active; 'I' for Inactive)
REMARK    1  A    between atoms: C_1  and  C_2
REMARK    2  A    between atoms: C_2  and  C_4
REMARK    3  A    between atoms: C_2  and  O_20
REMARK    4  A    between atoms: N_6  and  C_7
REMARK    5  A    between atoms: C_7  and  C_8
REMARK    6  A    between atoms: N_10  and  C_11
REMARK    7  A    between atoms: O_20  and  C_21
REMARK    8  A    between atoms: C_21  and  C_23
REMARK    9  A    between atoms: C_23  and  C_24
REMARK                            x       y       z     vdW  Elec       q    Type
REMARK                         _______ _______ _______ _____ _____    ______ ____
ROOT
ATOM      1  C   UNL     1      -5.776   3.555   1.383  0.00  0.00    +0.062 C 
ATOM      2  C   UNL     1      -5.951   2.600   0.201  0.00  0.00    +0.258 C 
ENDROOT
BRANCH   2   3
ATOM      3  C   UNL     1      -4.843   1.578   0.211  0.00  0.00    +0.254 C 
ATOM      4  O   UNL     1      -5.107   0.398   0.302  0.00  0.00    -0.272 OA
ATOM      5  N   UNL     1      -3.559   1.976   0.120  0.00  0.00    -0.304 N 
ATOM      6  H   UNL     1      -3.347   2.921   0.048  0.00  0.00    +0.149 HD
BRANCH   5   7
ATOM      7  C   UNL     1      -2.482   0.984   0.131  0.00  0.00    +0.200 C 
BRANCH   7   8
ATOM      8  C   UNL     1      -1.152   1.684   0.018  0.00  0.00    +0.234 C 
ATOM      9  O   UNL     1      -1.108   2.893  -0.063  0.00  0.00    -0.274 OA
ATOM     10  N   UNL     1      -0.011   0.966   0.007  0.00  0.00    -0.282 N 
ATOM     11  H   UNL     1      -0.048  -0.003  -0.011  0.00  0.00    +0.155 HD
BRANCH  10  12
ATOM     12  C   UNL     1       1.228   1.620   0.017  0.00  0.00    +0.072 A 
ATOM     13  C   UNL     1       1.334   2.901   0.540  0.00  0.00    +0.029 A 
ATOM     14  C   UNL     1       2.556   3.545   0.550  0.00  0.00    +0.043 A 
ATOM     15  C   UNL     1       3.678   2.914   0.039  0.00  0.00    +0.161 A 
ATOM     16  C   UNL     1       3.577   1.634  -0.484  0.00  0.00    +0.195 A 
ATOM     17  C   UNL     1       2.355   0.984  -0.491  0.00  0.00    +0.182 A 
ATOM     18  F   UNL     1       2.256  -0.266  -0.996  0.00  0.00    -0.200 F 
ATOM     19  F   UNL     1       4.672   1.020  -0.983  0.00  0.00    -0.199 F 
ATOM     20  F   UNL     1       4.872   3.546   0.051  0.00  0.00    -0.202 F 
ENDBRANCH  10  12
ENDBRANCH   7   8
ENDBRANCH   5   7
ENDBRANCH   2   3
BRANCH   2  21
ATOM     21  O   UNL     1      -7.232   1.925   0.309  0.00  0.00    -0.452 OA
BRANCH  21  22
ATOM     22  C   UNL     1      -8.285   2.518  -0.276  0.00  0.00    +0.309 C 
ATOM     23  O   UNL     1      -8.140   3.566  -0.861  0.00  0.00    -0.251 OA
BRANCH  22  24
ATOM     24  C   UNL     1      -9.646   1.877  -0.205  0.00  0.00    +0.144 C 
BRANCH  24  25
ATOM     25  C   UNL     1     -10.661   2.750  -0.947  0.00  0.00    +0.148 C 
ATOM     26  C   UNL     1     -11.999   2.058  -0.976  0.00  0.00    +0.231 C 
ATOM     27  O   UNL     1     -12.310   1.444  -1.974  0.00  0.00    -0.274 OA
ATOM     28  N   UNL     1     -12.854   2.095   0.046  0.00  0.00    -0.284 N 
ATOM     29  C   UNL     1     -12.724   2.838   1.216  0.00  0.00    +0.047 A 
ATOM     30  C   UNL     1     -13.500   2.504   2.322  0.00  0.00    +0.024 A 
ATOM     31  C   UNL     1     -13.374   3.213   3.500  0.00  0.00    +0.002 A 
ATOM     32  C   UNL     1     -12.477   4.262   3.595  0.00  0.00    +0.001 A 
ATOM     33  C   UNL     1     -11.703   4.607   2.503  0.00  0.00    +0.016 A 
ATOM     34  C   UNL     1     -11.827   3.900   1.318  0.00  0.00    +0.030 A 
ATOM     35  S   UNL     1     -10.846   4.340  -0.084  0.00  0.00    -0.110 S 
ATOM     36  H   UNL     1     -13.650   1.546  -0.034  0.00  0.00    +0.155 HD
ENDBRANCH  24  25
ENDBRANCH  22  24
ENDBRANCH  21  22
ENDBRANCH   2  21
TORSDOF 8
