REMARK  Name = ZINC15289103
REMARK  4 active torsions:
REMARK  status: ('A' for Active; 'I' for Inactive)
REMARK    1  A    between atoms: C_1  and  C_2
REMARK    2  A    between atoms: C_7  and  C_13
REMARK    3  A    between atoms: C_13  and  N_14
REMARK    4  A    between atoms: N_14  and  C_15
REMARK                            x       y       z     vdW  Elec       q    Type
REMARK                         _______ _______ _______ _____ _____    ______ ____
ROOT
ATOM      1  C   UNL     1       2.506   1.065  -0.016  0.00  0.00    +0.045 C 
ATOM      2  C   UNL     1       1.189   1.798   0.000  0.00  0.00    -0.034 A 
ATOM      3  C   UNL     1      -0.013   1.076   0.008  0.00  0.00    +0.008 A 
ATOM      4  C   UNL     1      -1.199   1.746   0.017  0.00  0.00    +0.047 A 
ATOM      5  C   UNL     1      -1.199   3.152   0.030  0.00  0.00    +0.141 A 
ATOM      6  N   UNL     1      -2.358   3.809   0.043  0.00  0.00    -0.232 NA
ATOM      7  C   UNL     1      -2.400   5.132   0.051  0.00  0.00    +0.066 A 
ATOM      8  C   UNL     1      -1.227   5.862   0.044  0.00  0.00    +0.095 A 
ATOM      9  C   UNL     1      -0.005   5.179   0.030  0.00  0.00    +0.259 A 
ATOM     10  O   UNL     1       1.049   5.794   0.024  0.00  0.00    -0.267 OA
ATOM     11  N   UNL     1      -0.011   3.829   0.023  0.00  0.00    -0.268 N 
ATOM     12  C   UNL     1       1.169   3.150   0.008  0.00  0.00    +0.099 A 
ENDROOT
BRANCH   7  13
ATOM     13  C   UNL     1      -3.729   5.843   0.067  0.00  0.00    +0.157 C 
BRANCH  13  14
ATOM     14  N   UNL     1      -4.446   5.566  -1.180  0.00  0.00    -0.337 N 
ATOM     15  H   UNL     1      -4.044   4.997  -1.855  0.00  0.00    +0.146 HD
BRANCH  14  16
ATOM     16  C   UNL     1      -5.711   6.120  -1.397  0.00  0.00    +0.047 A 
ATOM     17  C   UNL     1      -6.288   6.934  -0.431  0.00  0.00    +0.044 A 
ATOM     18  C   UNL     1      -7.539   7.481  -0.649  0.00  0.00    +0.043 A 
ATOM     19  C   UNL     1      -8.215   7.218  -1.828  0.00  0.00    +0.021 A 
ATOM     20  C   UNL     1      -7.643   6.407  -2.791  0.00  0.00    +0.023 A 
ATOM     21  C   UNL     1      -6.390   5.862  -2.582  0.00  0.00    +0.062 A 
ATOM     22 CL   UNL     1      -5.669   4.851  -3.795  0.00  0.00    -0.082 Cl
ATOM     23 CL   UNL     1      -8.262   8.498   0.557  0.00  0.00    -0.083 Cl
ENDBRANCH  14  16
ENDBRANCH  13  14
ENDBRANCH   7  13
TORSDOF 3
