REMARK  Name = ZINC63266023
REMARK  5 active torsions:
REMARK  status: ('A' for Active; 'I' for Inactive)
REMARK    1  A    between atoms: C_6  and  S_10
REMARK    2  A    between atoms: S_10  and  C_11
REMARK    3  A    between atoms: C_11  and  C_12
REMARK    4  A    between atoms: N_14  and  C_15
REMARK    5  A    between atoms: C_21  and  N_25
REMARK                            x       y       z     vdW  Elec       q    Type
REMARK                         _______ _______ _______ _____ _____    ______ ____
ROOT
ATOM      1  C   UNL     1       3.395  -2.604   4.122  0.00  0.00    +0.225 C 
ATOM      2  O   UNL     1       4.085  -3.602   4.121  0.00  0.00    -0.275 OA
ATOM      3  N   UNL     1       3.003  -2.057   5.289  0.00  0.00    -0.288 N 
ATOM      4  H   UNL     1       2.452  -1.259   5.290  0.00  0.00    +0.151 HD
ENDROOT
BRANCH   3   5
ATOM      5  C   UNL     1       3.409  -2.668   6.557  0.00  0.00    +0.224 C 
ATOM      6  N   UNL     1       3.116  -1.779   7.690  0.00  0.00    -0.316 N 
ATOM      7  C   UNL     1       2.216  -2.236   8.651  0.00  0.00    +0.043 A 
ATOM      8  C   UNL     1       1.816  -1.528   9.799  0.00  0.00    +0.026 A 
ATOM      9  C   UNL     1       0.919  -2.068  10.691  0.00  0.00    +0.034 A 
ATOM     10  C   UNL     1       0.379  -3.325  10.490  0.00  0.00    +0.127 A 
ATOM     11  C   UNL     1       0.755  -4.044   9.368  0.00  0.00    +0.049 A 
ATOM     12  C   UNL     1       1.653  -3.504   8.476  0.00  0.00    +0.034 A 
ATOM     13  S   UNL     1       2.355  -4.118   6.960  0.00  0.00    -0.082 S 
ATOM     14  H   UNL     1       3.534  -0.907   7.766  0.00  0.00    +0.149 HD
BRANCH  10  15
ATOM     15  N   UNL     1      -0.585  -3.893  11.458  0.00  0.00    +0.056 N 
ATOM     16  O   UNL     1      -0.907  -3.256  12.435  0.00  0.00    -0.126 OA
ATOM     17  O   UNL     1      -1.052  -4.992  11.273  0.00  0.00    -0.126 OA
ENDBRANCH  10  15
ENDBRANCH   3   5
BRANCH   1  18
ATOM     18  C   UNL     1       2.977  -1.976   2.817  0.00  0.00    +0.168 C 
BRANCH  18  19
ATOM     19  S   UNL     1       3.658  -2.937   1.437  0.00  0.00    -0.106 S 
BRANCH  19  25
ATOM     20  C   UNL     1      -0.016   1.344   0.009  0.00  0.00    +0.002 A 
ATOM     21  C   UNL     1       1.158   2.118   0.002  0.00  0.00    +0.002 A 
ATOM     22  C   UNL     1       2.389   1.570  -0.013  0.00  0.00    +0.027 A 
ATOM     23  C   UNL     1       2.533   0.108  -0.022  0.00  0.00    +0.061 A 
ATOM     24  N   UNL     1       3.569  -0.680  -0.036  0.00  0.00    -0.355 N 
ATOM     25  C   UNL     1       3.071  -2.062  -0.039  0.00  0.00    +0.236 C 
ATOM     26  N   UNL     1       1.606  -1.974  -0.024  0.00  0.00    -0.355 N 
ATOM     27  C   UNL     1       1.290  -0.712  -0.014  0.00  0.00    +0.061 A 
ATOM     28  C   UNL     1       0.002  -0.004   0.002  0.00  0.00    +0.027 A 
ATOM     29  H   UNL     1       4.499  -0.405  -0.045  0.00  0.00    +0.162 HD
ATOM     30  H   UNL     1       0.987  -2.721  -0.022  0.00  0.00    +0.162 HD
ENDBRANCH  19  25
ENDBRANCH  18  19
ENDBRANCH   1  18
TORSDOF 5
