REMARK  Name = ZINC37085703
REMARK  3 active torsions:
REMARK  status: ('A' for Active; 'I' for Inactive)
REMARK    1  A    between atoms: C_3  and  N_13
REMARK    2  A    between atoms: C_4  and  N_8
REMARK    3  A    between atoms: N_13  and  C_14
REMARK                            x       y       z     vdW  Elec       q    Type
REMARK                         _______ _______ _______ _____ _____    ______ ____
ROOT
ATOM      1  C   UNL     1      -0.062   1.290  -0.012  0.00  0.00    +0.003 A 
ATOM      2  C   UNL     1       1.069   2.085   0.009  0.00  0.00    +0.025 A 
ATOM      3  C   UNL     1       2.328   1.501   0.016  0.00  0.00    +0.055 A 
ATOM      4  C   UNL     1       2.447   0.111   0.001  0.00  0.00    +0.106 A 
ATOM      5  C   UNL     1       1.306  -0.678  -0.020  0.00  0.00    +0.068 A 
ATOM      6  C   UNL     1       0.056  -0.087  -0.027  0.00  0.00    +0.022 A 
ATOM      7 CL   UNL     1       1.449  -2.409  -0.040  0.00  0.00    -0.081 Cl
ENDROOT
BRANCH   4   8
ATOM      8  N   UNL     1       3.717  -0.486   0.008  0.00  0.00    -0.217 N 
ATOM      9  C   UNL     1       4.156  -1.458  -0.815  0.00  0.00    +0.225 A 
ATOM     10  N   UNL     1       5.391  -1.740  -0.486  0.00  0.00    -0.222 NA
ATOM     11  C   UNL     1       5.773  -0.974   0.535  0.00  0.00    +0.245 A 
ATOM     12  N   UNL     1       4.784  -0.185   0.869  0.00  0.00    -0.153 NA
ENDBRANCH   4   8
BRANCH   3  13
ATOM     13  N   UNL     1       3.472   2.302   0.038  0.00  0.00    -0.339 N 
ATOM     14  H   UNL     1       4.349   1.893   0.101  0.00  0.00    +0.146 HD
BRANCH  13  15
ATOM     15  C   UNL     1       3.347   3.760  -0.036  0.00  0.00    +0.075 C 
ATOM     16  C   UNL     1       3.262   4.194  -1.502  0.00  0.00    +0.050 C 
ATOM     17  C   UNL     1       3.211   5.723  -1.572  0.00  0.00    +0.161 C 
ATOM     18  O   UNL     1       4.365   6.266  -0.928  0.00  0.00    -0.380 OA
ATOM     19  C   UNL     1       4.472   5.933   0.457  0.00  0.00    +0.161 C 
ATOM     20  C   UNL     1       4.574   4.413   0.608  0.00  0.00    +0.050 C 
ENDBRANCH  13  15
ENDBRANCH   3  13
TORSDOF 3
