REMARK  Name = ZINC02433474
REMARK  9 active torsions:
REMARK  status: ('A' for Active; 'I' for Inactive)
REMARK    1  A    between atoms: C_1  and  C_2
REMARK    2  A    between atoms: N_8  and  C_9
REMARK    3  A    between atoms: C_9  and  C_10
REMARK    4  A    between atoms: C_10  and  C_11
REMARK    5  A    between atoms: C_14  and  O_17
REMARK    6  A    between atoms: O_17  and  C_18
REMARK    7  A    between atoms: C_19  and  C_27
REMARK    8  A    between atoms: C_21  and  C_25
REMARK    9  A    between atoms: C_22  and  N_24
REMARK                            x       y       z     vdW  Elec       q    Type
REMARK                         _______ _______ _______ _____ _____    ______ ____
ROOT
ATOM      1  C   UNL     1       5.675   2.633  -1.581  0.00  0.00    +0.064 C 
ATOM      2  C   UNL     1       4.521   1.757  -1.168  0.00  0.00    +0.022 A 
ATOM      3  C   UNL     1       3.360   2.326  -0.776  0.00  0.00    +0.068 A 
ATOM      4  C   UNL     1       2.276   1.511  -0.389  0.00  0.00    +0.141 A 
ATOM      5  C   UNL     1       2.427   0.141  -0.419  0.00  0.00    +0.072 A 
ATOM      6  C   UNL     1       3.650  -0.405  -0.832  0.00  0.00    +0.259 A 
ATOM      7  O   UNL     1       3.798  -1.616  -0.864  0.00  0.00    -0.267 OA
ATOM      8  N   UNL     1       4.661   0.406  -1.195  0.00  0.00    -0.312 N 
ATOM      9  C   UNL     1       1.298  -0.766  -0.013  0.00  0.00    +0.106 C 
ATOM     10  C   UNL     1       0.002  -0.004   0.002  0.00  0.00    +0.098 C 
ATOM     11  C   UNL     1      -0.016   1.350   0.009  0.00  0.00    +0.199 C 
ATOM     12  O   UNL     1       1.115   2.076   0.003  0.00  0.00    -0.441 OA
ENDROOT
BRANCH   9  13
ATOM     13  C   UNL     1       1.569  -1.318   1.362  0.00  0.00    +0.001 A 
ATOM     14  C   UNL     1       1.698  -0.460   2.438  0.00  0.00    +0.007 A 
ATOM     15  C   UNL     1       1.947  -0.966   3.700  0.00  0.00    +0.000 A 
ATOM     16  C   UNL     1       2.067  -2.330   3.888  0.00  0.00    +0.003 A 
ATOM     17  C   UNL     1       1.939  -3.190   2.814  0.00  0.00    +0.038 A 
ATOM     18  C   UNL     1       1.685  -2.685   1.550  0.00  0.00    +0.127 A 
ATOM     19  F   UNL     1       1.554  -3.525   0.500  0.00  0.00    -0.205 F 
ENDBRANCH   9  13
BRANCH  11  20
ATOM     20  N   UNL     1      -1.225   1.999   0.019  0.00  0.00    -0.328 N 
ATOM     21  H   UNL     1      -1.259   3.099   0.025  0.00  0.00    +0.145 HD
ATOM     22  H   UNL     1      -2.161   1.421   0.020  0.00  0.00    +0.145 HD
ENDBRANCH  11  20
BRANCH  10  23
ATOM     23  C   UNL     1      -1.236  -0.724   0.009  0.00  0.00    +0.101 C 
ATOM     24  N   UNL     1      -2.218  -1.294   0.015  0.00  0.00    -0.191 NA
ENDBRANCH  10  23
BRANCH   8  25
ATOM     25  C   UNL     1       5.934  -0.178  -1.625  0.00  0.00    +0.130 C 
BRANCH  25  26
ATOM     26  C   UNL     1       6.848  -0.359  -0.411  0.00  0.00    +0.057 C 
BRANCH  26  27
ATOM     27  C   UNL     1       8.158  -0.960  -0.854  0.00  0.00    -0.045 A 
ATOM     28  C   UNL     1       8.313  -2.334  -0.880  0.00  0.00    +0.007 A 
ATOM     29  C   UNL     1       9.511  -2.887  -1.291  0.00  0.00    +0.046 A 
ATOM     30  C   UNL     1      10.561  -2.062  -1.667  0.00  0.00    +0.120 A 
ATOM     31  C   UNL     1      10.404  -0.684  -1.635  0.00  0.00    +0.046 A 
ATOM     32  C   UNL     1       9.203  -0.136  -1.228  0.00  0.00    +0.007 A 
BRANCH  30  33
ATOM     33  O   UNL     1      11.742  -2.604  -2.066  0.00  0.00    -0.495 OA
ATOM     34  C   UNL     1      11.832  -4.030  -2.075  0.00  0.00    +0.277 C 
ENDBRANCH  30  33
ENDBRANCH  26  27
ENDBRANCH  25  26
ENDBRANCH   8  25
TORSDOF 7
