REMARK  Name = ZINC39439067
REMARK  8 active torsions:
REMARK  status: ('A' for Active; 'I' for Inactive)
REMARK    1  A    between atoms: C_1  and  C_2
REMARK    2  A    between atoms: C_4  and  C_32
REMARK    3  A    between atoms: C_8  and  C_12
REMARK    4  A    between atoms: C_12  and  S_13
REMARK    5  A    between atoms: S_13  and  C_14
REMARK    6  A    between atoms: C_14  and  C_16
REMARK    7  A    between atoms: C_14  and  C_17
REMARK    8  A    between atoms: N_19  and  C_20
REMARK                            x       y       z     vdW  Elec       q    Type
REMARK                         _______ _______ _______ _____ _____    ______ ____
ROOT
ATOM      1  C   UNL     1      -3.992  -5.408   6.233  0.00  0.00    +0.130 C 
ATOM      2  C   UNL     1      -3.012  -6.578   6.335  0.00  0.00    +0.029 C 
ENDROOT
BRANCH   1   3
ATOM      3  C   UNL     1      -5.395  -5.905   6.471  0.00  0.00    +0.230 C 
ATOM      4  O   UNL     1      -6.101  -6.202   5.531  0.00  0.00    -0.274 OA
ATOM      5  N   UNL     1      -5.864  -6.020   7.729  0.00  0.00    -0.285 N 
ATOM      6  H   UNL     1      -5.276  -5.856   8.483  0.00  0.00    +0.155 HD
BRANCH   5   7
ATOM      7  C   UNL     1      -7.202  -6.376   7.948  0.00  0.00    +0.035 A 
ATOM      8  C   UNL     1      -7.544  -7.137   9.058  0.00  0.00    +0.027 A 
ATOM      9  C   UNL     1      -8.862  -7.491   9.278  0.00  0.00    +0.049 A 
ATOM     10  C   UNL     1      -9.844  -7.086   8.391  0.00  0.00    +0.142 A 
ATOM     11  C   UNL     1      -9.503  -6.322   7.275  0.00  0.00    +0.077 A 
ATOM     12  C   UNL     1      -8.184  -5.963   7.058  0.00  0.00    +0.050 A 
ATOM     13  N   UNL     1     -10.510  -5.921   6.385  0.00  0.00    -0.280 N 
ATOM     14  C   UNL     1     -11.800  -6.003   6.776  0.00  0.00    +0.255 C 
ATOM     15  O   UNL     1     -12.689  -5.690   6.012  0.00  0.00    -0.272 OA
ATOM     16  C   UNL     1     -12.132  -6.484   8.166  0.00  0.00    +0.325 C 
ATOM     17  O   UNL     1     -11.146  -7.426   8.596  0.00  0.00    -0.481 OA
ATOM     18  H   UNL     1     -10.283  -5.590   5.502  0.00  0.00    +0.155 HD
ENDBRANCH   5   7
ENDBRANCH   1   3
BRANCH   1  19
ATOM     19  S   UNL     1      -3.885  -4.672   4.578  0.00  0.00    -0.141 S 
BRANCH  19  20
ATOM     20  C   UNL     1      -2.203  -3.995   4.507  0.00  0.00    +0.143 C 
BRANCH  20  27
ATOM     21  C   UNL     1       0.094   0.550  -0.757  0.00  0.00    +0.024 C 
ATOM     22  C   UNL     1       0.153  -0.965  -0.551  0.00  0.00    +0.076 C 
ATOM     23  C   UNL     1      -1.237  -1.549  -0.435  0.00  0.00    -0.045 C 
ATOM     24  C   UNL     1      -1.565  -2.158   0.714  0.00  0.00    +0.071 C 
ATOM     25  C   UNL     1      -0.541  -2.211   1.779  0.00  0.00    +0.111 C 
ATOM     26  N   UNL     1      -0.801  -2.792   2.926  0.00  0.00    -0.227 NA
ATOM     27  C   UNL     1      -1.979  -3.346   3.166  0.00  0.00    +0.133 C 
ATOM     28  N   UNL     1      -2.962  -3.360   2.297  0.00  0.00    -0.161 NA
ATOM     29  C   UNL     1      -2.861  -2.812   1.081  0.00  0.00    +0.271 C 
ATOM     30  O   UNL     1      -3.794  -2.844   0.297  0.00  0.00    -0.268 OA
ATOM     31  S   UNL     1       0.870  -1.378   1.091  0.00  0.00    -0.098 S 
ATOM     32  C   UNL     1      -2.220  -1.451  -1.573  0.00  0.00    +0.041 C 
ENDBRANCH  20  27
ENDBRANCH  19  20
ENDBRANCH   1  19
TORSDOF 5
