REMARK  Name = ZINC25278931
REMARK  8 active torsions:
REMARK  status: ('A' for Active; 'I' for Inactive)
REMARK    1  A    between atoms: C_1  and  C_2
REMARK    2  A    between atoms: C_12  and  C_14
REMARK    3  A    between atoms: C_14  and  C_16
REMARK    4  A    between atoms: C_14  and  N_19
REMARK    5  A    between atoms: C_16  and  C_17
REMARK    6  A    between atoms: C_16  and  C_18
REMARK    7  A    between atoms: N_19  and  S_20
REMARK    8  A    between atoms: S_20  and  C_23
REMARK                            x       y       z     vdW  Elec       q    Type
REMARK                         _______ _______ _______ _____ _____    ______ ____
ROOT
ATOM      1  C   UNL     1      -3.494   3.398   6.554  0.00  0.00    +0.165 C 
ENDROOT
BRANCH   1  12
ATOM      2  C   UNL     1      -1.246   1.954  -3.104  0.00  0.00    +0.008 C 
ATOM      3  C   UNL     1      -1.923   2.098  -1.739  0.00  0.00    -0.009 C 
ATOM      4  C   UNL     1      -2.125   3.582  -1.421  0.00  0.00    +0.010 C 
ATOM      5  C   UNL     1      -3.014   3.739  -0.186  0.00  0.00    +0.056 C 
ATOM      6  C   UNL     1      -2.431   2.903   0.947  0.00  0.00    +0.054 A 
ATOM      7  C   UNL     1      -1.547   1.906   0.678  0.00  0.00    +0.015 A 
ATOM      8  S   UNL     1      -1.181   1.263   2.289  0.00  0.00    -0.057 S 
ATOM      9  C   UNL     1      -2.207   2.343   3.186  0.00  0.00    +0.165 A 
ATOM     10  N   UNL     1      -2.733   3.083   2.230  0.00  0.00    -0.229 NA
ATOM     11  N   UNL     1      -2.419   2.408   4.558  0.00  0.00    -0.263 N 
ATOM     12  C   UNL     1      -3.264   3.327   5.067  0.00  0.00    +0.238 C 
ATOM     13  O   UNL     1      -3.838   4.098   4.327  0.00  0.00    -0.274 OA
ATOM     14  C   UNL     1      -1.030   1.478  -0.653  0.00  0.00    +0.047 C 
ATOM     15  H   UNL     1      -1.899   1.709   5.229  0.00  0.00    +0.157 HD
ENDBRANCH   1  12
BRANCH   1  16
ATOM     16  C   UNL     1      -2.168   3.682   7.263  0.00  0.00    +0.010 C 
ATOM     17  C   UNL     1      -1.619   5.032   6.796  0.00  0.00    +0.009 C 
ATOM     18  C   UNL     1      -2.396   3.720   8.775  0.00  0.00    +0.009 C 
ENDBRANCH   1  16
BRANCH   1  19
ATOM     19  N   UNL     1      -4.446   4.471   6.851  0.00  0.00    -0.178 NA
ATOM     20  H   UNL     1      -4.079   5.475   7.111  0.00  0.00    +0.149 HD
BRANCH  19  21
ATOM     21  S   UNL     1      -6.054   4.123   7.039  0.00  0.00    +0.059 S 
ATOM     22  O   UNL     1      -6.704   5.353   7.331  0.00  0.00    -0.153 OA
ATOM     23  O   UNL     1      -6.425   3.309   5.935  0.00  0.00    -0.153 OA
BRANCH  21  24
ATOM     24  C   UNL     1      -6.205   3.119   8.479  0.00  0.00    +0.109 A 
ATOM     25  C   UNL     1      -6.049   1.749   8.383  0.00  0.00    +0.032 A 
ATOM     26  C   UNL     1      -6.161   0.955   9.510  0.00  0.00    +0.051 A 
ATOM     27  C   UNL     1      -6.441   1.537  10.735  0.00  0.00    +0.162 A 
ATOM     28  C   UNL     1      -6.603   2.912  10.830  0.00  0.00    +0.164 A 
ATOM     29  C   UNL     1      -6.485   3.704   9.701  0.00  0.00    +0.078 A 
ATOM     30  O   UNL     1      -6.877   3.476  12.042  0.00  0.00    -0.488 OA
ATOM     31  C   UNL     1      -8.163   3.181  12.592  0.00  0.00    +0.232 C 
ATOM     32  C   UNL     1      -8.139   1.857  13.338  0.00  0.00    +0.082 C 
ATOM     33  C   UNL     1      -7.869   0.677  12.418  0.00  0.00    +0.232 C 
ATOM     34  O   UNL     1      -6.559   0.765  11.854  0.00  0.00    -0.488 OA
ENDBRANCH  21  24
ENDBRANCH  19  21
ENDBRANCH   1  19
TORSDOF 5
