REMARK  Name = ZINC48564927
REMARK  7 active torsions:
REMARK  status: ('A' for Active; 'I' for Inactive)
REMARK    1  A    between atoms: C_1  and  C_2
REMARK    2  A    between atoms: C_2  and  C_4
REMARK    3  A    between atoms: C_2  and  N_17
REMARK    4  A    between atoms: N_9  and  C_10
REMARK    5  A    between atoms: C_10  and  C_11
REMARK    6  A    between atoms: C_20  and  C_23
REMARK    7  A    between atoms: C_23  and  N_24
REMARK                            x       y       z     vdW  Elec       q    Type
REMARK                         _______ _______ _______ _____ _____    ______ ____
ROOT
ATOM      1  C   UNL     1      -0.248   1.323   0.162  0.00  0.00    -0.004 C 
ATOM      2  C   UNL     1      -0.102   0.020  -0.625  0.00  0.00    +0.017 C 
ENDROOT
BRANCH   2   3
ATOM      3  C   UNL     1      -1.421  -0.709  -0.639  0.00  0.00    +0.207 C 
ATOM      4  O   UNL     1      -1.671  -1.526   0.221  0.00  0.00    -0.277 OA
ATOM      5  N   UNL     1      -2.322  -0.453  -1.608  0.00  0.00    -0.242 N 
ATOM      6  C   UNL     1      -3.502  -1.104  -1.620  0.00  0.00    +0.306 C 
ATOM      7  O   UNL     1      -3.753  -1.923  -0.758  0.00  0.00    -0.252 OA
ATOM      8  N   UNL     1      -4.403  -0.848  -2.589  0.00  0.00    -0.297 N 
ATOM      9  H   UNL     1      -2.122   0.201  -2.296  0.00  0.00    +0.159 HD
ATOM     10  H   UNL     1      -4.203  -0.194  -3.277  0.00  0.00    +0.150 HD
BRANCH   8  11
ATOM     11  C   UNL     1      -5.685  -1.556  -2.602  0.00  0.00    +0.137 C 
BRANCH  11  12
ATOM     12  C   UNL     1      -6.517  -1.084  -3.796  0.00  0.00    +0.135 C 
ATOM     13  C   UNL     1      -7.916  -1.734  -3.751  0.00  0.00    +0.035 C 
ATOM     14  C   UNL     1      -8.184  -2.044  -5.249  0.00  0.00    +0.031 C 
ATOM     15  C   UNL     1      -6.754  -2.382  -5.740  0.00  0.00    +0.160 C 
ATOM     16  O   UNL     1      -5.888  -1.490  -5.018  0.00  0.00    -0.375 OA
ENDBRANCH  11  12
ENDBRANCH   8  11
ENDBRANCH   2   3
BRANCH   2  17
ATOM     17  N   UNL     1       0.918  -0.825   0.011  0.00  0.00    +0.387 N 
ATOM     18  C   UNL     1       1.085  -2.058  -0.768  0.00  0.00    -0.078 C 
ATOM     19  C   UNL     1       2.087  -2.977  -0.066  0.00  0.00    -0.017 C 
ATOM     20  C   UNL     1       3.434  -2.259   0.052  0.00  0.00    -0.031 C 
ATOM     21  C   UNL     1       3.234  -0.939   0.801  0.00  0.00    -0.017 C 
ATOM     22  C   UNL     1       2.190  -0.095   0.068  0.00  0.00    -0.078 C 
ATOM     23  H   UNL     1       0.623  -1.058   0.947  0.00  0.00    -0.081 HD
BRANCH  20  24
ATOM     24  C   UNL     1       4.418  -3.141   0.823  0.00  0.00    -0.076 C 
BRANCH  24  25
ATOM     25  N   UNL     1       5.737  -2.496   0.850  0.00  0.00    +0.380 N 
ATOM     26  C   UNL     1       6.240  -2.387  -0.534  0.00  0.00    -0.079 C 
ATOM     27  C   UNL     1       7.227  -1.248  -0.591  0.00  0.00    -0.019 C 
ATOM     28  C   UNL     1       8.675  -1.750  -0.444  0.00  0.00    -0.002 C 
ATOM     29  C   UNL     1       8.792  -2.857   0.624  0.00  0.00    -0.002 C 
ATOM     30  C   UNL     1       7.961  -2.565   1.847  0.00  0.00    -0.019 C 
ATOM     31  C   UNL     1       6.578  -3.230   1.688  0.00  0.00    -0.079 C 
ATOM     32  H   UNL     1       5.635  -1.566   1.229  0.00  0.00    -0.082 HD
ENDBRANCH  24  25
ENDBRANCH  20  24
ENDBRANCH   2  17
TORSDOF 6
