REMARK  Name = ZINC22635790
REMARK  6 active torsions:
REMARK  status: ('A' for Active; 'I' for Inactive)
REMARK    1  A    between atoms: C_1  and  C_2
REMARK    2  A    between atoms: C_2  and  N_3
REMARK    3  A    between atoms: C_11  and  O_24
REMARK    4  A    between atoms: C_13  and  C_16
REMARK    5  A    between atoms: C_20  and  C_23
REMARK    6  A    between atoms: C_21  and  O_22
REMARK                            x       y       z     vdW  Elec       q    Type
REMARK                         _______ _______ _______ _____ _____    ______ ____
ROOT
ATOM      1  N   UNL     1       2.472  -0.054  -6.913  0.00  0.00    +0.383 N 
ATOM      2  C   UNL     1       3.787   0.481  -6.533  0.00  0.00    -0.074 C 
ATOM      3  C   UNL     1       3.678   1.258  -5.218  0.00  0.00    +0.018 C 
ATOM      4  C   UNL     1       2.986   0.366  -4.193  0.00  0.00    -0.027 A 
ATOM      5  C   UNL     1       2.280  -0.715  -4.606  0.00  0.00    -0.021 A 
ATOM      6  S   UNL     1       1.667  -1.453  -3.116  0.00  0.00    -0.080 S 
ATOM      7  C   UNL     1       2.333  -0.357  -1.983  0.00  0.00    +0.080 A 
ATOM      8  C   UNL     1       3.022   0.583  -2.760  0.00  0.00    +0.067 A 
ATOM      9  C   UNL     1       3.708   1.688  -2.041  0.00  0.00    +0.220 C 
ATOM     10  N   UNL     1       3.463   1.829  -0.768  0.00  0.00    -0.223 NA
ATOM     11  C   UNL     1       2.490   1.047  -0.017  0.00  0.00    +0.227 C 
ATOM     12  N   UNL     1       2.287  -0.287  -0.611  0.00  0.00    -0.313 N 
ATOM     13  C   UNL     1       2.081  -1.161  -6.020  0.00  0.00    -0.035 C 
ATOM     14  H   UNL     1       2.111  -1.158   0.038  0.00  0.00    +0.149 HD
ATOM     15  H   UNL     1       1.732   0.754  -6.807  0.00  0.00    -0.081 HD
ENDROOT
BRANCH  11  16
ATOM     16  C   UNL     1       1.175   1.782   0.000  0.00  0.00    +0.036 A 
ATOM     17  C   UNL     1      -0.013   1.076   0.008  0.00  0.00    +0.011 A 
ATOM     18  C   UNL     1      -1.219   1.750   0.017  0.00  0.00    +0.001 A 
ATOM     19  C   UNL     1      -1.242   3.133   0.031  0.00  0.00    +0.007 A 
ATOM     20  C   UNL     1      -0.057   3.844   0.023  0.00  0.00    -0.009 A 
ATOM     21  C   UNL     1       1.155   3.169   0.008  0.00  0.00    +0.127 A 
ATOM     22  C   UNL     1      -0.082   5.350   0.032  0.00  0.00    +0.047 C 
BRANCH  21  23
ATOM     23  O   UNL     1       2.322   3.866   0.001  0.00  0.00    -0.506 OA
ATOM     24  H   UNL     1       2.305   4.966   0.007  0.00  0.00    +0.292 HD
ENDBRANCH  21  23
ENDBRANCH  11  16
BRANCH   1  26
ATOM     25  C   UNL     1       1.031  -0.806  -8.745  0.00  0.00    -0.017 C 
ATOM     26  C   UNL     1       2.464  -0.483  -8.318  0.00  0.00    -0.082 C 
ENDBRANCH   1  26
BRANCH   9  27
ATOM     27  O   UNL     1       4.558   2.519  -2.686  0.00  0.00    -0.492 OA
ATOM     28  H   UNL     1       5.056   3.332  -2.136  0.00  0.00    +0.294 HD
ENDBRANCH   9  27
TORSDOF 4
