REMARK  Name = ZINC39782160
REMARK  8 active torsions:
REMARK  status: ('A' for Active; 'I' for Inactive)
REMARK    1  A    between atoms: C_1  and  C_2
REMARK    2  A    between atoms: C_2  and  C_30
REMARK    3  A    between atoms: N_5  and  C_9
REMARK    4  A    between atoms: C_9  and  C_10
REMARK    5  A    between atoms: C_10  and  S_11
REMARK    6  A    between atoms: S_11  and  C_12
REMARK    7  A    between atoms: C_16  and  C_21
REMARK    8  A    between atoms: N_17  and  C_18
REMARK                            x       y       z     vdW  Elec       q    Type
REMARK                         _______ _______ _______ _____ _____    ______ ____
ROOT
ATOM      1  C   UNL     1       6.500  -0.525  -2.881  0.00  0.00    +0.237 C 
ATOM      2  N   UNL     1       6.810  -0.073  -1.515  0.00  0.00    -0.237 N 
ATOM      3  N   UNL     1       6.706   1.323  -1.525  0.00  0.00    -0.169 NA
ATOM      4  C   UNL     1       6.376   1.766  -2.710  0.00  0.00    +0.147 C 
ATOM      5  N   UNL     1       6.225   0.716  -3.623  0.00  0.00    -0.282 N 
ATOM      6  H   UNL     1       7.041  -0.632  -0.756  0.00  0.00    +0.171 HD
ENDROOT
BRANCH   4   7
ATOM      7  C   UNL     1       6.196   3.121  -3.026  0.00  0.00    +0.022 C 
ATOM      8  C   UNL     1       6.426   4.219  -2.196  0.00  0.00    +0.006 A 
ATOM      9  C   UNL     1       6.881   4.328  -0.865  0.00  0.00    +0.010 A 
ATOM     10  C   UNL     1       7.014   5.555  -0.297  0.00  0.00    +0.001 A 
ATOM     11  C   UNL     1       6.711   6.723  -1.000  0.00  0.00    +0.002 A 
ATOM     12  C   UNL     1       6.269   6.692  -2.282  0.00  0.00    +0.026 A 
ATOM     13  C   UNL     1       6.105   5.447  -2.942  0.00  0.00    +0.043 A 
ATOM     14  N   UNL     1       5.699   5.153  -4.161  0.00  0.00    -0.380 N 
ATOM     15  C   UNL     1       5.719   3.698  -4.341  0.00  0.00    +0.152 C 
ATOM     16  H   UNL     1       5.433   5.798  -4.835  0.00  0.00    +0.160 HD
ENDBRANCH   4   7
BRANCH   5  17
ATOM     17  C   UNL     1       5.863   0.827  -5.039  0.00  0.00    +0.078 C 
ATOM     18  C   UNL     1       5.671  -0.472  -5.823  0.00  0.00    +0.024 C 
ATOM     19  C   UNL     1       6.907   0.395  -6.071  0.00  0.00    +0.024 C 
ENDBRANCH   5  17
BRANCH   1  20
ATOM     20  S   UNL     1       5.039  -1.600  -2.877  0.00  0.00    -0.116 S 
BRANCH  20  21
ATOM     21  C   UNL     1       3.747  -0.581  -2.113  0.00  0.00    +0.092 C 
BRANCH  21  22
ATOM     22  C   UNL     1       2.442  -1.378  -2.047  0.00  0.00    +0.129 C 
BRANCH  22  27
ATOM     23  C   UNL     1      -0.150   2.417  -1.073  0.00  0.00    +0.041 C 
ATOM     24  C   UNL     1      -0.329   0.897  -1.078  0.00  0.00    +0.107 C 
ATOM     25  C   UNL     1       0.571   0.258  -2.116  0.00  0.00    +0.246 C 
ATOM     26  O   UNL     1       0.552   0.440  -3.315  0.00  0.00    -0.273 OA
ATOM     27  N   UNL     1       1.399  -0.555  -1.430  0.00  0.00    -0.223 N 
ATOM     28  C   UNL     1       1.149  -0.518  -0.116  0.00  0.00    +0.309 C 
ATOM     29  O   UNL     1       1.764  -1.167   0.707  0.00  0.00    -0.252 OA
ATOM     30  N   UNL     1       0.140   0.316   0.192  0.00  0.00    -0.285 N 
ATOM     31  C   UNL     1      -1.793   0.530  -1.331  0.00  0.00    +0.041 C 
ATOM     32  H   UNL     1      -0.211   0.499   1.077  0.00  0.00    +0.151 HD
ENDBRANCH  22  27
ENDBRANCH  21  22
ENDBRANCH  20  21
ENDBRANCH   1  20
TORSDOF 6
