REMARK  Name = ZINC04736622
REMARK  5 active torsions:
REMARK  status: ('A' for Active; 'I' for Inactive)
REMARK    1  A    between atoms: C_1  and  C_2
REMARK    2  A    between atoms: C_7  and  C_24
REMARK    3  A    between atoms: C_13  and  C_18
REMARK    4  A    between atoms: C_27  and  O_30
REMARK    5  A    between atoms: O_30  and  C_31
REMARK                            x       y       z     vdW  Elec       q    Type
REMARK                         _______ _______ _______ _____ _____    ______ ____
ROOT
ATOM      1  C   UNL     1      -0.018   1.503   0.010  0.00  0.00    +0.090 C 
ATOM      2  C   UNL     1       0.002  -0.004   0.002  0.00  0.00    +0.150 A 
ATOM      3  N   UNL     1       0.008  -0.773  -1.092  0.00  0.00    -0.198 NA
ATOM      4  C   UNL     1       0.024  -2.029  -0.742  0.00  0.00    +0.219 A 
ATOM      5  N   UNL     1       0.035  -2.087   0.613  0.00  0.00    -0.221 N 
ATOM      6  N   UNL     1       0.023  -0.769   1.066  0.00  0.00    -0.153 NA
ATOM      7  C   UNL     1       0.064  -3.337   1.362  0.00  0.00    +0.175 C 
ATOM      8  C   UNL     1      -0.263  -4.496   0.446  0.00  0.00    +0.041 C 
ATOM      9  C   UNL     1      -0.257  -4.373  -0.898  0.00  0.00    +0.020 C 
ATOM     10  N   UNL     1       0.029  -3.179  -1.515  0.00  0.00    -0.287 N 
ATOM     11  C   UNL     1      -0.564  -5.556  -1.786  0.00  0.00    +0.060 C 
ATOM     12  C   UNL     1      -1.556  -6.483  -1.083  0.00  0.00    +0.032 C 
ATOM     13  C   UNL     1      -0.936  -6.936   0.243  0.00  0.00    +0.088 C 
ATOM     14  C   UNL     1      -0.581  -5.723   1.057  0.00  0.00    +0.164 C 
ATOM     15  O   UNL     1      -0.567  -5.804   2.269  0.00  0.00    -0.292 OA
ATOM     16  H   UNL     1       0.229  -3.142  -2.464  0.00  0.00    +0.155 HD
ENDROOT
BRANCH  12  17
ATOM     17  C   UNL     1      -1.833  -7.684  -1.951  0.00  0.00    -0.044 A 
ATOM     18  C   UNL     1      -0.800  -8.527  -2.314  0.00  0.00    +0.004 A 
ATOM     19  C   UNL     1      -1.054  -9.628  -3.111  0.00  0.00    +0.000 A 
ATOM     20  C   UNL     1      -2.341  -9.886  -3.544  0.00  0.00    +0.000 A 
ATOM     21  C   UNL     1      -3.374  -9.043  -3.180  0.00  0.00    +0.000 A 
ATOM     22  C   UNL     1      -3.121  -7.944  -2.380  0.00  0.00    +0.004 A 
ENDBRANCH  12  17
BRANCH   7  23
ATOM     23  C   UNL     1       1.438  -3.537   1.948  0.00  0.00    -0.018 A 
ATOM     24  C   UNL     1       2.539  -3.614   1.115  0.00  0.00    +0.009 A 
ATOM     25  C   UNL     1       3.799  -3.797   1.650  0.00  0.00    +0.046 A 
ATOM     26  C   UNL     1       3.959  -3.905   3.024  0.00  0.00    +0.120 A 
ATOM     27  C   UNL     1       2.853  -3.828   3.857  0.00  0.00    +0.046 A 
ATOM     28  C   UNL     1       1.595  -3.638   3.318  0.00  0.00    +0.009 A 
BRANCH  26  29
ATOM     29  O   UNL     1       5.198  -4.087   3.552  0.00  0.00    -0.495 OA
ATOM     30  C   UNL     1       5.288  -4.189   4.975  0.00  0.00    +0.277 C 
ENDBRANCH  26  29
ENDBRANCH   7  23
TORSDOF 3
