REMARK  Name = ZINC39675914
REMARK  10 active torsions:
REMARK  status: ('A' for Active; 'I' for Inactive)
REMARK    1  A    between atoms: C_1  and  C_2
REMARK    2  A    between atoms: C_3  and  C_8
REMARK    3  A    between atoms: C_4  and  C_7
REMARK    4  A    between atoms: C_12  and  C_21
REMARK    5  A    between atoms: N_23  and  C_24
REMARK    6  A    between atoms: C_24  and  C_25
REMARK    7  A    between atoms: C_25  and  C_27
REMARK    8  A    between atoms: C_25  and  N_33
REMARK    9  A    between atoms: N_33  and  C_34
REMARK   10  A    between atoms: N_33  and  C_35
REMARK                            x       y       z     vdW  Elec       q    Type
REMARK                         _______ _______ _______ _____ _____    ______ ____
ROOT
ATOM      1  C   UNL     1       0.153   1.120  -2.339  0.00  0.00    +0.252 C 
ATOM      2  O   UNL     1       1.145   1.542  -2.901  0.00  0.00    -0.270 OA
ATOM      3  N   UNL     1      -1.038   1.136  -2.970  0.00  0.00    -0.296 N 
ATOM      4  C   UNL     1      -2.347   0.675  -2.452  0.00  0.00    +0.121 C 
ATOM      5  C   UNL     1      -3.362   1.717  -2.974  0.00  0.00    +0.100 C 
ATOM      6  C   UNL     1      -2.691   2.330  -4.215  0.00  0.00    -0.004 C 
ATOM      7  C   UNL     1      -1.334   1.623  -4.339  0.00  0.00    +0.115 C 
ATOM      8  C   UNL     1      -2.483   3.829  -4.016  0.00  0.00    -0.010 C 
ATOM      9  C   UNL     1      -1.867   4.426  -5.285  0.00  0.00    -0.082 C 
ATOM     10  N   UNL     1      -2.759   4.182  -6.425  0.00  0.00    +0.379 N 
ATOM     11  C   UNL     1      -2.880   2.739  -6.667  0.00  0.00    -0.082 C 
ATOM     12  C   UNL     1      -3.539   2.071  -5.457  0.00  0.00    -0.010 C 
ATOM     13  H   UNL     1      -3.670   4.566  -6.226  0.00  0.00    -0.086 HD
ATOM     14  H   UNL     1      -2.381   4.628  -7.247  0.00  0.00    -0.086 HD
ENDROOT
BRANCH   1  17
ATOM     15  C   UNL     1      -0.193   2.826   0.391  0.00  0.00    +0.070 C 
ATOM     16  C   UNL     1       0.097   1.352   0.275  0.00  0.00    +0.093 A 
ATOM     17  C   UNL     1       0.252   0.592  -0.966  0.00  0.00    +0.101 A 
ATOM     18  C   UNL     1       0.505  -0.702  -0.608  0.00  0.00    +0.147 A 
ATOM     19  O   UNL     1       0.513  -0.768   0.726  0.00  0.00    -0.359 OA
ATOM     20  N   UNL     1       0.263   0.518   1.258  0.00  0.00    -0.083 NA
ATOM     21  C   UNL     1       0.736  -1.853  -1.553  0.00  0.00    +0.090 C 
ENDBRANCH   1  17
BRANCH   5  22
ATOM     22  C   UNL     1      -4.656   1.044  -3.353  0.00  0.00    +0.218 C 
ATOM     23  O   UNL     1      -4.649  -0.096  -3.765  0.00  0.00    -0.275 OA
ATOM     24  N   UNL     1      -5.822   1.711  -3.234  0.00  0.00    -0.316 N 
ATOM     25  H   UNL     1      -5.828   2.623  -2.904  0.00  0.00    +0.149 HD
BRANCH  24  26
ATOM     26  C   UNL     1      -7.080   1.057  -3.602  0.00  0.00    +0.093 C 
BRANCH  26  27
ATOM     27  C   UNL     1      -8.229   2.062  -3.491  0.00  0.00    -0.021 C 
BRANCH  27  28
ATOM     28  C   UNL     1      -8.027   3.167  -4.496  0.00  0.00    -0.059 A 
ATOM     29  C   UNL     1      -8.378   2.972  -5.818  0.00  0.00    +0.002 A 
ATOM     30  C   UNL     1      -8.194   3.986  -6.739  0.00  0.00    +0.000 A 
ATOM     31  C   UNL     1      -7.658   5.195  -6.338  0.00  0.00    +0.000 A 
ATOM     32  C   UNL     1      -7.308   5.391  -5.015  0.00  0.00    +0.000 A 
ATOM     33  C   UNL     1      -7.496   4.378  -4.093  0.00  0.00    +0.002 A 
ENDBRANCH  27  28
BRANCH  27  34
ATOM     34  N   UNL     1      -9.502   1.382  -3.761  0.00  0.00    +0.382 N 
ATOM     35  C   UNL     1      -9.719   0.332  -2.756  0.00  0.00    -0.096 C 
ATOM     36  C   UNL     1     -10.601   2.355  -3.696  0.00  0.00    -0.096 C 
ATOM     37  H   UNL     1      -9.474   0.967  -4.680  0.00  0.00    -0.082 HD
ENDBRANCH  27  34
ENDBRANCH  26  27
ENDBRANCH  24  26
ENDBRANCH   5  22
TORSDOF 6
