REMARK  Name = ZINC39630566
REMARK  12 active torsions:
REMARK  status: ('A' for Active; 'I' for Inactive)
REMARK    1  A    between atoms: C_1  and  C_2
REMARK    2  A    between atoms: C_2  and  C_3
REMARK    3  A    between atoms: C_2  and  C_4
REMARK    4  A    between atoms: C_8  and  C_17
REMARK    5  A    between atoms: N_19  and  C_20
REMARK    6  A    between atoms: C_20  and  C_21
REMARK    7  A    between atoms: C_21  and  C_22
REMARK    8  A    between atoms: C_21  and  C_23
REMARK    9  A    between atoms: C_21  and  C_24
REMARK   10  A    between atoms: C_24  and  N_25
REMARK   11  A    between atoms: N_25  and  C_26
REMARK   12  A    between atoms: N_25  and  C_27
REMARK                            x       y       z     vdW  Elec       q    Type
REMARK                         _______ _______ _______ _____ _____    ______ ____
ROOT
ATOM      1  C   UNL     1      -2.681  -0.342   0.362  0.00  0.00    +0.218 C 
ATOM      2  O   UNL     1      -3.642   0.398   0.406  0.00  0.00    -0.275 OA
ATOM      3  N   UNL     1      -2.852  -1.675   0.463  0.00  0.00    -0.300 N 
ATOM      4  C   UNL     1      -1.806  -2.721   0.541  0.00  0.00    +0.121 C 
ATOM      5  C   UNL     1      -2.349  -3.740   1.569  0.00  0.00    +0.100 C 
ATOM      6  C   UNL     1      -3.874  -3.542   1.548  0.00  0.00    -0.004 C 
ATOM      7  C   UNL     1      -4.129  -2.425   0.526  0.00  0.00    +0.115 C 
ATOM      8  C   UNL     1      -4.567  -4.829   1.111  0.00  0.00    -0.010 C 
ATOM      9  C   UNL     1      -6.085  -4.625   1.155  0.00  0.00    -0.082 C 
ATOM     10  N   UNL     1      -6.493  -4.265   2.518  0.00  0.00    +0.379 N 
ATOM     11  C   UNL     1      -5.894  -2.979   2.896  0.00  0.00    -0.082 C 
ATOM     12  C   UNL     1      -4.369  -3.113   2.926  0.00  0.00    -0.010 C 
ATOM     13  H   UNL     1      -7.498  -4.191   2.558  0.00  0.00    -0.086 HD
ATOM     14  H   UNL     1      -6.185  -4.979   3.160  0.00  0.00    -0.086 HD
ENDROOT
BRANCH   5  15
ATOM     15  C   UNL     1      -1.797  -3.446   2.940  0.00  0.00    +0.218 C 
ATOM     16  O   UNL     1      -1.458  -2.318   3.229  0.00  0.00    -0.275 OA
ATOM     17  N   UNL     1      -1.681  -4.438   3.846  0.00  0.00    -0.315 N 
ATOM     18  H   UNL     1      -1.952  -5.340   3.615  0.00  0.00    +0.149 HD
BRANCH  17  19
ATOM     19  C   UNL     1      -1.145  -4.153   5.179  0.00  0.00    +0.108 C 
BRANCH  19  20
ATOM     20  C   UNL     1      -1.119  -5.441   6.004  0.00  0.00    -0.034 C 
ATOM     21  C   UNL     1      -2.541  -5.993   6.133  0.00  0.00    +0.010 C 
ATOM     22  C   UNL     1      -0.232  -6.475   5.308  0.00  0.00    +0.010 C 
BRANCH  20  23
ATOM     23  C   UNL     1      -0.559  -5.143   7.397  0.00  0.00    -0.072 C 
BRANCH  23  24
ATOM     24  N   UNL     1      -0.481  -6.390   8.170  0.00  0.00    +0.376 N 
ATOM     25  C   UNL     1       0.795  -7.061   7.890  0.00  0.00    -0.097 C 
ATOM     26  C   UNL     1      -0.569  -6.083   9.604  0.00  0.00    -0.097 C 
ATOM     27  H   UNL     1      -1.244  -6.997   7.908  0.00  0.00    -0.083 HD
ENDBRANCH  23  24
ENDBRANCH  20  23
ENDBRANCH  19  20
ENDBRANCH  17  19
ENDBRANCH   5  15
BRANCH   1  29
ATOM     28  C   UNL     1      -1.003   0.426  -1.294  0.00  0.00    +0.017 C 
ATOM     29  C   UNL     1      -1.297   0.230   0.195  0.00  0.00    +0.069 C 
ATOM     30  C   UNL     1      -1.212   1.579   0.913  0.00  0.00    +0.017 C 
ENDBRANCH   1  29
TORSDOF 6
