REMARK  Name = ZINC16934062
REMARK  5 active torsions:
REMARK  status: ('A' for Active; 'I' for Inactive)
REMARK    1  A    between atoms: C_1  and  C_2
REMARK    2  A    between atoms: C_5  and  C_8
REMARK    3  A    between atoms: N_12  and  C_24
REMARK    4  A    between atoms: N_14  and  C_15
REMARK    5  A    between atoms: C_20  and  C_21
REMARK                            x       y       z     vdW  Elec       q    Type
REMARK                         _______ _______ _______ _____ _____    ______ ____
ROOT
ATOM      1  C   UNL     1       5.029  -1.724  -0.408  0.00  0.00    +0.028 C 
ATOM      2  C   UNL     1       3.762  -1.498  -0.836  0.00  0.00    +0.078 C 
ATOM      3  C   UNL     1       2.723  -2.466  -1.241  0.00  0.00    +0.259 C 
ATOM      4  O   UNL     1       2.929  -3.665  -1.227  0.00  0.00    -0.269 OA
ATOM      5  N   UNL     1       1.555  -1.969  -1.614  0.00  0.00    -0.249 N 
ATOM      6  C   UNL     1       1.342  -0.610  -1.629  0.00  0.00    +0.168 C 
ATOM      7  N   UNL     1       0.252   0.044  -1.974  0.00  0.00    -0.225 NA
ATOM      8  S   UNL     1       2.899   0.051  -1.059  0.00  0.00    -0.049 S 
ATOM      9  C   UNL     1       0.479  -2.876  -2.021  0.00  0.00    +0.140 C 
ENDROOT
BRANCH   1  14
ATOM     10  C   UNL     1       8.688   2.669   0.185  0.00  0.00    +0.044 C 
ATOM     11  C   UNL     1       7.729   1.517   0.029  0.00  0.00    -0.050 A 
ATOM     12  C   UNL     1       8.075   0.264   0.504  0.00  0.00    +0.004 A 
ATOM     13  C   UNL     1       7.203  -0.795   0.366  0.00  0.00    +0.008 A 
ATOM     14  C   UNL     1       5.965  -0.600  -0.256  0.00  0.00    -0.024 A 
ATOM     15  C   UNL     1       5.625   0.669  -0.738  0.00  0.00    +0.008 A 
ATOM     16  C   UNL     1       6.506   1.718  -0.588  0.00  0.00    +0.004 A 
ENDBRANCH   1  14
BRANCH   7  17
ATOM     17  C   UNL     1       0.185   1.393  -1.805  0.00  0.00    +0.081 A 
ATOM     18  C   UNL     1       0.671   1.981  -0.632  0.00  0.00    +0.028 A 
ATOM     19  C   UNL     1       0.601   3.346  -0.468  0.00  0.00    +0.002 A 
ATOM     20  C   UNL     1       0.050   4.148  -1.457  0.00  0.00    +0.001 A 
ATOM     21  C   UNL     1      -0.435   3.592  -2.620  0.00  0.00    +0.017 A 
ATOM     22  C   UNL     1      -0.369   2.210  -2.814  0.00  0.00    +0.088 A 
BRANCH  22  23
ATOM     23  C   UNL     1      -0.879   1.611  -4.056  0.00  0.00    +0.389 C 
ATOM     24  O   UNL     1      -0.824   0.407  -4.217  0.00  0.00    -0.241 OA
ATOM     25  O   UNL     1      -1.407   2.396  -5.016  0.00  0.00    -0.241 OA
ENDBRANCH  22  23
ENDBRANCH   7  17
TORSDOF 3
