REMARK  Name = ZINC67295531
REMARK  5 active torsions:
REMARK  status: ('A' for Active; 'I' for Inactive)
REMARK    1  A    between atoms: C_1  and  C_2
REMARK    2  A    between atoms: C_5  and  N_9
REMARK    3  A    between atoms: C_11  and  C_20
REMARK    4  A    between atoms: N_22  and  C_23
REMARK    5  A    between atoms: C_23  and  C_24
REMARK                            x       y       z     vdW  Elec       q    Type
REMARK                         _______ _______ _______ _____ _____    ______ ____
ROOT
ATOM      1  N   UNL     1       0.060  -4.144  -0.031  0.00  0.00    -0.325 N 
ATOM      2  C   UNL     1       0.878  -4.795   0.767  0.00  0.00    +0.212 A 
ATOM      3  C   UNL     1       0.843  -6.269   0.855  0.00  0.00    +0.097 A 
ATOM      4  C   UNL     1       2.018  -6.908   1.227  0.00  0.00    +0.030 A 
ATOM      5  C   UNL     1       3.186  -6.067   1.498  0.00  0.00    +0.018 A 
ATOM      6  C   UNL     1       4.463  -6.628   1.615  0.00  0.00    +0.011 A 
ATOM      7  C   UNL     1       5.537  -5.822   1.865  0.00  0.00    +0.001 A 
ATOM      8  C   UNL     1       5.373  -4.451   2.003  0.00  0.00    +0.004 A 
ATOM      9  C   UNL     1       4.122  -3.877   1.892  0.00  0.00    +0.047 A 
ATOM     10  C   UNL     1       3.017  -4.676   1.641  0.00  0.00    +0.137 A 
ATOM     11  O   UNL     1       1.784  -4.133   1.532  0.00  0.00    -0.439 OA
ATOM     12  H   UNL     1      -0.520  -4.634  -0.635  0.00  0.00    +0.169 HD
ENDROOT
BRANCH   1  17
ATOM     13  C   UNL     1      -0.073   1.499   0.049  0.00  0.00    +0.047 C 
ATOM     14  C   UNL     1      -0.037  -0.007   0.028  0.00  0.00    -0.015 A 
ATOM     15  C   UNL     1      -0.016  -0.679  -1.181  0.00  0.00    +0.008 A 
ATOM     16  C   UNL     1       0.016  -2.058  -1.208  0.00  0.00    +0.026 A 
ATOM     17  C   UNL     1       0.028  -2.777  -0.011  0.00  0.00    +0.045 A 
ATOM     18  C   UNL     1       0.007  -2.095   1.208  0.00  0.00    +0.064 A 
ATOM     19  C   UNL     1      -0.020  -0.714   1.220  0.00  0.00    +0.128 A 
ATOM     20  F   UNL     1      -0.035  -0.050   2.397  0.00  0.00    -0.205 F 
ENDBRANCH   1  17
BRANCH   3  21
ATOM     21  C   UNL     1      -0.385  -7.027   0.562  0.00  0.00    +0.250 C 
ATOM     22  O   UNL     1      -1.375  -6.448   0.155  0.00  0.00    -0.270 OA
ATOM     23  N   UNL     1      -0.413  -8.362   0.745  0.00  0.00    -0.304 N 
ATOM     24  H   UNL     1       0.350  -8.813   1.139  0.00  0.00    +0.149 HD
BRANCH  23  25
ATOM     25  C   UNL     1      -1.595  -9.131   0.348  0.00  0.00    +0.179 C 
BRANCH  25  26
ATOM     26  C   UNL     1      -1.372 -10.589   0.657  0.00  0.00    +0.122 A 
ATOM     27  C   UNL     1      -1.688 -11.207   1.810  0.00  0.00    +0.046 A 
ATOM     28  C   UNL     1      -1.309 -12.561   1.667  0.00  0.00    +0.041 A 
ATOM     29  C   UNL     1      -0.783 -12.690   0.435  0.00  0.00    +0.195 A 
ATOM     30  O   UNL     1      -0.829 -11.494  -0.174  0.00  0.00    -0.466 OA
ENDBRANCH  25  26
ENDBRANCH  23  25
ENDBRANCH   3  21
TORSDOF 4
