REMARK  Name = ZINC55183130
REMARK  8 active torsions:
REMARK  status: ('A' for Active; 'I' for Inactive)
REMARK    1  A    between atoms: C_1  and  N_2
REMARK    2  A    between atoms: C_3  and  C_23
REMARK    3  A    between atoms: C_6  and  C_7
REMARK    4  A    between atoms: C_7  and  N_8
REMARK    5  A    between atoms: C_11  and  C_14
REMARK    6  A    between atoms: C_14  and  C_16
REMARK    7  A    between atoms: C_14  and  O_22
REMARK    8  A    between atoms: C_23  and  C_24
REMARK                            x       y       z     vdW  Elec       q    Type
REMARK                         _______ _______ _______ _____ _____    ______ ____
ROOT
ATOM      1  C   UNL     1       0.032  -0.400   2.526  0.00  0.00    -0.001 C 
ENDROOT
BRANCH   1   2
ATOM      2  N   UNL     1      -1.350  -0.281   3.009  0.00  0.00    +0.384 N 
ATOM      3  C   UNL     1      -1.991  -1.601   2.987  0.00  0.00    -0.078 C 
ATOM      4  C   UNL     1      -3.454  -1.470   3.413  0.00  0.00    -0.012 C 
ATOM      5  C   UNL     1      -3.519  -0.893   4.830  0.00  0.00    +0.019 C 
ATOM      6  C   UNL     1      -2.783   0.450   4.858  0.00  0.00    -0.012 C 
ATOM      7  C   UNL     1      -1.344   0.247   4.379  0.00  0.00    -0.078 C 
ATOM      8  H   UNL     1      -1.862   0.349   2.409  0.00  0.00    -0.081 HD
BRANCH   5   9
ATOM      9  C   UNL     1      -4.980  -0.684   5.231  0.00  0.00    +0.147 C 
BRANCH   9  10
ATOM     10  C   UNL     1      -5.042  -0.117   6.626  0.00  0.00    -0.019 A 
ATOM     11  C   UNL     1      -4.937   1.248   6.822  0.00  0.00    +0.006 A 
ATOM     12  C   UNL     1      -4.993   1.768   8.102  0.00  0.00    +0.000 A 
ATOM     13  C   UNL     1      -5.155   0.925   9.185  0.00  0.00    +0.000 A 
ATOM     14  C   UNL     1      -5.261  -0.440   8.988  0.00  0.00    +0.000 A 
ATOM     15  C   UNL     1      -5.209  -0.960   7.709  0.00  0.00    +0.006 A 
ENDBRANCH   9  10
BRANCH   9  16
ATOM     16  O   UNL     1      -5.600   0.225   4.319  0.00  0.00    -0.387 OA
ATOM     17  H   UNL     1      -5.184   1.098   4.291  0.00  0.00    +0.210 HD
ENDBRANCH   9  16
ENDBRANCH   5   9
ENDBRANCH   1   2
BRANCH   1  23
ATOM     18  C   UNL     1      -0.018   1.461   0.010  0.00  0.00    +0.152 C 
ATOM     19  N   UNL     1       0.002  -0.004   0.002  0.00  0.00    -0.319 N 
ATOM     20  C   UNL     1       0.009  -0.813  -1.085  0.00  0.00    +0.133 A 
ATOM     21  N   UNL     1       0.027  -2.044  -0.652  0.00  0.00    -0.134 NA
ATOM     22  N   UNL     1       0.032  -2.051   0.634  0.00  0.00    -0.136 NA
ATOM     23  C   UNL     1       0.024  -0.825   1.080  0.00  0.00    +0.117 A 
BRANCH  20  24
ATOM     24  C   UNL     1      -0.004  -0.373  -2.526  0.00  0.00    +0.079 C 
BRANCH  24  25
ATOM     25  C   UNL     1       1.434  -0.204  -3.020  0.00  0.00    -0.007 C 
ATOM     26  C   UNL     1       2.105   0.945  -2.261  0.00  0.00    -0.015 C 
ATOM     27  C   UNL     1       3.515   1.161  -2.815  0.00  0.00    -0.082 C 
ATOM     28  N   UNL     1       3.438   1.494  -4.242  0.00  0.00    +0.379 N 
ATOM     29  C   UNL     1       2.862   0.368  -4.987  0.00  0.00    -0.082 C 
ATOM     30  C   UNL     1       1.427   0.122  -4.516  0.00  0.00    -0.015 C 
ATOM     31  H   UNL     1       2.857   2.310  -4.365  0.00  0.00    -0.086 HD
ATOM     32  H   UNL     1       4.365   1.688  -4.591  0.00  0.00    -0.086 HD
ENDBRANCH  24  25
ENDBRANCH  20  24
ENDBRANCH   1  23
TORSDOF 7
