REMARK  Name = ZINC11004330
REMARK  6 active torsions:
REMARK  status: ('A' for Active; 'I' for Inactive)
REMARK    1  A    between atoms: C_1  and  C_2
REMARK    2  A    between atoms: C_4  and  C_9
REMARK    3  A    between atoms: C_9  and  N_10
REMARK    4  A    between atoms: C_11  and  C_13
REMARK    5  A    between atoms: C_13  and  N_14
REMARK    6  A    between atoms: C_22  and  C_24
REMARK                            x       y       z     vdW  Elec       q    Type
REMARK                         _______ _______ _______ _____ _____    ______ ____
ROOT
ATOM      1  C   UNL     1       2.453   1.440  -0.013  0.00  0.00    +0.213 C 
ENDROOT
BRANCH   1   2
ATOM      2  N   UNL     1       1.088   1.971   0.002  0.00  0.00    -0.215 N 
ATOM      3  C   UNL     1       0.785   3.285   0.012  0.00  0.00    +0.247 C 
ATOM      4  O   UNL     1       1.561   4.217   0.010  0.00  0.00    -0.273 OA
ATOM      5  C   UNL     1      -0.725   3.352   0.027  0.00  0.00    +0.115 C 
ATOM      6  C   UNL     1      -1.237   4.066  -1.219  0.00  0.00    +0.035 C 
ATOM      7  C   UNL     1      -2.767   4.099  -1.199  0.00  0.00    +0.003 C 
ATOM      8  C   UNL     1      -3.244   4.828   0.059  0.00  0.00    +0.000 C 
ATOM      9  C   UNL     1      -2.743   4.086   1.300  0.00  0.00    +0.006 C 
ATOM     10  C   UNL     1      -1.213   4.053   1.290  0.00  0.00    +0.018 C 
ATOM     11  C   UNL     1      -0.712   3.293   2.520  0.00  0.00    +0.010 C 
ATOM     12  N   UNL     1      -1.144   1.945   0.018  0.00  0.00    -0.285 N 
ATOM     13  C   UNL     1      -0.014   1.211   0.009  0.00  0.00    +0.310 C 
ATOM     14  O   UNL     1       0.002  -0.004   0.002  0.00  0.00    -0.252 OA
ATOM     15  H   UNL     1      -2.054   1.610   0.019  0.00  0.00    +0.151 HD
ENDBRANCH   1   2
BRANCH   1  17
ATOM     16  N   UNL     1       4.141   0.787  -1.699  0.00  0.00    -0.310 N 
ATOM     17  C   UNL     1       2.909   1.266  -1.439  0.00  0.00    +0.231 C 
ATOM     18  O   UNL     1       2.166   1.556  -2.352  0.00  0.00    -0.274 OA
ATOM     19  H   UNL     1       4.736   0.555  -0.968  0.00  0.00    +0.149 HD
BRANCH  16  20
ATOM     20  C   UNL     1       4.584   0.617  -3.085  0.00  0.00    +0.139 C 
BRANCH  20  24
ATOM     21  C   UNL     1       7.715  -3.286  -3.134  0.00  0.00    +0.047 C 
ATOM     22  C   UNL     1       7.487  -1.796  -3.124  0.00  0.00    -0.015 A 
ATOM     23  C   UNL     1       6.199  -1.295  -3.109  0.00  0.00    +0.011 A 
ATOM     24  C   UNL     1       5.989   0.071  -3.100  0.00  0.00    -0.030 A 
ATOM     25  C   UNL     1       7.066   0.938  -3.111  0.00  0.00    +0.008 A 
ATOM     26  C   UNL     1       8.355   0.438  -3.121  0.00  0.00    +0.039 A 
ATOM     27  C   UNL     1       8.566  -0.930  -3.130  0.00  0.00    +0.126 A 
ATOM     28  F   UNL     1       9.825  -1.419  -3.144  0.00  0.00    -0.205 F 
ENDBRANCH  20  24
ENDBRANCH  16  20
ENDBRANCH   1  17
TORSDOF 4
