REMARK  Name = ZINC52635014
REMARK  6 active torsions:
REMARK  status: ('A' for Active; 'I' for Inactive)
REMARK    1  A    between atoms: N_4  and  C_8
REMARK    2  A    between atoms: C_11  and  C_14
REMARK    3  A    between atoms: N_16  and  C_17
REMARK    4  A    between atoms: C_17  and  C_18
REMARK    5  A    between atoms: C_18  and  N_19
REMARK    6  A    between atoms: C_20  and  C_22
REMARK                            x       y       z     vdW  Elec       q    Type
REMARK                         _______ _______ _______ _____ _____    ______ ____
ROOT
ATOM      1  C   UNL     1       7.324  -2.706  -0.083  0.00  0.00    +0.244 C 
ATOM      2  O   UNL     1       8.363  -2.082  -0.177  0.00  0.00    -0.270 OA
ATOM      3  N   UNL     1       7.352  -4.051   0.006  0.00  0.00    -0.310 N 
ATOM      4  H   UNL     1       6.523  -4.549   0.081  0.00  0.00    +0.149 HD
ENDROOT
BRANCH   1   8
ATOM      5  C   UNL     1       3.607  -0.650  -0.036  0.00  0.00    +0.049 A 
ATOM      6  C   UNL     1       4.795   0.066  -0.143  0.00  0.00    +0.027 A 
ATOM      7  C   UNL     1       6.002  -0.597  -0.158  0.00  0.00    +0.015 A 
ATOM      8  C   UNL     1       6.032  -1.991  -0.066  0.00  0.00    +0.037 A 
ATOM      9  C   UNL     1       4.837  -2.707   0.041  0.00  0.00    +0.015 A 
ATOM     10  C   UNL     1       3.634  -2.037   0.061  0.00  0.00    +0.027 A 
BRANCH   5  14
ATOM     11  C   UNL     1      -0.018   1.356   0.014  0.00  0.00    +0.007 A 
ATOM     12  C   UNL     1       0.674   1.090   1.204  0.00  0.00    +0.018 A 
ATOM     13  C   UNL     1       1.857   0.433   1.165  0.00  0.00    +0.095 A 
ATOM     14  N   UNL     1       2.385   0.026  -0.021  0.00  0.00    -0.284 N 
ATOM     15  C   UNL     1       1.744   0.268  -1.179  0.00  0.00    +0.256 A 
ATOM     16  O   UNL     1       2.231  -0.103  -2.235  0.00  0.00    -0.267 OA
ATOM     17  C   UNL     1       0.514   0.947  -1.174  0.00  0.00    +0.071 A 
ENDBRANCH   5  14
ENDBRANCH   1   8
BRANCH   3  18
ATOM     18  C   UNL     1       8.633  -4.760  -0.011  0.00  0.00    +0.123 C 
BRANCH  18  19
ATOM     19  C   UNL     1       8.385  -6.265   0.103  0.00  0.00    +0.123 C 
BRANCH  19  20
ATOM     20  N   UNL     1       9.667  -6.974   0.086  0.00  0.00    -0.310 N 
ATOM     21  C   UNL     1       9.694  -8.319   0.175  0.00  0.00    +0.244 C 
ATOM     22  O   UNL     1       8.656  -8.943   0.269  0.00  0.00    -0.270 OA
ATOM     23  H   UNL     1      10.496  -6.476   0.011  0.00  0.00    +0.149 HD
BRANCH  21  24
ATOM     24  C   UNL     1      10.990  -9.036   0.158  0.00  0.00    +0.039 A 
ATOM     25  C   UNL     1      12.181  -8.286   0.054  0.00  0.00    +0.014 A 
ATOM     26  C   UNL     1      13.393  -8.882   0.033  0.00  0.00    +0.012 A 
ATOM     27  C   UNL     1      13.475 -10.344   0.121  0.00  0.00    +0.014 A 
ATOM     28  C   UNL     1      14.524 -11.205   0.125  0.00  0.00    +0.047 C 
ATOM     29  C   UNL     1      13.928 -12.590   0.241  0.00  0.00    +0.161 C 
ATOM     30  N   UNL     1      12.475 -12.398   0.299  0.00  0.00    -0.379 N 
ATOM     31  C   UNL     1      12.217 -11.114   0.230  0.00  0.00    +0.045 A 
ATOM     32  C   UNL     1      10.990 -10.394   0.249  0.00  0.00    +0.039 A 
ATOM     33 CL   UNL     1      16.209 -10.799   0.018  0.00  0.00    -0.086 Cl
ATOM     34  H   UNL     1      11.814 -13.104   0.375  0.00  0.00    +0.160 HD
ENDBRANCH  21  24
ENDBRANCH  19  20
ENDBRANCH  18  19
ENDBRANCH   3  18
TORSDOF 6
