REMARK  Name = ZINC09336852
REMARK  6 active torsions:
REMARK  status: ('A' for Active; 'I' for Inactive)
REMARK    1  A    between atoms: C_1  and  C_2
REMARK    2  A    between atoms: C_2  and  C_4
REMARK    3  A    between atoms: C_2  and  N_20
REMARK    4  A    between atoms: N_6  and  C_7
REMARK    5  A    between atoms: N_20  and  S_21
REMARK    6  A    between atoms: S_21  and  C_24
REMARK                            x       y       z     vdW  Elec       q    Type
REMARK                         _______ _______ _______ _____ _____    ______ ____
ROOT
ATOM      1  C   UNL     1      -3.848  -1.719  -0.993  0.00  0.00    +0.035 C 
ATOM      2  C   UNL     1      -3.661  -0.843   0.248  0.00  0.00    +0.159 C 
ENDROOT
BRANCH   2   3
ATOM      3  C   UNL     1      -2.374  -0.067   0.126  0.00  0.00    +0.236 C 
ATOM      4  O   UNL     1      -2.395   1.146   0.133  0.00  0.00    -0.274 OA
ATOM      5  N   UNL     1      -1.202  -0.721   0.010  0.00  0.00    -0.284 N 
ATOM      6  H   UNL     1      -1.191  -1.688  -0.063  0.00  0.00    +0.155 HD
BRANCH   5   7
ATOM      7  C   UNL     1       0.002  -0.003  -0.006  0.00  0.00    +0.037 A 
ATOM      8  C   UNL     1       1.138  -0.541   0.582  0.00  0.00    +0.027 A 
ATOM      9  C   UNL     1       2.327   0.164   0.568  0.00  0.00    +0.051 A 
ATOM     10  C   UNL     1       2.386   1.409  -0.033  0.00  0.00    +0.167 A 
ATOM     11  C   UNL     1       1.246   1.952  -0.625  0.00  0.00    +0.169 A 
ATOM     12  C   UNL     1       0.057   1.246  -0.610  0.00  0.00    +0.072 A 
ATOM     13  O   UNL     1       1.572   3.180  -1.141  0.00  0.00    -0.447 OA
ATOM     14  C   UNL     1       2.998   3.124  -1.285  0.00  0.00    +0.254 C 
ATOM     15  O   UNL     1       3.416   2.301  -0.185  0.00  0.00    -0.448 OA
ATOM     16  C   UNL     1       3.620   4.522  -1.201  0.00  0.00    +0.093 C 
ATOM     17  C   UNL     1       4.816   4.458  -2.187  0.00  0.00    +0.008 C 
ATOM     18  C   UNL     1       4.268   3.579  -3.340  0.00  0.00    +0.008 C 
ATOM     19  C   UNL     1       3.403   2.515  -2.627  0.00  0.00    +0.093 C 
ENDBRANCH   5   7
ENDBRANCH   2   3
BRANCH   2  20
ATOM     20  N   UNL     1      -4.785   0.090   0.361  0.00  0.00    -0.178 NA
ATOM     21  H   UNL     1      -4.767   0.931  -0.121  0.00  0.00    +0.149 HD
BRANCH  20  22
ATOM     22  S   UNL     1      -6.085  -0.292   1.312  0.00  0.00    +0.059 S 
ATOM     23  O   UNL     1      -6.981   0.808   1.236  0.00  0.00    -0.153 OA
ATOM     24  O   UNL     1      -6.471  -1.614   0.961  0.00  0.00    -0.153 OA
BRANCH  22  25
ATOM     25  C   UNL     1      -5.511  -0.360   2.977  0.00  0.00    +0.109 A 
ATOM     26  C   UNL     1      -5.047  -1.554   3.497  0.00  0.00    +0.032 A 
ATOM     27  C   UNL     1      -4.590  -1.614   4.801  0.00  0.00    +0.051 A 
ATOM     28  C   UNL     1      -4.609  -0.475   5.588  0.00  0.00    +0.162 A 
ATOM     29  C   UNL     1      -5.080   0.722   5.068  0.00  0.00    +0.164 A 
ATOM     30  C   UNL     1      -5.532   0.780   3.760  0.00  0.00    +0.078 A 
ATOM     31  O   UNL     1      -5.094   1.839   5.852  0.00  0.00    -0.488 OA
ATOM     32  C   UNL     1      -6.020   1.827   6.941  0.00  0.00    +0.232 C 
ATOM     33  C   UNL     1      -5.422   1.122   8.148  0.00  0.00    +0.082 C 
ATOM     34  C   UNL     1      -5.162  -0.353   7.888  0.00  0.00    +0.232 C 
ATOM     35  O   UNL     1      -4.165  -0.521   6.878  0.00  0.00    -0.488 OA
ENDBRANCH  22  25
ENDBRANCH  20  22
ENDBRANCH   2  20
TORSDOF 5
