REMARK  Name = ZINC01240741
REMARK  7 active torsions:
REMARK  status: ('A' for Active; 'I' for Inactive)
REMARK    1  A    between atoms: C_1  and  C_2
REMARK    2  A    between atoms: C_2  and  O_3
REMARK    3  A    between atoms: O_3  and  C_4
REMARK    4  A    between atoms: C_6  and  C_11
REMARK    5  A    between atoms: C_9  and  O_10
REMARK    6  A    between atoms: N_15  and  C_19
REMARK    7  A    between atoms: C_22  and  C_25
REMARK                            x       y       z     vdW  Elec       q    Type
REMARK                         _______ _______ _______ _____ _____    ______ ____
ROOT
ATOM      1  C   UNL     1       2.562   1.171   0.607  0.00  0.00    +0.028 C 
ATOM      2  C   UNL     1       3.680   1.823   0.198  0.00  0.00    +0.078 C 
ATOM      3  C   UNL     1       5.068   1.333   0.088  0.00  0.00    +0.263 C 
ATOM      4  O   UNL     1       5.367   0.190   0.381  0.00  0.00    -0.269 OA
ATOM      5  N   UNL     1       5.969   2.197  -0.349  0.00  0.00    -0.224 N 
ATOM      6  C   UNL     1       5.634   3.464  -0.666  0.00  0.00    +0.125 C 
ATOM      7  S   UNL     1       6.647   4.721  -1.236  0.00  0.00    -0.027 S 
ATOM      8  S   UNL     1       3.878   3.514  -0.347  0.00  0.00    -0.061 S 
ENDROOT
BRANCH   1  11
ATOM      9  C   UNL     1      -1.099   1.915   0.940  0.00  0.00    +0.162 A 
ATOM     10  C   UNL     1       0.083   1.216   0.792  0.00  0.00    +0.057 A 
ATOM     11  C   UNL     1       1.301   1.907   0.770  0.00  0.00    -0.020 A 
ATOM     12  C   UNL     1       1.314   3.300   0.905  0.00  0.00    +0.012 A 
ATOM     13  C   UNL     1       0.130   3.987   1.059  0.00  0.00    +0.050 A 
ATOM     14  C   UNL     1      -1.078   3.302   1.080  0.00  0.00    +0.158 A 
BRANCH  14  15
ATOM     15  O   UNL     1      -2.242   3.985   1.232  0.00  0.00    -0.503 OA
ATOM     16  H   UNL     1      -2.643   4.268   0.399  0.00  0.00    +0.292 HD
ENDBRANCH  14  15
BRANCH   9  17
ATOM     17  O   UNL     1      -2.285   1.248   0.956  0.00  0.00    -0.489 OA
BRANCH  17  19
ATOM     18  C   UNL     1      -3.651  -0.742   0.855  0.00  0.00    +0.048 C 
ATOM     19  C   UNL     1      -2.232  -0.173   0.814  0.00  0.00    +0.226 C 
ENDBRANCH  17  19
ENDBRANCH   9  17
ENDBRANCH   1  11
BRANCH   5  20
ATOM     20  C   UNL     1       7.298   1.790  -0.479  0.00  0.00    +0.043 A 
ATOM     21  C   UNL     1       7.704   1.099  -1.616  0.00  0.00    +0.025 A 
ATOM     22  C   UNL     1       9.015   0.701  -1.751  0.00  0.00    +0.017 A 
ATOM     23  C   UNL     1       9.936   0.981  -0.738  0.00  0.00    +0.063 A 
ATOM     24  C   UNL     1       9.524   1.670   0.406  0.00  0.00    +0.017 A 
ATOM     25  C   UNL     1       8.212   2.070   0.531  0.00  0.00    +0.025 A 
BRANCH  23  26
ATOM     26  C   UNL     1      11.341   0.552  -0.876  0.00  0.00    +0.387 C 
ATOM     27  O   UNL     1      12.140   0.797   0.005  0.00  0.00    -0.241 OA
ATOM     28  O   UNL     1      11.736  -0.113  -1.979  0.00  0.00    -0.241 OA
ENDBRANCH  23  26
ENDBRANCH   5  20
TORSDOF 6
