REMARK  Name = ZINC22608216
REMARK  6 active torsions:
REMARK  status: ('A' for Active; 'I' for Inactive)
REMARK    1  A    between atoms: C_1  and  C_2
REMARK    2  A    between atoms: C_2  and  O_3
REMARK    3  A    between atoms: O_3  and  C_4
REMARK    4  A    between atoms: C_8  and  C_10
REMARK    5  A    between atoms: C_15  and  C_20
REMARK    6  A    between atoms: C_25  and  C_27
REMARK                            x       y       z     vdW  Elec       q    Type
REMARK                         _______ _______ _______ _____ _____    ______ ____
ROOT
ATOM      1  C   UNL     1       2.489   1.048  -0.016  0.00  0.00    +0.176 C 
ATOM      2  C   UNL     1       3.258   1.421  -1.264  0.00  0.00    +0.041 C 
ATOM      3  C   UNL     1       4.337   2.232  -1.227  0.00  0.00    +0.020 C 
ATOM      4  C   UNL     1       5.088   2.583  -2.490  0.00  0.00    +0.055 C 
ATOM      5  C   UNL     1       4.123   2.594  -3.677  0.00  0.00    -0.001 C 
ATOM      6  C   UNL     1       3.475   1.210  -3.784  0.00  0.00    +0.083 C 
ATOM      7  C   UNL     1       2.800   0.885  -2.481  0.00  0.00    +0.163 C 
ATOM      8  O   UNL     1       1.837   0.143  -2.479  0.00  0.00    -0.292 OA
ATOM      9  C   UNL     1       4.892   2.905  -4.963  0.00  0.00    +0.008 C 
ATOM     10  N   UNL     1       4.801   2.767  -0.049  0.00  0.00    -0.287 N 
ATOM     11  C   UNL     1       4.340   2.222   1.139  0.00  0.00    +0.219 A 
ATOM     12  N   UNL     1       3.258   1.406   1.170  0.00  0.00    -0.220 N 
ATOM     13  N   UNL     1       3.081   1.032   2.501  0.00  0.00    -0.143 NA
ATOM     14  C   UNL     1       4.028   1.623   3.188  0.00  0.00    +0.256 A 
ATOM     15  N   UNL     1       4.788   2.344   2.358  0.00  0.00    -0.189 NA
ATOM     16  H   UNL     1       5.517   3.602  -0.068  0.00  0.00    +0.155 HD
ENDROOT
BRANCH   1  21
ATOM     17  C   UNL     1      -1.223   1.754   0.017  0.00  0.00    +0.121 A 
ATOM     18  C   UNL     1      -1.238   3.141   0.029  0.00  0.00    +0.045 A 
ATOM     19  C   UNL     1      -0.049   3.844   0.023  0.00  0.00    +0.004 A 
ATOM     20  C   UNL     1       1.156   3.166   0.008  0.00  0.00    +0.006 A 
ATOM     21  C   UNL     1       1.174   1.783   0.000  0.00  0.00    -0.015 A 
ATOM     22  C   UNL     1      -0.013   1.076   0.008  0.00  0.00    +0.051 A 
BRANCH  17  23
ATOM     23  O   UNL     1      -2.391   1.060   0.019  0.00  0.00    -0.492 OA
BRANCH  23  25
ATOM     24  C   UNL     1      -4.801   0.877   0.029  0.00  0.00    +0.048 C 
ATOM     25  C   UNL     1      -3.599   1.823   0.029  0.00  0.00    +0.225 C 
ENDBRANCH  23  25
ENDBRANCH  17  23
ENDBRANCH   1  21
BRANCH  14  26
ATOM     26  C   UNL     1       4.228   1.507   4.677  0.00  0.00    +0.454 C 
ATOM     27  F   UNL     1       5.319   0.672   4.938  0.00  0.00    -0.163 F 
ATOM     28  F   UNL     1       4.472   2.775   5.215  0.00  0.00    -0.163 F 
ATOM     29  F   UNL     1       3.077   0.967   5.262  0.00  0.00    -0.163 F 
ENDBRANCH  14  26
TORSDOF 4
