REMARK  Name = ZINC64093400
REMARK  9 active torsions:
REMARK  status: ('A' for Active; 'I' for Inactive)
REMARK    1  A    between atoms: C_1  and  C_2
REMARK    2  A    between atoms: C_2  and  C_3
REMARK    3  A    between atoms: C_2  and  C_4
REMARK    4  A    between atoms: C_2  and  O_35
REMARK    5  A    between atoms: C_5  and  C_6
REMARK    6  A    between atoms: C_9  and  C_12
REMARK    7  A    between atoms: C_12  and  N_13
REMARK    8  A    between atoms: C_26  and  C_28
REMARK    9  A    between atoms: C_32  and  O_34
REMARK                            x       y       z     vdW  Elec       q    Type
REMARK                         _______ _______ _______ _____ _____    ______ ____
ROOT
ATOM      1  N   UNL     1      -8.306  -3.063  -1.321  0.00  0.00    -0.289 NA
ATOM      2  C   UNL     1      -7.504  -4.064  -2.031  0.00  0.00    +0.090 C 
ATOM      3  C   UNL     1      -7.832  -4.040  -3.535  0.00  0.00    +0.049 C 
ATOM      4  C   UNL     1      -9.336  -4.107  -3.638  0.00  0.00    -0.035 C 
ATOM      5  C   UNL     1     -10.148  -4.873  -4.353  0.00  0.00    -0.001 A 
ATOM      6  C   UNL     1      -9.889  -5.855  -5.418  0.00  0.00    +0.010 A 
ATOM      7  C   UNL     1     -10.977  -6.492  -5.925  0.00  0.00    +0.001 A 
ATOM      8  C   UNL     1     -12.283  -6.253  -5.485  0.00  0.00    +0.002 A 
ATOM      9  C   UNL     1     -12.615  -5.361  -4.519  0.00  0.00    +0.026 A 
ATOM     10  C   UNL     1     -11.556  -4.622  -3.916  0.00  0.00    +0.043 A 
ATOM     11  N   UNL     1     -11.591  -3.697  -3.001  0.00  0.00    -0.376 N 
ATOM     12  C   UNL     1     -10.232  -3.199  -2.801  0.00  0.00    +0.128 C 
ATOM     13  C   UNL     1      -9.751  -3.342  -1.356  0.00  0.00    +0.114 C 
ATOM     14  H   UNL     1     -12.383  -3.390  -2.533  0.00  0.00    +0.160 HD
ENDROOT
BRANCH  13  15
ATOM     15  C   UNL     1     -10.479  -2.358  -0.478  0.00  0.00    -0.025 A 
ATOM     16  C   UNL     1     -10.097  -1.029  -0.464  0.00  0.00    +0.005 A 
ATOM     17  C   UNL     1     -10.763  -0.123   0.340  0.00  0.00    +0.004 A 
ATOM     18  C   UNL     1     -11.813  -0.544   1.133  0.00  0.00    +0.045 A 
ATOM     19  C   UNL     1     -12.199  -1.877   1.121  0.00  0.00    +0.117 A 
ATOM     20  C   UNL     1     -11.533  -2.782   0.308  0.00  0.00    +0.050 A 
BRANCH  19  21
ATOM     21  O   UNL     1     -13.232  -2.293   1.900  0.00  0.00    -0.507 OA
ATOM     22  H   UNL     1     -14.095  -2.244   1.468  0.00  0.00    +0.292 HD
ENDBRANCH  19  21
ENDBRANCH  13  15
BRANCH   1  23
ATOM     23  C   UNL     1      -7.835  -2.896   0.060  0.00  0.00    +0.120 C 
BRANCH  23  27
ATOM     24  C   UNL     1      -3.824  -1.416   0.031  0.00  0.00    +0.025 A 
ATOM     25  C   UNL     1      -4.899  -0.526   0.040  0.00  0.00    +0.017 A 
ATOM     26  C   UNL     1      -6.191  -1.010   0.050  0.00  0.00    +0.006 A 
ATOM     27  C   UNL     1      -6.422  -2.374   0.050  0.00  0.00    -0.033 A 
ATOM     28  C   UNL     1      -5.360  -3.261   0.041  0.00  0.00    +0.006 A 
ATOM     29  C   UNL     1      -4.064  -2.790   0.026  0.00  0.00    +0.017 A 
BRANCH  24  31
ATOM     30  C   UNL     1      -1.379  -0.514   0.013  0.00  0.00    -0.063 C 
ATOM     31  C   UNL     1      -2.480  -0.920   0.021  0.00  0.00    -0.063 C 
BRANCH  30  33
ATOM     32  C   UNL     1      -0.019   1.526   0.010  0.00  0.00    +0.055 C 
ATOM     33  C   UNL     1       0.002  -0.004   0.002  0.00  0.00    +0.121 C 
ATOM     34  C   UNL     1       0.742  -0.511   1.242  0.00  0.00    +0.055 C 
BRANCH  33  35
ATOM     35  O   UNL     1       0.671  -0.465  -1.174  0.00  0.00    -0.377 OA
ATOM     36  H   UNL     1       0.256  -0.181  -1.999  0.00  0.00    +0.211 HD
ENDBRANCH  33  35
ENDBRANCH  30  33
ENDBRANCH  24  31
ENDBRANCH  23  27
ENDBRANCH   1  23
TORSDOF 7
