REMARK  Name = ZINC17126177
REMARK  11 active torsions:
REMARK  status: ('A' for Active; 'I' for Inactive)
REMARK    1  A    between atoms: C_1  and  C_2
REMARK    2  A    between atoms: C_2  and  C_3
REMARK    3  A    between atoms: C_2  and  C_4
REMARK    4  A    between atoms: C_4  and  C_5
REMARK    5  A    between atoms: C_5  and  C_7
REMARK    6  A    between atoms: C_5  and  N_22
REMARK    7  A    between atoms: N_9  and  C_10
REMARK    8  A    between atoms: C_10  and  C_11
REMARK    9  A    between atoms: C_11  and  C_12
REMARK   10  A    between atoms: C_15  and  S_18
REMARK   11  A    between atoms: S_18  and  N_21
REMARK                            x       y       z     vdW  Elec       q    Type
REMARK                         _______ _______ _______ _____ _____    ______ ____
ROOT
ATOM      1  C   UNL     1       0.746  -0.514   3.721  0.00  0.00    +0.234 C 
ATOM      2  O   UNL     1       0.277  -1.297   4.520  0.00  0.00    -0.274 OA
ATOM      3  N   UNL     1       1.972   0.008   3.929  0.00  0.00    -0.313 N 
ATOM      4  H   UNL     1       2.346   0.634   3.290  0.00  0.00    +0.149 HD
ENDROOT
BRANCH   1   5
ATOM      5  C   UNL     1      -0.042  -0.124   2.497  0.00  0.00    +0.170 C 
BRANCH   5   6
ATOM      6  N   UNL     1      -1.330  -0.821   2.503  0.00  0.00    -0.230 N 
ATOM      7  C   UNL     1      -1.440  -2.163   2.505  0.00  0.00    +0.227 C 
ATOM      8  O   UNL     1      -0.545  -2.957   2.703  0.00  0.00    -0.275 OA
ATOM      9  C   UNL     1      -2.910  -2.501   2.209  0.00  0.00    +0.091 C 
ATOM     10  C   UNL     1      -2.997  -2.568   0.682  0.00  0.00    +0.040 C 
ATOM     11  C   UNL     1      -4.295  -2.076   0.142  0.00  0.00    -0.030 C 
ATOM     12  C   UNL     1      -5.137  -1.345   0.794  0.00  0.00    -0.030 C 
ATOM     13  C   UNL     1      -4.935  -0.931   2.217  0.00  0.00    +0.040 C 
ATOM     14  C   UNL     1      -3.565  -1.222   2.757  0.00  0.00    +0.091 C 
ATOM     15  C   UNL     1      -2.518  -0.175   2.513  0.00  0.00    +0.227 C 
ATOM     16  O   UNL     1      -2.701   1.012   2.354  0.00  0.00    -0.275 OA
ENDBRANCH   5   6
BRANCH   5  17
ATOM     17  C   UNL     1       0.742  -0.511   1.242  0.00  0.00    +0.035 C 
BRANCH  17  19
ATOM     18  C   UNL     1      -0.019   1.526   0.010  0.00  0.00    +0.007 C 
ATOM     19  C   UNL     1       0.002  -0.004   0.002  0.00  0.00    -0.015 C 
ATOM     20  C   UNL     1       0.718  -0.497  -1.257  0.00  0.00    +0.007 C 
ENDBRANCH  17  19
ENDBRANCH   5  17
ENDBRANCH   1   5
BRANCH   3  21
ATOM     21  C   UNL     1       2.737  -0.372   5.118  0.00  0.00    +0.109 C 
BRANCH  21  22
ATOM     22  C   UNL     1       4.083   0.356   5.112  0.00  0.00    +0.054 C 
BRANCH  22  23
ATOM     23  C   UNL     1       4.871  -0.034   6.336  0.00  0.00    -0.046 A 
ATOM     24  C   UNL     1       4.739   0.693   7.504  0.00  0.00    +0.005 A 
ATOM     25  C   UNL     1       5.461   0.336   8.627  0.00  0.00    +0.029 A 
ATOM     26  C   UNL     1       6.316  -0.750   8.582  0.00  0.00    +0.105 A 
ATOM     27  C   UNL     1       6.447  -1.478   7.414  0.00  0.00    +0.029 A 
ATOM     28  C   UNL     1       5.722  -1.123   6.293  0.00  0.00    +0.005 A 
BRANCH  26  29
ATOM     29  S   UNL     1       7.238  -1.206  10.013  0.00  0.00    +0.056 S 
ATOM     30  O   UNL     1       8.374  -1.924   9.552  0.00  0.00    -0.153 OA
ATOM     31  O   UNL     1       7.348  -0.037  10.814  0.00  0.00    -0.153 OA
BRANCH  29  32
ATOM     32  N   UNL     1       6.314  -2.280  10.869  0.00  0.00    -0.204 NA
ATOM     33  H   UNL     1       5.438  -2.537  10.540  0.00  0.00    +0.144 HD
ATOM     34  H   UNL     1       6.648  -2.654  11.700  0.00  0.00    +0.144 HD
ENDBRANCH  29  32
ENDBRANCH  26  29
ENDBRANCH  22  23
ENDBRANCH  21  22
ENDBRANCH   3  21
TORSDOF 9
