REMARK  Name = ZINC63547041
REMARK  6 active torsions:
REMARK  status: ('A' for Active; 'I' for Inactive)
REMARK    1  A    between atoms: C_3  and  C_6
REMARK    2  A    between atoms: C_10  and  C_20
REMARK    3  A    between atoms: C_14  and  C_16
REMARK    4  A    between atoms: N_22  and  C_23
REMARK    5  A    between atoms: C_23  and  C_24
REMARK    6  A    between atoms: C_24  and  C_25
REMARK                            x       y       z     vdW  Elec       q    Type
REMARK                         _______ _______ _______ _____ _____    ______ ____
ROOT
ATOM      1  C   UNL     1       3.731   1.671  -0.025  0.00  0.00    +0.056 C 
ATOM      2  N   UNL     1       4.692   0.766  -0.044  0.00  0.00    -0.341 N 
ATOM      3  C   UNL     1       5.997   1.135  -0.055  0.00  0.00    +0.116 C 
ATOM      4  C   UNL     1       7.095   0.347  -0.074  0.00  0.00    +0.045 C 
ATOM      5  C   UNL     1       8.293   1.270  -0.078  0.00  0.00    +0.185 C 
ATOM      6  N   UNL     1       7.714   2.624  -0.059  0.00  0.00    -0.218 NA
ATOM      7  N   UNL     1       6.351   2.475  -0.046  0.00  0.00    -0.215 N 
ATOM      8  C   UNL     1       5.377   3.447  -0.026  0.00  0.00    +0.133 C 
ATOM      9  C   UNL     1       4.078   3.093  -0.021  0.00  0.00    +0.056 C 
ATOM     10  H   UNL     1       8.011   3.156  -0.863  0.00  0.00    +0.146 HD
ATOM     11  H   UNL     1       4.462  -0.176  -0.051  0.00  0.00    +0.167 HD
ENDROOT
BRANCH   1  14
ATOM     12  C   UNL     1      -0.016   1.350   0.009  0.00  0.00    +0.008 A 
ATOM     13  C   UNL     1       1.178   2.035   0.002  0.00  0.00    +0.017 A 
ATOM     14  C   UNL     1       2.320   1.253  -0.013  0.00  0.00    +0.036 A 
ATOM     15  S   UNL     1       1.636  -0.394  -0.016  0.00  0.00    -0.095 S 
ATOM     16  C   UNL     1       0.002  -0.004   0.002  0.00  0.00    +0.046 A 
ENDBRANCH   1  14
BRANCH   8  17
ATOM     17  C   UNL     1       5.764   4.904  -0.017  0.00  0.00    +0.432 C 
ATOM     18  F   UNL     1       4.608   5.692   0.003  0.00  0.00    -0.165 F 
ATOM     19  F   UNL     1       6.532   5.175   1.120  0.00  0.00    -0.165 F 
ATOM     20  F   UNL     1       6.509   5.197  -1.164  0.00  0.00    -0.165 F 
ENDBRANCH   8  17
BRANCH   5  21
ATOM     21  C   UNL     1       9.112   1.062  -1.326  0.00  0.00    +0.236 C 
ATOM     22  O   UNL     1       9.267   1.976  -2.108  0.00  0.00    -0.274 OA
ATOM     23  N   UNL     1       9.673  -0.138  -1.572  0.00  0.00    -0.313 N 
ATOM     24  H   UNL     1       9.550  -0.869  -0.946  0.00  0.00    +0.149 HD
BRANCH  23  25
ATOM     25  C   UNL     1      10.470  -0.339  -2.785  0.00  0.00    +0.108 C 
BRANCH  25  26
ATOM     26  C   UNL     1      10.988  -1.779  -2.821  0.00  0.00    +0.052 C 
BRANCH  26  27
ATOM     27  C   UNL     1      11.807  -1.986  -4.069  0.00  0.00    -0.040 C 
ATOM     28  C   UNL     1      13.151  -1.887  -4.185  0.00  0.00    +0.000 A 
ATOM     29  C   UNL     1      14.211  -1.569  -3.221  0.00  0.00    +0.030 A 
ATOM     30  C   UNL     1      15.497  -1.545  -3.643  0.00  0.00    +0.042 A 
ATOM     31  C   UNL     1      15.840  -1.815  -4.976  0.00  0.00    +0.022 A 
ATOM     32  C   UNL     1      14.922  -2.115  -5.919  0.00  0.00    +0.027 A 
ATOM     33  C   UNL     1      13.540  -2.169  -5.585  0.00  0.00    +0.043 A 
ATOM     34  N   UNL     1      12.478  -2.432  -6.307  0.00  0.00    -0.380 N 
ATOM     35  C   UNL     1      11.294  -2.352  -5.444  0.00  0.00    +0.144 C 
ATOM     36 CL   UNL     1      16.754  -1.169  -2.506  0.00  0.00    -0.084 Cl
ATOM     37  H   UNL     1      12.475  -2.646  -7.253  0.00  0.00    +0.160 HD
ENDBRANCH  26  27
ENDBRANCH  25  26
ENDBRANCH  23  25
ENDBRANCH   5  21
TORSDOF 6
