REMARK  Name = ZINC04944227
REMARK  4 active torsions:
REMARK  status: ('A' for Active; 'I' for Inactive)
REMARK    1  A    between atoms: C_2  and  C_3
REMARK    2  A    between atoms: C_3  and  S_4
REMARK    3  A    between atoms: S_4  and  C_5
REMARK    4  A    between atoms: C_17  and  C_19
REMARK                            x       y       z     vdW  Elec       q    Type
REMARK                         _______ _______ _______ _____ _____    ______ ____
ROOT
ATOM      1  C   UNL     1       3.071  -2.467   1.357  0.00  0.00    +0.171 A 
ATOM      2  N   UNL     1       3.524  -3.269   2.361  0.00  0.00    -0.302 N 
ATOM      3  H   UNL     1       2.987  -3.397   3.159  0.00  0.00    +0.171 HD
ATOM      4  C   UNL     1       4.720  -3.886   2.246  0.00  0.00    +0.258 A 
ATOM      5  O   UNL     1       5.138  -4.607   3.138  0.00  0.00    -0.267 OA
ATOM      6  C   UNL     1       5.470  -3.681   1.085  0.00  0.00    +0.065 A 
ATOM      7  C   UNL     1       4.966  -2.857   0.093  0.00  0.00    +0.137 A 
ATOM      8  N   UNL     1       3.773  -2.276   0.259  0.00  0.00    -0.208 NA
ATOM      9  N   UNL     1       5.695  -2.641  -1.065  0.00  0.00    -0.270 N 
ATOM     10  C   UNL     1       6.690  -3.477  -1.414  0.00  0.00    +0.219 C 
ATOM     11  O   UNL     1       7.327  -3.260  -2.423  0.00  0.00    -0.275 OA
ATOM     12  C   UNL     1       7.022  -4.677  -0.569  0.00  0.00    +0.109 C 
ATOM     13  C   UNL     1       6.808  -4.346   0.909  0.00  0.00    +0.067 C 
ATOM     14  H   UNL     1       5.486  -1.881  -1.629  0.00  0.00    +0.156 HD
ENDROOT
BRANCH  13  15
ATOM     15  C   UNL     1       7.897  -3.415   1.377  0.00  0.00    -0.025 A 
ATOM     16  C   UNL     1       8.053  -2.178   0.781  0.00  0.00    +0.005 A 
ATOM     17  C   UNL     1       9.051  -1.324   1.211  0.00  0.00    +0.000 A 
ATOM     18  C   UNL     1       9.895  -1.707   2.237  0.00  0.00    +0.001 A 
ATOM     19  C   UNL     1       9.739  -2.944   2.834  0.00  0.00    +0.015 A 
ATOM     20  C   UNL     1       8.737  -3.796   2.408  0.00  0.00    +0.022 A 
ATOM     21 BR   UNL     1       8.520  -5.486   3.229  0.00  0.00    -0.050 Br
ENDBRANCH  13  15
BRANCH   1  22
ATOM     22  S   UNL     1       1.507  -1.674   1.529  0.00  0.00    -0.084 S 
BRANCH  22  23
ATOM     23  C   UNL     1       1.317  -0.740  -0.015  0.00  0.00    +0.104 C 
BRANCH  23  25
ATOM     24  C   UNL     1      -0.016   1.306   0.009  0.00  0.00    +0.005 C 
ATOM     25  C   UNL     1       0.002  -0.004   0.002  0.00  0.00    -0.023 C 
ENDBRANCH  23  25
ENDBRANCH  22  23
ENDBRANCH   1  22
TORSDOF 4
