REMARK  Name = ZINC26885379
REMARK  8 active torsions:
REMARK  status: ('A' for Active; 'I' for Inactive)
REMARK    1  A    between atoms: C_1  and  C_2
REMARK    2  A    between atoms: C_2  and  C_3
REMARK    3  A    between atoms: C_2  and  C_4
REMARK    4  A    between atoms: C_2  and  N_18
REMARK    5  A    between atoms: C_4  and  N_5
REMARK    6  A    between atoms: N_5  and  S_6
REMARK    7  A    between atoms: S_6  and  C_9
REMARK    8  A    between atoms: C_14  and  N_15
REMARK                            x       y       z     vdW  Elec       q    Type
REMARK                         _______ _______ _______ _____ _____    ______ ____
ROOT
ATOM      1  N   UNL     1       1.046   2.478  -1.698  0.00  0.00    -0.191 NA
ATOM      2  H   UNL     1       1.971   2.314  -2.271  0.00  0.00    +0.148 HD
ENDROOT
BRANCH   1   3
ATOM      3  S   UNL     1      -0.121   3.478  -2.313  0.00  0.00    +0.061 S 
ATOM      4  O   UNL     1       0.321   3.870  -3.606  0.00  0.00    -0.153 OA
ATOM      5  O   UNL     1      -1.367   2.829  -2.099  0.00  0.00    -0.153 OA
BRANCH   3   6
ATOM      6  C   UNL     1      -0.135   4.934  -1.322  0.00  0.00    +0.135 A 
ATOM      7  C   UNL     1      -1.267   5.272  -0.605  0.00  0.00    +0.031 A 
ATOM      8  C   UNL     1      -1.276   6.412   0.177  0.00  0.00    +0.002 A 
ATOM      9  C   UNL     1      -0.156   7.220   0.233  0.00  0.00    +0.002 A 
ATOM     10  C   UNL     1       0.974   6.886  -0.488  0.00  0.00    +0.035 A 
ATOM     11  C   UNL     1       0.985   5.742  -1.266  0.00  0.00    +0.152 A 
BRANCH  11  12
ATOM     12  N   UNL     1       2.196   5.385  -2.038  0.00  0.00    +0.058 N 
ATOM     13  O   UNL     1       3.133   6.160  -2.095  0.00  0.00    -0.126 OA
ATOM     14  O   UNL     1       2.254   4.315  -2.618  0.00  0.00    -0.126 OA
ENDBRANCH  11  12
ENDBRANCH   3   6
ENDBRANCH   1   3
BRANCH   1  15
ATOM     15  C   UNL     1       0.945   1.996  -0.318  0.00  0.00    +0.093 C 
BRANCH  15  17
ATOM     16  C   UNL     1       3.350   1.323  -0.229  0.00  0.00    -0.009 C 
ATOM     17  C   UNL     1       1.908   0.824  -0.115  0.00  0.00    -0.057 C 
ATOM     18  C   UNL     1       1.686   0.216   1.271  0.00  0.00    -0.009 C 
BRANCH  17  19
ATOM     19  N   UNL     1       1.660  -0.197  -1.143  0.00  0.00    +0.384 N 
ATOM     20  C   UNL     1       0.276  -0.683  -1.079  0.00  0.00    -0.078 C 
ATOM     21  C   UNL     1       0.013  -1.633  -2.249  0.00  0.00    -0.019 C 
ATOM     22  C   UNL     1       0.991  -2.809  -2.176  0.00  0.00    -0.004 C 
ATOM     23  C   UNL     1       2.425  -2.272  -2.195  0.00  0.00    -0.019 C 
ATOM     24  C   UNL     1       2.618  -1.304  -1.026  0.00  0.00    -0.078 C 
ATOM     25  H   UNL     1       1.806   0.271  -2.128  0.00  0.00    -0.081 HD
ENDBRANCH  17  19
ENDBRANCH  15  17
ENDBRANCH   1  15
TORSDOF 6
