REMARK  Name = ZINC12329146
REMARK  6 active torsions:
REMARK  status: ('A' for Active; 'I' for Inactive)
REMARK    1  A    between atoms: C_1  and  N_2
REMARK    2  A    between atoms: C_4  and  C_11
REMARK    3  A    between atoms: C_11  and  C_13
REMARK    4  A    between atoms: C_11  and  O_31
REMARK    5  A    between atoms: C_13  and  N_57
REMARK    6  A    between atoms: C_20  and  O_30
REMARK                            x       y       z     vdW  Elec       q    Type
REMARK                         _______ _______ _______ _____ _____    ______ ____
ROOT
ATOM      1  C   UNL     1       2.797   7.791   0.497  0.00  0.00    -0.075 C 
ATOM      2  C   UNL     1       3.413   9.190   0.417  0.00  0.00    +0.029 C 
ATOM      3  C   UNL     1       3.400   9.827   1.808  0.00  0.00    +0.110 C 
ATOM      4  C   UNL     1       4.160   8.929   2.786  0.00  0.00    +0.029 C 
ATOM      5  C   UNL     1       3.523   7.538   2.795  0.00  0.00    -0.075 C 
ATOM      6  C   UNL     1       4.073  11.203   1.747  0.00  0.00    +0.084 C 
ATOM      7  C   UNL     1       4.141  11.769   3.168  0.00  0.00    +0.152 C 
ATOM      8  C   UNL     1       2.794  11.636   3.832  0.00  0.00    +0.025 A 
ATOM      9  C   UNL     1       2.524  12.405   4.952  0.00  0.00    +0.048 A 
ATOM     10  C   UNL     1       1.301  12.305   5.589  0.00  0.00    +0.124 A 
ATOM     11  C   UNL     1       0.340  11.432   5.108  0.00  0.00    +0.042 A 
ATOM     12  C   UNL     1       0.605  10.664   3.992  0.00  0.00    +0.049 A 
ATOM     13  C   UNL     1       1.834  10.764   3.348  0.00  0.00    +0.127 A 
ATOM     14  O   UNL     1       2.054   9.995   2.250  0.00  0.00    -0.485 OA
ATOM     15  F   UNL     1       1.044  13.059   6.681  0.00  0.00    -0.205 F 
ATOM     16  N   UNL     1       3.593   6.969   1.432  0.00  0.00    +0.382 N 
ATOM     17  H   UNL     1       4.572   6.966   1.123  0.00  0.00    -0.082 HD
ENDROOT
BRANCH   7  18
ATOM     18  O   UNL     1       4.510  13.148   3.114  0.00  0.00    -0.387 OA
ATOM     19  H   UNL     1       4.576  13.572   3.980  0.00  0.00    +0.210 HD
ENDBRANCH   7  18
BRANCH  16  20
ATOM     20  C   UNL     1       3.088   5.580   1.439  0.00  0.00    -0.042 C 
BRANCH  20  21
ATOM     21  C   UNL     1       3.055   5.055   0.002  0.00  0.00    +0.130 C 
BRANCH  21  25
ATOM     22  C   UNL     1       3.124   0.029   0.007  0.00  0.00    +0.149 C 
ATOM     23  N   UNL     1       2.608   1.400   0.004  0.00  0.00    -0.349 N 
ATOM     24  C   UNL     1       3.380   2.530   0.004  0.00  0.00    +0.092 A 
ATOM     25  C   UNL     1       2.596   3.620   0.002  0.00  0.00    +0.004 A 
ATOM     26  C   UNL     1       1.208   3.149  -0.001  0.00  0.00    +0.005 A 
ATOM     27  C   UNL     1       1.275   1.744   0.001  0.00  0.00    +0.049 A 
ATOM     28  C   UNL     1       0.096   1.006  -0.001  0.00  0.00    +0.026 A 
ATOM     29  C   UNL     1      -1.119   1.656  -0.010  0.00  0.00    +0.002 A 
ATOM     30  C   UNL     1      -1.179   3.043  -0.006  0.00  0.00    +0.001 A 
ATOM     31  C   UNL     1      -0.033   3.788  -0.004  0.00  0.00    +0.010 A 
ENDBRANCH  21  25
BRANCH  21  32
ATOM     32  O   UNL     1       4.364   5.136  -0.565  0.00  0.00    -0.389 OA
ATOM     33  H   UNL     1       5.032   4.623  -0.089  0.00  0.00    +0.210 HD
ENDBRANCH  21  32
ENDBRANCH  20  21
ENDBRANCH  16  20
TORSDOF 5
