REMARK  Name = ZINC04713342
REMARK  5 active torsions:
REMARK  status: ('A' for Active; 'I' for Inactive)
REMARK    1  A    between atoms: C_1  and  C_2
REMARK    2  A    between atoms: C_4  and  C_20
REMARK    3  A    between atoms: N_6  and  C_19
REMARK    4  A    between atoms: C_7  and  C_13
REMARK    5  A    between atoms: N_11  and  O_12
REMARK                            x       y       z     vdW  Elec       q    Type
REMARK                         _______ _______ _______ _____ _____    ______ ____
ROOT
ATOM      1  C   UNL     1      -0.019   1.526   0.010  0.00  0.00    +0.016 C 
ATOM      2  C   UNL     1       0.002  -0.004   0.002  0.00  0.00    +0.055 C 
ATOM      3  C   UNL     1      -1.434  -0.541   0.028  0.00  0.00    +0.095 C 
ATOM      4  N   UNL     1      -2.063  -0.188   1.306  0.00  0.00    -0.291 NA
ATOM      5  C   UNL     1      -1.409  -0.864   2.434  0.00  0.00    +0.093 C 
ATOM      6  C   UNL     1       0.028  -0.349   2.572  0.00  0.00    +0.078 C 
ATOM      7  C   UNL     1       0.721  -0.512   1.234  0.00  0.00    +0.064 C 
ATOM      8  N   UNL     1       1.873  -1.061   1.148  0.00  0.00    -0.096 NA
ATOM      9  C   UNL     1      -3.503  -0.479   1.282  0.00  0.00    +0.106 C 
ENDROOT
BRANCH   5  10
ATOM     10  C   UNL     1      -2.171  -0.575   3.702  0.00  0.00    -0.030 A 
ATOM     11  C   UNL     1      -2.686   0.688   3.927  0.00  0.00    +0.005 A 
ATOM     12  C   UNL     1      -3.384   0.952   5.091  0.00  0.00    +0.000 A 
ATOM     13  C   UNL     1      -3.567  -0.046   6.029  0.00  0.00    +0.000 A 
ATOM     14  C   UNL     1      -3.053  -1.310   5.804  0.00  0.00    +0.000 A 
ATOM     15  C   UNL     1      -2.359  -1.575   4.638  0.00  0.00    +0.005 A 
ENDBRANCH   5  10
BRANCH   3  16
ATOM     16  C   UNL     1      -2.219   0.070  -1.105  0.00  0.00    -0.030 A 
ATOM     17  C   UNL     1      -2.726   1.350  -0.983  0.00  0.00    +0.005 A 
ATOM     18  C   UNL     1      -3.446   1.910  -2.021  0.00  0.00    +0.000 A 
ATOM     19  C   UNL     1      -3.658   1.190  -3.182  0.00  0.00    +0.000 A 
ATOM     20  C   UNL     1      -3.150  -0.090  -3.305  0.00  0.00    +0.000 A 
ATOM     21  C   UNL     1      -2.426  -0.648  -2.268  0.00  0.00    +0.005 A 
ENDBRANCH   3  16
BRANCH   8  22
ATOM     22  O   UNL     1       2.525  -1.527   2.316  0.00  0.00    -0.409 OA
ATOM     23  H   UNL     1       3.390  -1.927   2.151  0.00  0.00    +0.328 HD
ENDBRANCH   8  22
TORSDOF 3
