REMARK  Name = ZINC20256435
REMARK  5 active torsions:
REMARK  status: ('A' for Active; 'I' for Inactive)
REMARK    1  A    between atoms: C_1  and  C_2
REMARK    2  A    between atoms: C_3  and  C_12
REMARK    3  A    between atoms: C_14  and  C_17
REMARK    4  A    between atoms: C_22  and  O_28
REMARK    5  A    between atoms: O_28  and  C_29
REMARK                            x       y       z     vdW  Elec       q    Type
REMARK                         _______ _______ _______ _____ _____    ______ ____
ROOT
ATOM      1  C   UNL     1      -3.175   4.132   2.449  0.00  0.00    +0.204 A 
ATOM      2  N   UNL     1      -3.824   4.610   3.534  0.00  0.00    -0.191 NA
ATOM      3  C   UNL     1      -4.571   5.592   3.093  0.00  0.00    +0.234 A 
ATOM      4  O   UNL     1      -4.362   5.684   1.776  0.00  0.00    -0.337 OA
ATOM      5  N   UNL     1      -3.558   4.848   1.424  0.00  0.00    -0.056 NA
ENDROOT
BRANCH   1   8
ATOM      6  C   UNL     1      -2.517   2.741   4.902  0.00  0.00    +0.066 C 
ATOM      7  C   UNL     1      -1.879   2.331   3.599  0.00  0.00    +0.049 A 
ATOM      8  C   UNL     1      -2.205   3.009   2.426  0.00  0.00    +0.047 A 
ATOM      9  C   UNL     1      -1.603   2.614   1.228  0.00  0.00    -0.034 A 
ATOM     10  C   UNL     1      -0.710   1.567   1.252  0.00  0.00    -0.043 A 
ATOM     11  C   UNL     1      -0.436   0.942   2.462  0.00  0.00    +0.113 A 
ATOM     12  N   UNL     1      -1.018   1.335   3.577  0.00  0.00    -0.259 NA
ATOM     13  C   UNL     1      -0.013   1.086   0.008  0.00  0.00    -0.045 C 
ATOM     14  N   UNL     1      -0.715   1.568  -1.186  0.00  0.00    +0.382 N 
ATOM     15  C   UNL     1      -0.900   3.026  -1.118  0.00  0.00    -0.077 C 
ATOM     16  C   UNL     1      -1.948   3.335  -0.046  0.00  0.00    +0.017 C 
ATOM     17  H   UNL     1      -0.126   1.323  -2.082  0.00  0.00    -0.085 HD
ATOM     18  H   UNL     1      -1.701   1.085  -1.252  0.00  0.00    -0.085 HD
ENDBRANCH   1   8
BRANCH   3  19
ATOM     19  C   UNL     1      -5.493   6.455   3.916  0.00  0.00    +0.119 C 
ATOM     20  C   UNL     1      -5.077   7.923   3.787  0.00  0.00    +0.055 C 
ATOM     21  C   UNL     1      -6.156   8.808   4.357  0.00  0.00    -0.001 A 
ATOM     22  C   UNL     1      -5.841  10.118   4.679  0.00  0.00    +0.052 A 
ATOM     23  C   UNL     1      -6.809  10.963   5.197  0.00  0.00    +0.121 A 
ATOM     24  C   UNL     1      -8.100  10.494   5.394  0.00  0.00    +0.049 A 
ATOM     25  C   UNL     1      -8.414   9.189   5.077  0.00  0.00    +0.049 A 
ATOM     26  C   UNL     1      -7.442   8.340   4.558  0.00  0.00    +0.124 A 
ATOM     27  O   UNL     1      -7.792   7.060   4.262  0.00  0.00    -0.491 OA
ATOM     28  C   UNL     1      -6.931   6.314   3.401  0.00  0.00    +0.242 C 
BRANCH  23  29
ATOM     29  O   UNL     1      -6.495  12.248   5.509  0.00  0.00    -0.495 OA
ATOM     30  C   UNL     1      -7.544  13.062   6.038  0.00  0.00    +0.277 C 
ENDBRANCH  23  29
ENDBRANCH   3  19
TORSDOF 3
