REMARK  Name = ZINC28233450
REMARK  6 active torsions:
REMARK  status: ('A' for Active; 'I' for Inactive)
REMARK    1  A    between atoms: C_1  and  C_2
REMARK    2  A    between atoms: C_3  and  S_8
REMARK    3  A    between atoms: C_4  and  C_7
REMARK    4  A    between atoms: S_8  and  N_11
REMARK    5  A    between atoms: N_15  and  C_17
REMARK    6  A    between atoms: C_17  and  C_18
REMARK                            x       y       z     vdW  Elec       q    Type
REMARK                         _______ _______ _______ _____ _____    ______ ____
ROOT
ATOM      1  N   UNL     1      -2.563   3.892   3.618  0.00  0.00    -0.109 NA
ATOM      2  C   UNL     1      -1.950   3.010   2.722  0.00  0.00    +0.169 A 
ATOM      3  C   UNL     1      -1.523   1.704   3.012  0.00  0.00    +0.068 A 
ATOM      4  C   UNL     1      -0.983   1.184   1.886  0.00  0.00    +0.109 A 
ATOM      5  N   UNL     1      -1.063   2.121   0.918  0.00  0.00    -0.288 N 
ATOM      6  N   UNL     1      -1.667   3.260   1.465  0.00  0.00    -0.280 N 
ATOM      7  H   UNL     1      -1.913   4.240   1.030  0.00  0.00    +0.189 HD
ENDROOT
BRANCH   1   8
ATOM      8  S   UNL     1      -2.487   3.604   5.247  0.00  0.00    +0.106 S 
ATOM      9  O   UNL     1      -3.199   4.658   5.880  0.00  0.00    -0.146 OA
ATOM     10  O   UNL     1      -2.826   2.236   5.433  0.00  0.00    -0.146 OA
BRANCH   8  13
ATOM     11  C   UNL     1      -0.068   1.268   5.792  0.00  0.00    +0.071 C 
ATOM     12  C   UNL     1       0.153   2.752   5.938  0.00  0.00    +0.108 A 
ATOM     13  C   UNL     1      -0.801   3.774   5.728  0.00  0.00    +0.177 A 
ATOM     14  C   UNL     1      -0.119   4.915   5.989  0.00  0.00    +0.161 A 
ATOM     15  O   UNL     1       1.127   4.547   6.315  0.00  0.00    -0.358 OA
ATOM     16  N   UNL     1       1.260   3.345   6.279  0.00  0.00    -0.081 NA
ATOM     17  C   UNL     1      -0.657   6.322   5.926  0.00  0.00    +0.091 C 
ENDBRANCH   8  13
ENDBRANCH   1   8
BRANCH   5  18
ATOM     18  C   UNL     1      -0.594   1.975  -0.463  0.00  0.00    +0.177 C 
BRANCH  18  19
ATOM     19  C   UNL     1      -1.737   2.228  -1.411  0.00  0.00    -0.018 A 
ATOM     20  C   UNL     1      -2.479   1.189  -1.881  0.00  0.00    +0.006 A 
ATOM     21  C   UNL     1      -3.544   1.404  -2.753  0.00  0.00    +0.001 A 
ATOM     22  C   UNL     1      -3.865   2.660  -3.171  0.00  0.00    +0.008 A 
ATOM     23  C   UNL     1      -3.118   3.757  -2.712  0.00  0.00    -0.018 A 
ATOM     24  C   UNL     1      -2.039   3.538  -1.819  0.00  0.00    -0.013 A 
ATOM     25  C   UNL     1      -1.291   4.636  -1.361  0.00  0.00    +0.009 A 
ATOM     26  C   UNL     1      -1.611   5.891  -1.778  0.00  0.00    +0.001 A 
ATOM     27  C   UNL     1      -2.672   6.106  -2.656  0.00  0.00    +0.001 A 
ATOM     28  C   UNL     1      -3.419   5.068  -3.121  0.00  0.00    +0.008 A 
ENDBRANCH  18  19
ENDBRANCH   5  18
TORSDOF 4
