REMARK  Name = ZINC63775537
REMARK  5 active torsions:
REMARK  status: ('A' for Active; 'I' for Inactive)
REMARK    1  A    between atoms: C_1  and  C_2
REMARK    2  A    between atoms: C_12  and  C_14
REMARK    3  A    between atoms: C_14  and  N_15
REMARK    4  A    between atoms: C_18  and  C_23
REMARK    5  A    between atoms: C_23  and  C_24
REMARK                            x       y       z     vdW  Elec       q    Type
REMARK                         _______ _______ _______ _____ _____    ______ ____
ROOT
ATOM      1  N   UNL     1       0.654  -0.482   4.855  0.00  0.00    -0.216 N 
ATOM      2  C   UNL     1       0.977   0.641   5.527  0.00  0.00    +0.244 C 
ATOM      3  O   UNL     1       1.769   1.494   5.190  0.00  0.00    -0.273 OA
ATOM      4  C   UNL     1       0.142   0.616   6.793  0.00  0.00    +0.165 C 
ATOM      5  N   UNL     1      -0.626  -0.636   6.676  0.00  0.00    -0.287 N 
ATOM      6  C   UNL     1      -0.263  -1.203   5.511  0.00  0.00    +0.310 C 
ATOM      7  O   UNL     1      -0.714  -2.255   5.102  0.00  0.00    -0.252 OA
ATOM      8  H   UNL     1      -1.270  -0.982   7.313  0.00  0.00    +0.151 HD
ENDROOT
BRANCH   1   9
ATOM      9  C   UNL     1       1.231  -0.862   3.564  0.00  0.00    +0.214 C 
BRANCH   9  20
ATOM     10  C   UNL     1      -0.019   1.526   0.010  0.00  0.00    +0.029 C 
ATOM     11  C   UNL     1       0.002  -0.004   0.002  0.00  0.00    +0.083 C 
ATOM     12  C   UNL     1       0.778  -0.520  -1.221  0.00  0.00    +0.059 C 
ATOM     13  C   UNL     1       1.932  -1.304  -0.637  0.00  0.00    -0.024 A 
ATOM     14  C   UNL     1       2.960  -1.995  -1.249  0.00  0.00    +0.005 A 
ATOM     15  C   UNL     1       3.912  -2.643  -0.485  0.00  0.00    +0.000 A 
ATOM     16  C   UNL     1       3.833  -2.599   0.895  0.00  0.00    +0.002 A 
ATOM     17  C   UNL     1       2.809  -1.912   1.510  0.00  0.00    +0.024 A 
ATOM     18  C   UNL     1       1.844  -1.254   0.745  0.00  0.00    +0.040 A 
ATOM     19  N   UNL     1       0.735  -0.509   1.166  0.00  0.00    -0.267 N 
ATOM     20  C   UNL     1       0.393  -0.287   2.450  0.00  0.00    +0.238 C 
ATOM     21  O   UNL     1      -0.589   0.375   2.711  0.00  0.00    -0.273 OA
ENDBRANCH   9  20
ENDBRANCH   1   9
BRANCH   4  22
ATOM     22  C   UNL     1      -0.795   1.824   6.844  0.00  0.00    +0.065 C 
BRANCH  22  23
ATOM     23  C   UNL     1      -1.522   1.840   8.164  0.00  0.00    -0.039 C 
ATOM     24  C   UNL     1      -1.173   2.526   9.276  0.00  0.00    -0.001 A 
ATOM     25  C   UNL     1      -0.055   3.427   9.578  0.00  0.00    +0.010 A 
ATOM     26  C   UNL     1       0.031   3.976  10.811  0.00  0.00    +0.001 A 
ATOM     27  C   UNL     1      -0.920   3.707  11.805  0.00  0.00    +0.002 A 
ATOM     28  C   UNL     1      -1.975   2.890  11.603  0.00  0.00    +0.026 A 
ATOM     29  C   UNL     1      -2.164   2.258  10.343  0.00  0.00    +0.043 A 
ATOM     30  N   UNL     1      -3.089   1.438   9.907  0.00  0.00    -0.380 N 
ATOM     31  C   UNL     1      -2.793   1.098   8.511  0.00  0.00    +0.144 C 
ATOM     32  H   UNL     1      -3.845   1.114  10.421  0.00  0.00    +0.160 HD
ENDBRANCH  22  23
ENDBRANCH   4  22
TORSDOF 4
