REMARK  Name = ZINC39007259
REMARK  6 active torsions:
REMARK  status: ('A' for Active; 'I' for Inactive)
REMARK    1  A    between atoms: C_5  and  C_7
REMARK    2  A    between atoms: C_7  and  S_8
REMARK    3  A    between atoms: S_8  and  C_9
REMARK    4  A    between atoms: C_14  and  C_16
REMARK    5  A    between atoms: C_18  and  N_34
REMARK    6  A    between atoms: C_23  and  C_28
REMARK                            x       y       z     vdW  Elec       q    Type
REMARK                         _______ _______ _______ _____ _____    ______ ____
ROOT
ATOM      1  C   UNL     1       1.411 -10.921   1.117  0.00  0.00    +0.124 C 
ATOM      2  C   UNL     1       2.006 -11.708  -0.075  0.00  0.00    -0.024 C 
ATOM      3  C   UNL     1       1.213 -12.914  -0.475  0.00  0.00    -0.053 C 
ATOM      4  C   UNL     1       1.424 -13.675  -1.563  0.00  0.00    +0.002 C 
ATOM      5  C   UNL     1       0.468 -14.749  -1.853  0.00  0.00    +0.023 C 
ATOM      6  C   UNL     1      -0.741 -14.763  -1.236  0.00  0.00    +0.035 C 
ATOM      7  N   UNL     1      -1.043 -13.751  -0.314  0.00  0.00    -0.328 N 
ATOM      8  C   UNL     1       0.072 -13.245   0.492  0.00  0.00    +0.154 C 
ATOM      9  S   UNL     1      -0.320 -11.568   1.142  0.00  0.00    -0.123 S 
ATOM     10  H   UNL     1      -1.943 -13.404  -0.214  0.00  0.00    +0.147 HD
ENDROOT
BRANCH   1  16
ATOM     11  C   UNL     1       0.150  -4.920  -0.711  0.00  0.00    +0.160 A 
ATOM     12  N   UNL     1       1.203  -5.361  -0.038  0.00  0.00    -0.133 NA
ATOM     13  N   UNL     1       1.338  -6.578   0.266  0.00  0.00    -0.125 NA
ATOM     14  C   UNL     1       0.439  -7.488  -0.069  0.00  0.00    +0.189 A 
ATOM     15  N   UNL     1       0.420  -8.859   0.176  0.00  0.00    -0.262 N 
ATOM     16  C   UNL     1       1.432  -9.438   0.852  0.00  0.00    +0.230 C 
ATOM     17  O   UNL     1       2.361  -8.764   1.246  0.00  0.00    -0.274 OA
ATOM     18  S   UNL     1      -0.750  -6.454  -0.920  0.00  0.00    -0.024 S 
ATOM     19  H   UNL     1      -0.323  -9.398  -0.140  0.00  0.00    +0.157 HD
BRANCH  11  20
ATOM     20  S   UNL     1      -0.254  -3.289  -1.242  0.00  0.00    -0.092 S 
BRANCH  20  21
ATOM     21  C   UNL     1       1.138  -2.282  -0.661  0.00  0.00    +0.113 C 
BRANCH  21  26
ATOM     22  C   UNL     1       1.185   0.940  -2.629  0.00  0.00    +0.000 A 
ATOM     23  C   UNL     1       0.511   1.794  -1.777  0.00  0.00    +0.001 A 
ATOM     24  C   UNL     1       0.039   1.331  -0.564  0.00  0.00    +0.020 A 
ATOM     25  C   UNL     1       0.242   0.011  -0.202  0.00  0.00    +0.045 A 
ATOM     26  C   UNL     1       0.916  -0.844  -1.055  0.00  0.00    -0.019 A 
ATOM     27  C   UNL     1       1.388  -0.379  -2.268  0.00  0.00    +0.006 A 
ATOM     28 CL   UNL     1      -0.349  -0.572   1.323  0.00  0.00    -0.083 Cl
ENDBRANCH  21  26
ENDBRANCH  20  21
ENDBRANCH  11  20
ENDBRANCH   1  16
BRANCH   6  29
ATOM     29  C   UNL     1      -1.721 -15.828  -1.531  0.00  0.00    -0.001 A 
ATOM     30  C   UNL     1      -2.973 -15.848  -0.902  0.00  0.00    +0.027 A 
ATOM     31  C   UNL     1      -3.858 -16.860  -1.208  0.00  0.00    +0.083 A 
ATOM     32  N   UNL     1      -3.539 -17.800  -2.077  0.00  0.00    -0.367 N 
ATOM     33  C   UNL     1      -2.371 -17.820  -2.691  0.00  0.00    +0.083 A 
ATOM     34  C   UNL     1      -1.428 -16.842  -2.451  0.00  0.00    +0.027 A 
ATOM     35  H   UNL     1      -4.183 -18.499  -2.271  0.00  0.00    +0.165 HD
ENDBRANCH   6  29
BRANCH   2  36
ATOM     36  N   UNL     1       2.094 -10.807  -1.232  0.00  0.00    +0.384 N 
ATOM     37  H   UNL     1       2.724 -10.048  -1.019  0.00  0.00    -0.089 HD
ATOM     38  H   UNL     1       2.440 -11.318  -2.030  0.00  0.00    -0.089 HD
ATOM     39  H   UNL     1       1.179 -10.437  -1.440  0.00  0.00    -0.089 HD
ENDBRANCH   2  36
TORSDOF 6
