REMARK  Name = ZINC24215732
REMARK  8 active torsions:
REMARK  status: ('A' for Active; 'I' for Inactive)
REMARK    1  A    between atoms: C_1  and  C_2
REMARK    2  A    between atoms: C_3  and  C_14
REMARK    3  A    between atoms: N_5  and  C_7
REMARK    4  A    between atoms: C_14  and  N_15
REMARK    5  A    between atoms: C_21  and  C_23
REMARK    6  A    between atoms: C_24  and  C_35
REMARK    7  A    between atoms: N_26  and  C_29
REMARK    8  A    between atoms: C_27  and  C_28
REMARK                            x       y       z     vdW  Elec       q    Type
REMARK                         _______ _______ _______ _____ _____    ______ ____
ROOT
ATOM      1  N   UNL     1       4.032   1.732  -1.010  0.00  0.00    +0.394 N 
ATOM      2  C   UNL     1       5.482   1.942  -0.882  0.00  0.00    -0.058 C 
ATOM      3  C   UNL     1       5.758   2.658   0.441  0.00  0.00    +0.085 C 
ATOM      4  N   UNL     1       5.082   1.967   1.535  0.00  0.00    -0.318 N 
ATOM      5  C   UNL     1       4.077   1.106   1.340  0.00  0.00    +0.204 C 
ATOM      6  O   UNL     1       3.551   0.599   2.308  0.00  0.00    -0.277 OA
ATOM      7  C   UNL     1       3.574   0.741  -0.028  0.00  0.00    +0.054 C 
ATOM      8  H   UNL     1       5.394   2.145   2.575  0.00  0.00    +0.149 HD
ATOM      9  H   UNL     1       3.520   2.684  -0.807  0.00  0.00    -0.080 HD
ENDROOT
BRANCH   7  10
ATOM     10  C   UNL     1       2.067   0.709  -0.014  0.00  0.00    -0.009 A 
ATOM     11  C   UNL     1       1.220   1.823   0.000  0.00  0.00    +0.063 A 
ATOM     12  N   UNL     1      -0.017   1.397   0.010  0.00  0.00    -0.171 NA
ATOM     13  N   UNL     1       0.002  -0.004   0.002  0.00  0.00    -0.237 N 
ATOM     14  C   UNL     1       1.294  -0.402  -0.013  0.00  0.00    +0.044 A 
ATOM     15  C   UNL     1       1.786  -1.827  -0.024  0.00  0.00    +0.066 C 
ATOM     16  C   UNL     1       1.658   3.265   0.003  0.00  0.00    +0.068 C 
BRANCH  13  17
ATOM     17  C   UNL     1      -1.120  -0.844   0.008  0.00  0.00    +0.066 A 
ATOM     18  C   UNL     1      -1.095  -2.043  -0.693  0.00  0.00    +0.028 A 
ATOM     19  C   UNL     1      -2.200  -2.871  -0.681  0.00  0.00    +0.002 A 
ATOM     20  C   UNL     1      -3.334  -2.503   0.020  0.00  0.00    +0.000 A 
ATOM     21  C   UNL     1      -3.364  -1.308   0.714  0.00  0.00    +0.002 A 
ATOM     22  C   UNL     1      -2.260  -0.478   0.710  0.00  0.00    +0.028 A 
ENDBRANCH  13  17
ENDBRANCH   7  10
BRANCH   1  23
ATOM     23  C   UNL     1       3.680   1.321  -2.376  0.00  0.00    -0.036 C 
BRANCH  23  26
ATOM     24  C   UNL     1       1.605   3.568  -3.198  0.00  0.00    +0.068 C 
ATOM     25  C   UNL     1       3.025   3.454  -3.690  0.00  0.00    +0.063 A 
ATOM     26  C   UNL     1       3.940   2.461  -3.326  0.00  0.00    -0.004 A 
ATOM     27  C   UNL     1       5.100   2.702  -3.984  0.00  0.00    +0.134 A 
ATOM     28  N   UNL     1       4.922   3.818  -4.736  0.00  0.00    -0.221 N 
ATOM     29  N   UNL     1       3.612   4.270  -4.528  0.00  0.00    -0.170 NA
ATOM     30 CL   UNL     1       6.551   1.754  -3.883  0.00  0.00    -0.062 Cl
BRANCH  28  31
ATOM     31  C   UNL     1       5.878   4.413  -5.570  0.00  0.00    +0.067 A 
ATOM     32  C   UNL     1       7.218   4.406  -5.208  0.00  0.00    +0.028 A 
ATOM     33  C   UNL     1       8.159   4.988  -6.035  0.00  0.00    +0.002 A 
ATOM     34  C   UNL     1       7.765   5.589  -7.217  0.00  0.00    +0.000 A 
ATOM     35  C   UNL     1       6.431   5.603  -7.578  0.00  0.00    +0.002 A 
ATOM     36  C   UNL     1       5.486   5.017  -6.758  0.00  0.00    +0.028 A 
ENDBRANCH  28  31
ENDBRANCH  23  26
ENDBRANCH   1  23
TORSDOF 5
