REMARK  Name = ZINC09376544
REMARK  6 active torsions:
REMARK  status: ('A' for Active; 'I' for Inactive)
REMARK    1  A    between atoms: C_1  and  C_2
REMARK    2  A    between atoms: N_10  and  N_14
REMARK    3  A    between atoms: C_15  and  C_17
REMARK    4  A    between atoms: C_17  and  S_18
REMARK    5  A    between atoms: S_18  and  C_19
REMARK    6  A    between atoms: N_23  and  C_24
REMARK                            x       y       z     vdW  Elec       q    Type
REMARK                         _______ _______ _______ _____ _____    ______ ____
ROOT
ATOM      1  N   UNL     1      -0.011   0.966   0.007  0.00  0.00    -0.223 N 
ATOM      2  C   UNL     1      -1.187   1.624   0.017  0.00  0.00    +0.240 C 
ATOM      3  O   UNL     1      -1.204   2.837   0.023  0.00  0.00    -0.273 OA
ATOM      4  H   UNL     1       0.002  -0.004   0.002  0.00  0.00    +0.174 HD
ENDROOT
BRANCH   1  14
ATOM      5  C   UNL     1       6.872   4.883   0.522  0.00  0.00    +0.007 C 
ATOM      6  C   UNL     1       5.707   4.029   1.024  0.00  0.00    -0.014 C 
ATOM      7  C   UNL     1       4.400   4.811   0.874  0.00  0.00    +0.006 C 
ATOM      8  C   UNL     1       3.236   3.960   1.388  0.00  0.00    +0.035 C 
ATOM      9  C   UNL     1       3.164   2.659   0.596  0.00  0.00    +0.114 C 
ATOM     10  C   UNL     1       4.469   1.881   0.716  0.00  0.00    +0.035 C 
ATOM     11  C   UNL     1       5.628   2.740   0.204  0.00  0.00    +0.006 C 
ATOM     12  C   UNL     1       2.002   1.817   1.071  0.00  0.00    +0.263 C 
ATOM     13  O   UNL     1       1.834   1.358   2.180  0.00  0.00    -0.271 OA
ATOM     14  N   UNL     1       1.193   1.683  -0.000  0.00  0.00    -0.137 N 
ATOM     15  C   UNL     1       1.685   2.315  -1.073  0.00  0.00    +0.326 C 
ATOM     16  O   UNL     1       1.137   2.333  -2.157  0.00  0.00    -0.251 OA
ATOM     17  N   UNL     1       2.854   2.931  -0.814  0.00  0.00    -0.284 N 
ATOM     18  H   UNL     1       3.388   3.449  -1.437  0.00  0.00    +0.151 HD
ENDBRANCH   1  14
BRANCH   2  19
ATOM     19  C   UNL     1      -2.482   0.853   0.018  0.00  0.00    +0.174 C 
BRANCH  19  20
ATOM     20  S   UNL     1      -3.874   2.010   0.031  0.00  0.00    -0.078 S 
BRANCH  20  21
ATOM     21  C   UNL     1      -5.218   0.872   0.032  0.00  0.00    +0.174 A 
ATOM     22  N   UNL     1      -5.117  -0.437   0.018  0.00  0.00    -0.230 NA
ATOM     23  C   UNL     1      -6.347  -0.979   0.027  0.00  0.00    +0.131 A 
ATOM     24  C   UNL     1      -7.249   0.017   0.036  0.00  0.00    +0.113 A 
ATOM     25  N   UNL     1      -6.542   1.200   0.040  0.00  0.00    -0.295 N 
BRANCH  25  26
ATOM     26  C   UNL     1      -7.081   2.494   0.050  0.00  0.00    +0.049 A 
ATOM     27  C   UNL     1      -6.635   3.426   0.978  0.00  0.00    +0.027 A 
ATOM     28  C   UNL     1      -7.163   4.702   0.982  0.00  0.00    +0.022 A 
ATOM     29  C   UNL     1      -8.145   5.049   0.070  0.00  0.00    +0.041 A 
ATOM     30  C   UNL     1      -8.595   4.121  -0.852  0.00  0.00    +0.022 A 
ATOM     31  C   UNL     1      -8.066   2.845  -0.864  0.00  0.00    +0.027 A 
ATOM     32 CL   UNL     1      -8.812   6.651   0.083  0.00  0.00    -0.084 Cl
ENDBRANCH  25  26
ENDBRANCH  20  21
ENDBRANCH  19  20
ENDBRANCH   2  19
TORSDOF 5
