REMARK  Name = ZINC10785989
REMARK  6 active torsions:
REMARK  status: ('A' for Active; 'I' for Inactive)
REMARK    1  A    between atoms: C_1  and  C_2
REMARK    2  A    between atoms: C_5  and  O_34
REMARK    3  A    between atoms: C_17  and  C_19
REMARK    4  A    between atoms: N_25  and  S_26
REMARK    5  A    between atoms: S_26  and  C_29
REMARK    6  A    between atoms: O_34  and  C_35
REMARK                            x       y       z     vdW  Elec       q    Type
REMARK                         _______ _______ _______ _____ _____    ______ ____
ROOT
ATOM      1  C   UNL     1     -11.131   5.577   5.057  0.00  0.00    +0.045 C 
ATOM      2  C   UNL     1     -11.359   4.625   3.911  0.00  0.00    -0.034 A 
ATOM      3  C   UNL     1     -12.607   4.533   3.322  0.00  0.00    +0.008 A 
ATOM      4  C   UNL     1     -12.797   3.652   2.268  0.00  0.00    +0.048 A 
ATOM      5  C   UNL     1     -11.772   2.867   1.795  0.00  0.00    +0.147 A 
ATOM      6  C   UNL     1     -10.481   2.937   2.376  0.00  0.00    +0.122 A 
ATOM      7  C   UNL     1     -10.328   3.845   3.446  0.00  0.00    +0.047 A 
ATOM      8  S   UNL     1      -8.620   3.630   3.885  0.00  0.00    -0.052 S 
ATOM      9  C   UNL     1      -8.226   2.395   2.654  0.00  0.00    +0.162 A 
ATOM     10  N   UNL     1      -9.373   2.241   2.035  0.00  0.00    -0.221 NA
ATOM     11  N   UNL     1      -7.022   1.760   2.419  0.00  0.00    -0.307 N 
ATOM     12  C   UNL     1      -7.140   0.804   1.310  0.00  0.00    +0.126 C 
ATOM     13  C   UNL     1      -5.844  -0.006   1.199  0.00  0.00    +0.127 C 
ATOM     14  N   UNL     1      -4.715   0.931   1.095  0.00  0.00    -0.297 N 
ATOM     15  C   UNL     1      -4.604   2.001   2.098  0.00  0.00    +0.127 C 
ATOM     16  C   UNL     1      -5.952   2.735   2.171  0.00  0.00    +0.126 C 
ATOM     17  C   UNL     1      -3.803   0.809   0.110  0.00  0.00    +0.235 C 
ATOM     18  O   UNL     1      -3.948  -0.034  -0.750  0.00  0.00    -0.274 OA
ENDROOT
BRANCH  17  19
ATOM     19  C   UNL     1      -2.603   1.720   0.077  0.00  0.00    +0.166 C 
ATOM     20  C   UNL     1      -1.319   0.884   0.089  0.00  0.00    +0.030 C 
ATOM     21  C   UNL     1      -0.111   1.808  -0.083  0.00  0.00    +0.003 C 
ATOM     22  C   UNL     1      -0.207   2.529  -1.430  0.00  0.00    +0.017 C 
ATOM     23  C   UNL     1      -1.478   3.384  -1.459  0.00  0.00    +0.110 C 
ATOM     24  N   UNL     1      -2.631   2.527  -1.150  0.00  0.00    -0.164 NA
BRANCH  24  25
ATOM     25  S   UNL     1      -3.937   2.472  -2.167  0.00  0.00    +0.068 S 
ATOM     26  O   UNL     1      -5.016   1.935  -1.413  0.00  0.00    -0.152 OA
ATOM     27  O   UNL     1      -4.010   3.740  -2.804  0.00  0.00    -0.152 OA
BRANCH  25  28
ATOM     28  C   UNL     1      -3.568   1.296  -3.426  0.00  0.00    +0.143 A 
ATOM     29  C   UNL     1      -3.936  -0.005  -3.513  0.00  0.00    +0.036 A 
ATOM     30  C   UNL     1      -3.529  -0.746  -4.607  0.00  0.00    +0.010 A 
ATOM     31  C   UNL     1      -2.766  -0.150  -5.556  0.00  0.00    +0.047 A 
ATOM     32  S   UNL     1      -2.607   1.508  -4.915  0.00  0.00    -0.077 S 
ENDBRANCH  25  28
ENDBRANCH  24  25
ENDBRANCH  17  19
BRANCH   5  33
ATOM     33  O   UNL     1     -11.998   2.016   0.759  0.00  0.00    -0.493 OA
ATOM     34  C   UNL     1     -13.320   1.991   0.217  0.00  0.00    +0.277 C 
ENDBRANCH   5  33
TORSDOF 4
