REMARK  Name = ZINC20719805
REMARK  3 active torsions:
REMARK  status: ('A' for Active; 'I' for Inactive)
REMARK    1  A    between atoms: C_1  and  C_2
REMARK    2  A    between atoms: C_2  and  C_4
REMARK    3  A    between atoms: C_17  and  C_20
REMARK                            x       y       z     vdW  Elec       q    Type
REMARK                         _______ _______ _______ _____ _____    ______ ____
ROOT
ATOM      1  C   UNL     1       6.994   8.146  -0.936  0.00  0.00    +0.017 A 
ATOM      2  C   UNL     1       7.469   7.131  -0.094  0.00  0.00    +0.013 A 
ATOM      3  C   UNL     1       6.623   6.152   0.337  0.00  0.00    +0.024 A 
ATOM      4  C   UNL     1       5.284   6.149  -0.052  0.00  0.00    +0.031 A 
ATOM      5  C   UNL     1       4.805   7.173  -0.884  0.00  0.00    -0.019 A 
ATOM      6  C   UNL     1       5.648   8.150  -1.323  0.00  0.00    +0.017 A 
ATOM      7  C   UNL     1       3.372   7.141  -1.250  0.00  0.00    +0.049 C 
ATOM      8  C   UNL     1       2.864   7.765  -2.498  0.00  0.00    -0.023 C 
ATOM      9  C   UNL     1       1.810   7.074  -2.918  0.00  0.00    -0.030 C 
ATOM     10  C   UNL     1       1.552   5.892  -1.981  0.00  0.00    +0.033 C 
ATOM     11  C   UNL     1       2.951   5.648  -1.399  0.00  0.00    +0.029 C 
ATOM     12  C   UNL     1       3.027   5.065   0.000  0.00  0.00    +0.107 C 
ATOM     13  N   UNL     1       4.457   5.114   0.377  0.00  0.00    -0.336 N 
ATOM     14  H   UNL     1       4.887   4.323   1.008  0.00  0.00    +0.147 HD
ENDROOT
BRANCH  12  15
ATOM     15  C   UNL     1       2.539   3.639  -0.003  0.00  0.00    -0.002 A 
ATOM     16  C   UNL     1       3.301   2.534  -0.016  0.00  0.00    +0.089 A 
ATOM     17  N   UNL     1       2.507   1.420  -0.014  0.00  0.00    -0.360 N 
ATOM     18  H   UNL     1       2.964   0.419  -0.023  0.00  0.00    +0.165 HD
ATOM     19  C   UNL     1       1.181   1.790   0.000  0.00  0.00    +0.047 A 
ATOM     20  C   UNL     1       1.143   3.196   0.008  0.00  0.00    +0.005 A 
ATOM     21  C   UNL     1      -0.085   3.860   0.023  0.00  0.00    +0.010 A 
ATOM     22  C   UNL     1      -1.246   3.138   0.030  0.00  0.00    +0.001 A 
ATOM     23  C   UNL     1      -1.214   1.751   0.017  0.00  0.00    +0.002 A 
ATOM     24  C   UNL     1      -0.013   1.076   0.008  0.00  0.00    +0.026 A 
ENDBRANCH  12  15
BRANCH   1  26
ATOM     25  C   UNL     1       9.349   9.188  -0.991  0.00  0.00    +0.091 C 
ATOM     26  C   UNL     1       7.902   9.197  -1.410  0.00  0.00    +0.160 C 
ATOM     27  O   UNL     1       7.487  10.074  -2.138  0.00  0.00    -0.292 OA
ENDBRANCH   1  26
TORSDOF 2
