REMARK  Name = ZINC05373624
REMARK  6 active torsions:
REMARK  status: ('A' for Active; 'I' for Inactive)
REMARK    1  A    between atoms: C_1  and  O_2
REMARK    2  A    between atoms: O_2  and  C_3
REMARK    3  A    between atoms: C_7  and  C_9
REMARK    4  A    between atoms: N_13  and  C_17
REMARK    5  A    between atoms: C_20  and  O_25
REMARK    6  A    between atoms: C_21  and  C_23
REMARK                            x       y       z     vdW  Elec       q    Type
REMARK                         _______ _______ _______ _____ _____    ______ ____
ROOT
ATOM      1  C   UNL     1      -2.442   1.010  -0.463  0.00  0.00    +0.028 C 
ATOM      2  C   UNL     1      -2.458  -0.341  -0.342  0.00  0.00    +0.078 C 
ATOM      3  C   UNL     1      -3.588  -1.286  -0.472  0.00  0.00    +0.263 C 
ATOM      4  O   UNL     1      -4.715  -0.904  -0.725  0.00  0.00    -0.269 OA
ATOM      5  N   UNL     1      -3.309  -2.568  -0.305  0.00  0.00    -0.224 N 
ATOM      6  C   UNL     1      -2.060  -2.986  -0.018  0.00  0.00    +0.125 C 
ATOM      7  S   UNL     1      -1.507  -4.586   0.239  0.00  0.00    -0.027 S 
ATOM      8  S   UNL     1      -1.121  -1.468   0.028  0.00  0.00    -0.061 S 
ENDROOT
BRANCH   1  13
ATOM      9  C   UNL     1       1.242   1.722  -0.434  0.00  0.00    +0.121 A 
ATOM     10  C   UNL     1       1.244   3.110  -0.370  0.00  0.00    +0.045 A 
ATOM     11  C   UNL     1       0.051   3.809  -0.340  0.00  0.00    +0.004 A 
ATOM     12  C   UNL     1      -1.151   3.133  -0.374  0.00  0.00    +0.008 A 
ATOM     13  C   UNL     1      -1.164   1.735  -0.433  0.00  0.00    -0.020 A 
ATOM     14  C   UNL     1       0.044   1.032  -0.469  0.00  0.00    +0.053 A 
BRANCH   9  16
ATOM     15  C   UNL     1       3.618   1.819  -0.425  0.00  0.00    +0.277 C 
ATOM     16  O   UNL     1       2.419   1.043  -0.464  0.00  0.00    -0.495 OA
ENDBRANCH   9  16
ENDBRANCH   1  13
BRANCH   5  17
ATOM     17  C   UNL     1      -4.339  -3.514  -0.421  0.00  0.00    +0.044 A 
ATOM     18  C   UNL     1      -4.341  -4.409  -1.486  0.00  0.00    +0.027 A 
ATOM     19  C   UNL     1      -5.349  -5.344  -1.609  0.00  0.00    +0.048 A 
ATOM     20  C   UNL     1      -6.369  -5.396  -0.670  0.00  0.00    +0.131 A 
ATOM     21  C   UNL     1      -6.373  -4.497   0.405  0.00  0.00    +0.106 A 
ATOM     22  C   UNL     1      -5.346  -3.557   0.526  0.00  0.00    +0.042 A 
BRANCH  21  23
ATOM     23  C   UNL     1      -7.454  -4.546   1.407  0.00  0.00    +0.390 C 
ATOM     24  O   UNL     1      -8.343  -5.367   1.302  0.00  0.00    -0.240 OA
ATOM     25  O   UNL     1      -7.455  -3.680   2.439  0.00  0.00    -0.240 OA
ENDBRANCH  21  23
BRANCH  20  26
ATOM     26  O   UNL     1      -7.359  -6.316  -0.792  0.00  0.00    -0.506 OA
ATOM     27  H   UNL     1      -7.174  -7.154  -0.347  0.00  0.00    +0.292 HD
ENDBRANCH  20  26
ENDBRANCH   5  17
TORSDOF 5
