REMARK  Name = ZINC09243309
REMARK  10 active torsions:
REMARK  status: ('A' for Active; 'I' for Inactive)
REMARK    1  A    between atoms: C_1  and  C_2
REMARK    2  A    between atoms: C_4  and  C_35
REMARK    3  A    between atoms: C_5  and  O_34
REMARK    4  A    between atoms: C_6  and  C_8
REMARK    5  A    between atoms: N_16  and  C_28
REMARK    6  A    between atoms: C_17  and  C_19
REMARK    7  A    between atoms: C_22  and  O_27
REMARK    8  A    between atoms: C_23  and  O_25
REMARK    9  A    between atoms: O_25  and  C_26
REMARK   10  A    between atoms: C_28  and  C_29
REMARK                            x       y       z     vdW  Elec       q    Type
REMARK                         _______ _______ _______ _____ _____    ______ ____
ROOT
ATOM      1  C   UNL     1       0.446  -2.605   2.344  0.00  0.00    +0.102 A 
ATOM      2  C   UNL     1       0.359  -2.183   3.675  0.00  0.00    +0.035 A 
ATOM      3  C   UNL     1       0.470  -3.328   4.440  0.00  0.00    +0.126 A 
ATOM      4  N   UNL     1       0.614  -4.361   3.559  0.00  0.00    -0.272 N 
ATOM      5  H   UNL     1       0.715  -5.294   3.805  0.00  0.00    +0.189 HD
ATOM      6  N   UNL     1       0.592  -3.915   2.353  0.00  0.00    -0.173 NA
ATOM      7  C   UNL     1       0.386  -2.953   5.856  0.00  0.00    +0.266 C 
ATOM      8  O   UNL     1       0.451  -3.733   6.787  0.00  0.00    -0.268 OA
ATOM      9  N   UNL     1       0.229  -1.622   5.980  0.00  0.00    -0.278 N 
ATOM     10  C   UNL     1       0.199  -1.035   4.634  0.00  0.00    +0.142 C 
ENDROOT
BRANCH   1  16
ATOM     11  C   UNL     1       0.287   1.951   0.307  0.00  0.00    +0.044 C 
ATOM     12  C   UNL     1       0.302   0.451   0.158  0.00  0.00    -0.049 A 
ATOM     13  C   UNL     1       0.252  -0.116  -1.104  0.00  0.00    +0.010 A 
ATOM     14  C   UNL     1       0.265  -1.490  -1.251  0.00  0.00    -0.008 A 
ATOM     15  C   UNL     1       0.328  -2.307  -0.134  0.00  0.00    +0.129 A 
ATOM     16  C   UNL     1       0.379  -1.737   1.141  0.00  0.00    +0.044 A 
ATOM     17  C   UNL     1       0.371  -0.351   1.278  0.00  0.00    +0.017 A 
ATOM     18  C   UNL     1       0.211  -2.100  -2.628  0.00  0.00    +0.047 C 
BRANCH  15  19
ATOM     19  O   UNL     1       0.340  -3.658  -0.277  0.00  0.00    -0.506 OA
ATOM     20  H   UNL     1       1.226  -4.037  -0.359  0.00  0.00    +0.292 HD
ENDBRANCH  15  19
ENDBRANCH   1  16
BRANCH  10  21
ATOM     21  C   UNL     1      -1.119  -0.343   4.399  0.00  0.00    -0.019 A 
ATOM     22  C   UNL     1      -1.145   0.908   3.811  0.00  0.00    +0.009 A 
ATOM     23  C   UNL     1      -2.352   1.547   3.593  0.00  0.00    +0.049 A 
ATOM     24  C   UNL     1      -3.538   0.934   3.964  0.00  0.00    +0.158 A 
ATOM     25  C   UNL     1      -3.511  -0.326   4.555  0.00  0.00    +0.162 A 
ATOM     26  C   UNL     1      -2.299  -0.963   4.766  0.00  0.00    +0.055 A 
BRANCH  25  27
ATOM     27  O   UNL     1      -4.672  -0.932   4.920  0.00  0.00    -0.491 OA
ATOM     28  C   UNL     1      -4.579  -2.271   5.409  0.00  0.00    +0.277 C 
ENDBRANCH  25  27
BRANCH  24  29
ATOM     29  O   UNL     1      -4.725   1.562   3.750  0.00  0.00    -0.503 OA
ATOM     30  H   UNL     1      -5.124   1.368   2.891  0.00  0.00    +0.292 HD
ENDBRANCH  24  29
ENDBRANCH  10  21
BRANCH   9  31
ATOM     31  C   UNL     1       0.109  -0.885   7.240  0.00  0.00    +0.183 C 
BRANCH  31  32
ATOM     32  C   UNL     1       1.478  -0.469   7.712  0.00  0.00    +0.122 A 
ATOM     33  C   UNL     1       2.098   0.685   7.407  0.00  0.00    +0.046 A 
ATOM     34  C   UNL     1       3.353   0.660   8.057  0.00  0.00    +0.041 A 
ATOM     35  C   UNL     1       3.426  -0.508   8.720  0.00  0.00    +0.195 A 
ATOM     36  O   UNL     1       2.285  -1.186   8.512  0.00  0.00    -0.466 OA
ENDBRANCH  31  32
ENDBRANCH   9  31
TORSDOF 7
