REMARK  Name = ZINC39450855
REMARK  3 active torsions:
REMARK  status: ('A' for Active; 'I' for Inactive)
REMARK    1  A    between atoms: C_4  and  O_7
REMARK    2  A    between atoms: O_7  and  S_8
REMARK    3  A    between atoms: S_8  and  N_11
REMARK                            x       y       z     vdW  Elec       q    Type
REMARK                         _______ _______ _______ _____ _____    ______ ____
ROOT
ATOM      1  N   UNL     1       3.249  -2.193   1.963  0.00  0.00    -0.141 N 
ATOM      2  C   UNL     1       2.167  -1.907   2.785  0.00  0.00    +0.137 A 
ATOM      3  C   UNL     1       1.398  -2.920   3.326  0.00  0.00    +0.085 A 
ATOM      4  C   UNL     1       1.720  -4.321   3.024  0.00  0.00    +0.099 A 
ATOM      5  C   UNL     1       2.824  -4.585   2.184  0.00  0.00    +0.069 A 
ATOM      6  C   UNL     1       3.594  -3.455   1.646  0.00  0.00    +0.283 A 
ATOM      7  O   UNL     1       4.548  -3.660   0.917  0.00  0.00    -0.265 OA
ATOM      8  C   UNL     1       3.151  -5.908   1.883  0.00  0.00    +0.032 A 
ATOM      9  C   UNL     1       2.366  -6.910   2.428  0.00  0.00    +0.037 A 
ATOM     10  C   UNL     1       1.295  -6.575   3.246  0.00  0.00    +0.126 A 
ATOM     11  N   UNL     1       1.004  -5.322   3.519  0.00  0.00    -0.252 NA
ATOM     12 BR   UNL     1       2.751  -8.725   2.061  0.00  0.00    -0.049 Br
ATOM     13  N   UNL     1       0.336  -2.611   4.154  0.00  0.00    -0.311 N 
ATOM     14  C   UNL     1       0.380  -1.346   4.903  0.00  0.00    +0.259 C 
ATOM     15  C   UNL     1       0.652  -0.210   3.911  0.00  0.00    +0.138 C 
ATOM     16  C   UNL     1       1.854  -0.558   3.071  0.00  0.00    +0.187 C 
ATOM     17  O   UNL     1       2.561   0.329   2.637  0.00  0.00    -0.290 OA
ATOM     18  F   UNL     1       1.403  -1.397   5.855  0.00  0.00    -0.224 F 
ATOM     19  H   UNL     1      -0.421  -3.213   4.237  0.00  0.00    +0.149 HD
ENDROOT
BRANCH   1  20
ATOM     20  S   UNL     1       4.140  -0.941   1.346  0.00  0.00    +0.224 S 
ATOM     21  O   UNL     1       3.223  -0.070   0.700  0.00  0.00    -0.113 OA
ATOM     22  O   UNL     1       5.245  -1.524   0.668  0.00  0.00    -0.113 OA
BRANCH  20  23
ATOM     23  O   UNL     1       4.712  -0.171   2.528  0.00  0.00    -0.329 OA
BRANCH  23  27
ATOM     24  C   UNL     1       7.862  -2.066   4.401  0.00  0.00    +0.000 A 
ATOM     25  C   UNL     1       8.104  -1.195   3.355  0.00  0.00    +0.004 A 
ATOM     26  C   UNL     1       7.051  -0.560   2.726  0.00  0.00    +0.048 A 
ATOM     27  C   UNL     1       5.750  -0.795   3.145  0.00  0.00    +0.158 A 
ATOM     28  C   UNL     1       5.509  -1.670   4.195  0.00  0.00    +0.048 A 
ATOM     29  C   UNL     1       6.566  -2.302   4.821  0.00  0.00    +0.004 A 
ENDBRANCH  23  27
ENDBRANCH  20  23
ENDBRANCH   1  20
TORSDOF 3
