REMARK  Name = ZINC66513026
REMARK  8 active torsions:
REMARK  status: ('A' for Active; 'I' for Inactive)
REMARK    1  A    between atoms: C_1  and  C_2
REMARK    2  A    between atoms: C_2  and  C_3
REMARK    3  A    between atoms: C_3  and  C_28
REMARK    4  A    between atoms: N_6  and  C_10
REMARK    5  A    between atoms: C_10  and  C_11
REMARK    6  A    between atoms: C_15  and  C_22
REMARK    7  A    between atoms: C_19  and  C_20
REMARK    8  A    between atoms: C_19  and  C_21
REMARK                            x       y       z     vdW  Elec       q    Type
REMARK                         _______ _______ _______ _____ _____    ______ ____
ROOT
ATOM      1  C   UNL     1      -3.575  -4.253  -1.111  0.00  0.00    +0.234 C 
ATOM      2  O   UNL     1      -4.234  -3.536  -0.388  0.00  0.00    -0.274 OA
ATOM      3  N   UNL     1      -4.052  -5.458  -1.481  0.00  0.00    -0.290 N 
ATOM      4  C   UNL     1      -3.325  -6.297  -2.446  0.00  0.00    +0.144 C 
ATOM      5  C   UNL     1      -3.179  -7.703  -1.851  0.00  0.00    +0.166 C 
ATOM      6  O   UNL     1      -4.464  -8.175  -1.441  0.00  0.00    -0.368 OA
ATOM      7  C   UNL     1      -5.074  -7.394  -0.411  0.00  0.00    +0.186 C 
ATOM      8  C   UNL     1      -5.314  -5.976  -0.927  0.00  0.00    +0.055 C 
ATOM      9  C   UNL     1      -5.776  -5.081   0.225  0.00  0.00    +0.034 C 
ATOM     10  C   UNL     1      -6.383  -6.003  -2.021  0.00  0.00    +0.034 C 
ENDROOT
BRANCH   5  11
ATOM     11  C   UNL     1      -2.608  -8.632  -2.891  0.00  0.00    -0.017 A 
ATOM     12  C   UNL     1      -3.428  -9.163  -3.869  0.00  0.00    +0.006 A 
ATOM     13  C   UNL     1      -2.904 -10.016  -4.822  0.00  0.00    +0.000 A 
ATOM     14  C   UNL     1      -1.560 -10.337  -4.798  0.00  0.00    +0.000 A 
ATOM     15  C   UNL     1      -0.740  -9.806  -3.821  0.00  0.00    +0.000 A 
ATOM     16  C   UNL     1      -1.263  -8.950  -2.870  0.00  0.00    +0.006 A 
ENDBRANCH   5  11
BRANCH   1  17
ATOM     17  C   UNL     1      -2.222  -3.798  -1.594  0.00  0.00    +0.213 C 
BRANCH  17  21
ATOM     18  C   UNL     1      -1.232  -0.734   0.257  0.00  0.00    +0.110 C 
ATOM     19  C   UNL     1      -1.309  -2.241   0.117  0.00  0.00    +0.247 C 
ATOM     20  O   UNL     1      -0.896  -3.072   0.897  0.00  0.00    -0.273 OA
ATOM     21  N   UNL     1      -1.934  -2.466  -1.056  0.00  0.00    -0.215 N 
ATOM     22  C   UNL     1      -2.258  -1.322  -1.670  0.00  0.00    +0.310 C 
ATOM     23  O   UNL     1      -2.829  -1.268  -2.742  0.00  0.00    -0.252 OA
ATOM     24  N   UNL     1      -1.882  -0.238  -0.968  0.00  0.00    -0.285 N 
ATOM     25  C   UNL     1      -1.993  -0.266   1.499  0.00  0.00    +0.041 C 
ATOM     26  H   UNL     1      -2.014   0.690  -1.218  0.00  0.00    +0.151 HD
BRANCH  18  28
ATOM     27  C   UNL     1       0.278   1.255   0.349  0.00  0.00    +0.006 C 
ATOM     28  C   UNL     1       0.226  -0.274   0.317  0.00  0.00    +0.031 C 
ENDBRANCH  18  28
ENDBRANCH  17  21
ENDBRANCH   1  17
TORSDOF 4
