REMARK  Name = ZINC59170779
REMARK  7 active torsions:
REMARK  status: ('A' for Active; 'I' for Inactive)
REMARK    1  A    between atoms: C_1  and  C_2
REMARK    2  A    between atoms: C_2  and  O_3
REMARK    3  A    between atoms: O_3  and  C_4
REMARK    4  A    between atoms: N_12  and  C_13
REMARK    5  A    between atoms: C_17  and  C_19
REMARK    6  A    between atoms: C_20  and  C_22
REMARK    7  A    between atoms: C_22  and  N_24
REMARK                            x       y       z     vdW  Elec       q    Type
REMARK                         _______ _______ _______ _____ _____    ______ ____
ROOT
ATOM      1  C   UNL     1       1.153  -1.569  -1.266  0.00  0.00    +0.164 A 
ATOM      2  C   UNL     1       0.432  -2.301  -0.338  0.00  0.00    +0.064 A 
ATOM      3  C   UNL     1       0.189  -3.652  -0.539  0.00  0.00    +0.022 A 
ATOM      4  C   UNL     1       0.662  -4.286  -1.666  0.00  0.00    +0.027 A 
ATOM      5  C   UNL     1       1.395  -3.561  -2.614  0.00  0.00    +0.023 A 
ATOM      6  C   UNL     1       1.634  -2.189  -2.415  0.00  0.00    +0.179 A 
ATOM      7  O   UNL     1       2.331  -1.484  -3.340  0.00  0.00    -0.435 OA
ATOM      8  C   UNL     1       3.227  -2.171  -4.092  0.00  0.00    +0.209 A 
ATOM      9  N   UNL     1       4.404  -1.660  -4.381  0.00  0.00    -0.325 N 
ATOM     10  C   UNL     1       2.840  -3.512  -4.577  0.00  0.00    +0.064 A 
ATOM     11  C   UNL     1       1.916  -4.214  -3.818  0.00  0.00    +0.027 A 
ATOM     12 BR   UNL     1      -0.799  -4.630   0.743  0.00  0.00    -0.050 Br
ATOM     13  H   UNL     1       5.070  -2.201  -4.834  0.00  0.00    +0.169 HD
ENDROOT
BRANCH   9  14
ATOM     14  C   UNL     1       4.689  -0.366  -4.043  0.00  0.00    +0.042 A 
ATOM     15  C   UNL     1       3.753   0.644  -4.280  0.00  0.00    +0.026 A 
ATOM     16  C   UNL     1       4.048   1.947  -3.936  0.00  0.00    +0.002 A 
ATOM     17  C   UNL     1       5.266   2.255  -3.357  0.00  0.00    +0.003 A 
ATOM     18  C   UNL     1       6.198   1.260  -3.120  0.00  0.00    -0.049 A 
ATOM     19  C   UNL     1       5.915  -0.049  -3.453  0.00  0.00    +0.029 A 
ATOM     20  C   UNL     1       7.523   1.605  -2.490  0.00  0.00    +0.044 C 
ENDBRANCH   9  14
BRANCH  10  21
ATOM     21  C   UNL     1       3.417  -4.081  -5.804  0.00  0.00    +0.082 C 
ATOM     22  S   UNL     1       4.435  -3.124  -6.795  0.00  0.00    -0.035 S 
BRANCH  21  23
ATOM     23  N   UNL     1       3.146  -5.355  -6.149  0.00  0.00    -0.352 N 
ATOM     24  H   UNL     1       2.569  -5.897  -5.588  0.00  0.00    +0.143 HD
ATOM     25  H   UNL     1       3.526  -5.730  -6.959  0.00  0.00    +0.143 HD
ENDBRANCH  21  23
ENDBRANCH  10  21
BRANCH   1  26
ATOM     26  O   UNL     1       1.385  -0.245  -1.059  0.00  0.00    -0.489 OA
BRANCH  26  28
ATOM     27  C   UNL     1       1.220   1.811   0.201  0.00  0.00    +0.048 C 
ATOM     28  C   UNL     1       0.861   0.324   0.143  0.00  0.00    +0.226 C 
ENDBRANCH  26  28
ENDBRANCH   1  26
TORSDOF 5
