REMARK  Name = ZINC62465857
REMARK  4 active torsions:
REMARK  status: ('A' for Active; 'I' for Inactive)
REMARK    1  A    between atoms: C_4  and  C_7
REMARK    2  A    between atoms: N_9  and  C_10
REMARK    3  A    between atoms: N_18  and  C_19
REMARK    4  A    between atoms: C_22  and  O_25
REMARK                            x       y       z     vdW  Elec       q    Type
REMARK                         _______ _______ _______ _____ _____    ______ ____
ROOT
ATOM      1  C   UNL     1       3.684  -2.251  -3.930  0.00  0.00    +0.076 C 
ATOM      2  C   UNL     1       5.194  -2.281  -3.680  0.00  0.00    +0.041 C 
ATOM      3  C   UNL     1       5.909  -2.741  -4.955  0.00  0.00    +0.111 C 
ATOM      4  N   UNL     1       5.341  -4.029  -5.377  0.00  0.00    -0.286 N 
ATOM      5  C   UNL     1       3.887  -4.134  -5.559  0.00  0.00    +0.111 C 
ATOM      6  C   UNL     1       3.195  -3.658  -4.278  0.00  0.00    +0.041 C 
ATOM      7  C   UNL     1       6.139  -5.093  -5.594  0.00  0.00    +0.302 C 
ATOM      8  O   UNL     1       7.347  -4.970  -5.530  0.00  0.00    -0.253 OA
ATOM      9  N   UNL     1       5.598  -6.293  -5.882  0.00  0.00    -0.296 N 
ATOM     10  H   UNL     1       4.639  -6.376  -6.006  0.00  0.00    +0.151 HD
ENDROOT
BRANCH   9  11
ATOM     11  C   UNL     1       6.457  -7.473  -6.009  0.00  0.00    +0.075 C 
ATOM     12  C   UNL     1       6.699  -8.078  -4.625  0.00  0.00    +0.025 C 
ATOM     13  C   UNL     1       7.597  -9.310  -4.756  0.00  0.00    +0.033 C 
ATOM     14  C   UNL     1       6.914 -10.345  -5.653  0.00  0.00    +0.115 C 
ATOM     15  C   UNL     1       6.672  -9.739  -7.038  0.00  0.00    +0.033 C 
ATOM     16  C   UNL     1       5.775  -8.507  -6.906  0.00  0.00    +0.025 C 
BRANCH  14  17
ATOM     17  O   UNL     1       5.664 -10.726  -5.075  0.00  0.00    -0.392 OA
ATOM     18  H   UNL     1       5.175 -11.381  -5.592  0.00  0.00    +0.210 HD
ENDBRANCH  14  17
ENDBRANCH   9  11
BRANCH   1  21
ATOM     19  C   UNL     1       2.860  -0.457  -2.501  0.00  0.00    +0.216 C 
ATOM     20  O   UNL     1       3.302   0.342  -3.299  0.00  0.00    -0.276 OA
ATOM     21  N   UNL     1       2.999  -1.779  -2.724  0.00  0.00    -0.312 N 
ATOM     22  H   UNL     1       2.646  -2.419  -2.086  0.00  0.00    +0.149 HD
BRANCH  19  26
ATOM     23  C   UNL     1      -0.016   1.519   0.021  0.00  0.00    +0.000 C 
ATOM     24  C   UNL     1       1.419   2.049   0.010  0.00  0.00    +0.001 C 
ATOM     25  C   UNL     1       2.135   1.557  -1.250  0.00  0.00    +0.013 C 
ATOM     26  C   UNL     1       2.156   0.027  -1.260  0.00  0.00    +0.075 C 
ATOM     27  C   UNL     1       0.721  -0.502  -1.249  0.00  0.00    +0.013 C 
ATOM     28  C   UNL     1       0.005  -0.010   0.011  0.00  0.00    +0.001 C 
ENDBRANCH  19  26
ENDBRANCH   1  21
TORSDOF 4
