REMARK  Name = ZINC39698883
REMARK  6 active torsions:
REMARK  status: ('A' for Active; 'I' for Inactive)
REMARK    1  A    between atoms: C_7  and  C_10
REMARK    2  A    between atoms: C_13  and  S_16
REMARK    3  A    between atoms: S_16  and  C_17
REMARK    4  A    between atoms: C_17  and  C_18
REMARK    5  A    between atoms: N_20  and  C_21
REMARK    6  A    between atoms: C_21  and  C_22
REMARK                            x       y       z     vdW  Elec       q    Type
REMARK                         _______ _______ _______ _____ _____    ______ ____
ROOT
ATOM      1  S   UNL     1      -0.167  -6.280   1.465  0.00  0.00    -0.087 S 
ENDROOT
BRANCH   1   5
ATOM      2  C   UNL     1       0.676  -3.129  -0.021  0.00  0.00    +0.238 C 
ATOM      3  N   UNL     1      -0.625  -3.009  -0.013  0.00  0.00    -0.145 NA
ATOM      4  N   UNL     1      -1.227  -4.276  -0.013  0.00  0.00    -0.219 N 
ATOM      5  C   UNL     1      -0.115  -5.241  -0.021  0.00  0.00    +0.339 C 
ATOM      6  O   UNL     1       1.066  -4.427  -0.031  0.00  0.00    -0.443 OA
ATOM      7  H   UNL     1      -2.177  -4.474  -0.008  0.00  0.00    +0.173 HD
BRANCH   2  14
ATOM      8  C   UNL     1      -0.016   1.354   0.009  0.00  0.00    +0.001 A 
ATOM      9  C   UNL     1       1.163   2.101   0.002  0.00  0.00    +0.002 A 
ATOM     10  C   UNL     1       2.384   1.511  -0.013  0.00  0.00    +0.026 A 
ATOM     11  C   UNL     1       2.483   0.096  -0.021  0.00  0.00    +0.043 A 
ATOM     12  N   UNL     1       3.531  -0.705  -0.036  0.00  0.00    -0.380 N 
ATOM     13  C   UNL     1       3.075  -2.099  -0.039  0.00  0.00    +0.154 C 
ATOM     14  C   UNL     1       1.563  -2.044  -0.024  0.00  0.00    +0.043 C 
ATOM     15  C   UNL     1       1.237  -0.687  -0.013  0.00  0.00    +0.008 A 
ATOM     16  C   UNL     1       0.002  -0.004   0.002  0.00  0.00    +0.010 A 
ATOM     17  H   UNL     1       4.457  -0.418  -0.044  0.00  0.00    +0.160 HD
ENDBRANCH   2  14
ENDBRANCH   1   5
BRANCH   1  18
ATOM     18  C   UNL     1      -0.019  -5.097   2.832  0.00  0.00    +0.170 C 
BRANCH  18  19
ATOM     19  C   UNL     1      -0.048  -5.838   4.144  0.00  0.00    +0.223 C 
ATOM     20  O   UNL     1      -0.158  -7.046   4.155  0.00  0.00    -0.275 OA
ATOM     21  N   UNL     1       0.048  -5.160   5.304  0.00  0.00    -0.311 N 
ATOM     22  H   UNL     1       0.136  -4.194   5.295  0.00  0.00    +0.149 HD
BRANCH  21  23
ATOM     23  C   UNL     1       0.019  -5.881   6.579  0.00  0.00    +0.152 C 
BRANCH  23  24
ATOM     24  C   UNL     1       0.143  -4.883   7.732  0.00  0.00    +0.228 C 
ATOM     25  C   UNL     1       0.128  -5.634   9.070  0.00  0.00    +0.275 C 
ATOM     26  O   UNL     1       0.261  -4.675  10.124  0.00  0.00    -0.485 OA
ATOM     27  C   UNL     1       1.226  -3.727   9.971  0.00  0.00    +0.162 A 
ATOM     28  C   UNL     1       1.654  -3.006  11.076  0.00  0.00    +0.049 A 
ATOM     29  C   UNL     1       2.630  -2.039  10.936  0.00  0.00    +0.004 A 
ATOM     30  C   UNL     1       3.183  -1.786   9.694  0.00  0.00    +0.004 A 
ATOM     31  C   UNL     1       2.762  -2.502   8.589  0.00  0.00    +0.049 A 
ATOM     32  C   UNL     1       1.783  -3.475   8.723  0.00  0.00    +0.163 A 
ATOM     33  O   UNL     1       1.384  -4.177   7.627  0.00  0.00    -0.480 OA
ENDBRANCH  23  24
ENDBRANCH  21  23
ENDBRANCH  18  19
ENDBRANCH   1  18
TORSDOF 6
