REMARK  Name = ZINC39665589
REMARK  11 active torsions:
REMARK  status: ('A' for Active; 'I' for Inactive)
REMARK    1  A    between atoms: C_1  and  C_2
REMARK    2  A    between atoms: C_2  and  C_4
REMARK    3  A    between atoms: C_2  and  O_28
REMARK    4  A    between atoms: C_4  and  N_5
REMARK    5  A    between atoms: C_6  and  C_8
REMARK    6  A    between atoms: C_19  and  C_21
REMARK    7  A    between atoms: C_21  and  C_22
REMARK    8  A    between atoms: C_22  and  C_23
REMARK    9  A    between atoms: O_28  and  C_29
REMARK   10  A    between atoms: C_32  and  O_35
REMARK   11  A    between atoms: O_35  and  C_36
REMARK                            x       y       z     vdW  Elec       q    Type
REMARK                         _______ _______ _______ _____ _____    ______ ____
ROOT
ATOM      1  C   UNL     1       1.213  -3.717   3.024  0.00  0.00    +0.100 C 
ATOM      2  C   UNL     1      -0.260  -4.164   3.155  0.00  0.00    +0.121 C 
ATOM      3  N   UNL     1      -0.244  -5.202   4.213  0.00  0.00    -0.300 N 
ATOM      4  C   UNL     1       0.721  -4.691   5.216  0.00  0.00    +0.115 C 
ATOM      5  C   UNL     1       1.853  -4.064   4.379  0.00  0.00    -0.004 C 
ATOM      6  C   UNL     1       2.372  -2.800   5.057  0.00  0.00    -0.010 C 
ATOM      7  C   UNL     1       3.056  -3.177   6.375  0.00  0.00    -0.082 C 
ATOM      8  N   UNL     1       4.163  -4.103   6.106  0.00  0.00    +0.379 N 
ATOM      9  C   UNL     1       3.645  -5.353   5.539  0.00  0.00    -0.082 C 
ATOM     10  C   UNL     1       2.986  -5.068   4.186  0.00  0.00    -0.010 C 
ATOM     11  C   UNL     1      -0.947  -6.351   4.253  0.00  0.00    +0.216 C 
ATOM     12  O   UNL     1      -0.824  -7.105   5.195  0.00  0.00    -0.276 OA
ATOM     13  H   UNL     1       4.803  -3.678   5.451  0.00  0.00    -0.086 HD
ATOM     14  H   UNL     1       4.650  -4.302   6.967  0.00  0.00    -0.086 HD
ENDROOT
BRANCH   1  16
ATOM     15  N   UNL     1       2.329  -1.721   2.081  0.00  0.00    -0.312 N 
ATOM     16  C   UNL     1       1.291  -2.233   2.772  0.00  0.00    +0.218 C 
ATOM     17  O   UNL     1       0.420  -1.501   3.190  0.00  0.00    -0.275 OA
ATOM     18  H   UNL     1       3.025  -2.307   1.746  0.00  0.00    +0.149 HD
BRANCH  15  19
ATOM     19  C   UNL     1       2.404  -0.279   1.835  0.00  0.00    +0.148 C 
BRANCH  19  21
ATOM     20  C   UNL     1       3.749   1.543   0.779  0.00  0.00    +0.053 C 
ATOM     21  C   UNL     1       3.670   0.037   1.036  0.00  0.00    +0.187 C 
BRANCH  21  22
ATOM     22  O   UNL     1       4.818  -0.382   1.776  0.00  0.00    -0.488 OA
BRANCH  22  23
ATOM     23  C   UNL     1       5.941  -0.669   1.065  0.00  0.00    +0.121 A 
ATOM     24  C   UNL     1       7.055  -1.189   1.707  0.00  0.00    +0.049 A 
ATOM     25  C   UNL     1       8.195  -1.482   0.985  0.00  0.00    +0.049 A 
ATOM     26  C   UNL     1       8.226  -1.256  -0.384  0.00  0.00    +0.120 A 
ATOM     27  C   UNL     1       7.111  -0.737  -1.026  0.00  0.00    +0.049 A 
ATOM     28  C   UNL     1       5.970  -0.449  -0.304  0.00  0.00    +0.049 A 
BRANCH  26  29
ATOM     29  O   UNL     1       9.348  -1.543  -1.095  0.00  0.00    -0.495 OA
ATOM     30  C   UNL     1       9.310  -1.286  -2.500  0.00  0.00    +0.277 C 
ENDBRANCH  26  29
ENDBRANCH  22  23
ENDBRANCH  21  22
ENDBRANCH  19  21
ENDBRANCH  15  19
ENDBRANCH   1  16
BRANCH  11  31
ATOM     31  C   UNL     1      -1.886  -6.700   3.127  0.00  0.00    +0.096 C 
BRANCH  31  32
ATOM     32  C   UNL     1      -2.553  -8.046   3.418  0.00  0.00    +0.013 C 
BRANCH  32  33
ATOM     33  C   UNL     1      -3.506  -8.400   2.275  0.00  0.00    -0.011 C 
ATOM     34  C   UNL     1      -4.701  -7.424   2.261  0.00  0.00    +0.003 C 
ATOM     35  C   UNL     1      -5.909  -8.308   1.862  0.00  0.00    +0.000 C 
ATOM     36  C   UNL     1      -5.620  -9.637   2.603  0.00  0.00    +0.000 C 
ATOM     37  C   UNL     1      -4.090  -9.807   2.492  0.00  0.00    +0.003 C 
ENDBRANCH  32  33
ENDBRANCH  31  32
ENDBRANCH  11  31
TORSDOF 9
