REMARK  Name = ZINC32926500
REMARK  7 active torsions:
REMARK  status: ('A' for Active; 'I' for Inactive)
REMARK    1  A    between atoms: C_1  and  C_2
REMARK    2  A    between atoms: C_2  and  C_4
REMARK    3  A    between atoms: C_2  and  N_14
REMARK    4  A    between atoms: C_7  and  N_10
REMARK    5  A    between atoms: C_15  and  C_17
REMARK    6  A    between atoms: C_18  and  C_19
REMARK    7  A    between atoms: N_22  and  C_24
REMARK                            x       y       z     vdW  Elec       q    Type
REMARK                         _______ _______ _______ _____ _____    ______ ____
ROOT
ATOM      1  N   UNL     1      -5.797  -2.426  -0.430  0.00  0.00    -0.305 N 
ATOM      2  C   UNL     1      -6.894  -3.043  -0.912  0.00  0.00    +0.237 C 
ATOM      3  O   UNL     1      -8.000  -2.597  -0.669  0.00  0.00    -0.271 OA
ATOM      4  H   UNL     1      -4.797  -2.830  -0.650  0.00  0.00    +0.150 HD
ENDROOT
BRANCH   1   6
ATOM      5  C   UNL     1      -6.175  -1.614   1.846  0.00  0.00    +0.033 C 
ATOM      6  C   UNL     1      -5.936  -1.218   0.387  0.00  0.00    +0.100 C 
BRANCH   6   7
ATOM      7  C   UNL     1      -4.675  -0.398   0.290  0.00  0.00    -0.027 A 
ATOM      8  C   UNL     1      -4.754   0.980   0.203  0.00  0.00    +0.007 A 
ATOM      9  C   UNL     1      -3.600   1.734   0.113  0.00  0.00    +0.023 A 
ATOM     10  C   UNL     1      -2.361   1.108   0.110  0.00  0.00    +0.035 A 
ATOM     11  C   UNL     1      -2.286  -0.276   0.192  0.00  0.00    +0.023 A 
ATOM     12  C   UNL     1      -3.443  -1.025   0.287  0.00  0.00    +0.007 A 
BRANCH  10  13
ATOM     13  N   UNL     1      -1.191   1.870   0.018  0.00  0.00    -0.270 N 
ATOM     14  C   UNL     1      -1.125   3.079   0.609  0.00  0.00    +0.301 C 
ATOM     15  O   UNL     1      -2.110   3.545   1.151  0.00  0.00    -0.253 OA
ATOM     16  N   UNL     1       0.032   3.769   0.606  0.00  0.00    -0.313 N 
ATOM     17  H   UNL     1      -0.324   1.481  -0.537  0.00  0.00    +0.156 HD
ATOM     18  H   UNL     1       0.085   4.756   1.088  0.00  0.00    +0.146 HD
ATOM     19  H   UNL     1       0.923   3.346   0.120  0.00  0.00    +0.146 HD
ENDBRANCH  10  13
ENDBRANCH   6   7
ENDBRANCH   1   6
BRANCH   2  20
ATOM     20  C   UNL     1      -6.759  -4.213  -1.703  0.00  0.00    +0.068 C 
ATOM     21  C   UNL     1      -7.858  -4.831  -2.186  0.00  0.00    +0.016 C 
BRANCH  21  22
ATOM     22  C   UNL     1      -7.719  -6.043  -3.006  0.00  0.00    +0.013 A 
ATOM     23  C   UNL     1      -6.507  -6.676  -3.370  0.00  0.00    +0.142 A 
ATOM     24  N   UNL     1      -6.798  -7.720  -4.098  0.00  0.00    -0.174 NA
ATOM     25  N   UNL     1      -8.188  -7.806  -4.234  0.00  0.00    -0.239 N 
ATOM     26  C   UNL     1      -8.748  -6.782  -3.561  0.00  0.00    +0.122 A 
BRANCH  25  27
ATOM     27  C   UNL     1      -8.882  -8.794  -4.946  0.00  0.00    +0.065 A 
ATOM     28  C   UNL     1     -10.269  -8.768  -5.000  0.00  0.00    +0.028 A 
ATOM     29  C   UNL     1     -10.949  -9.741  -5.706  0.00  0.00    +0.002 A 
ATOM     30  C   UNL     1     -10.250 -10.745  -6.351  0.00  0.00    +0.000 A 
ATOM     31  C   UNL     1      -8.869 -10.775  -6.296  0.00  0.00    +0.002 A 
ATOM     32  C   UNL     1      -8.183  -9.803  -5.595  0.00  0.00    +0.028 A 
ENDBRANCH  25  27
ENDBRANCH  21  22
ENDBRANCH   2  20
TORSDOF 6
