REMARK  Name = ZINC12562905
REMARK  8 active torsions:
REMARK  status: ('A' for Active; 'I' for Inactive)
REMARK    1  A    between atoms: C_1  and  C_2
REMARK    2  A    between atoms: C_4  and  C_11
REMARK    3  A    between atoms: C_5  and  C_10
REMARK    4  A    between atoms: N_6  and  C_7
REMARK    5  A    between atoms: C_14  and  C_34
REMARK    6  A    between atoms: N_16  and  C_28
REMARK    7  A    between atoms: C_24  and  C_26
REMARK    8  A    between atoms: C_24  and  C_27
REMARK                            x       y       z     vdW  Elec       q    Type
REMARK                         _______ _______ _______ _____ _____    ______ ____
ROOT
ATOM      1  C   UNL     1       0.214  -3.698  -1.554  0.00  0.00    +0.090 C 
ATOM      2  C   UNL     1       1.327  -3.332  -2.512  0.00  0.00    +0.022 C 
ATOM      3  C   UNL     1       2.587  -2.894  -2.347  0.00  0.00    +0.027 C 
ATOM      4  N   UNL     1       3.156  -2.720  -3.576  0.00  0.00    -0.262 N 
ATOM      5  N   UNL     1       2.210  -3.063  -4.552  0.00  0.00    -0.206 N 
ATOM      6  C   UNL     1       1.061  -3.448  -3.895  0.00  0.00    +0.126 C 
ATOM      7  N   UNL     1      -0.116  -3.863  -4.331  0.00  0.00    -0.345 N 
ATOM      8  C   UNL     1      -1.148  -4.206  -3.574  0.00  0.00    +0.025 C 
ATOM      9  C   UNL     1      -1.083  -4.153  -2.199  0.00  0.00    +0.026 C 
ATOM     10  C   UNL     1      -2.161  -4.503  -1.401  0.00  0.00    +0.162 C 
ATOM     11  O   UNL     1      -2.056  -4.447  -0.190  0.00  0.00    -0.292 OA
ATOM     12  C   UNL     1      -3.462  -4.952  -2.014  0.00  0.00    +0.086 C 
ATOM     13  C   UNL     1      -3.619  -4.289  -3.386  0.00  0.00    -0.023 C 
ATOM     14  C   UNL     1      -2.420  -4.665  -4.248  0.00  0.00    +0.060 C 
ATOM     15  C   UNL     1      -3.682  -2.770  -3.217  0.00  0.00    +0.011 C 
ATOM     16  C   UNL     1      -4.904  -4.787  -4.052  0.00  0.00    +0.011 C 
ATOM     17  C   UNL     1       3.260  -2.638  -1.024  0.00  0.00    +0.062 C 
ATOM     18  H   UNL     1       4.059  -2.411  -3.745  0.00  0.00    +0.170 HD
ATOM     19  H   UNL     1      -0.235  -3.922  -5.292  0.00  0.00    +0.167 HD
ENDROOT
BRANCH   1  23
ATOM     20  C   UNL     1      -1.183   0.969  -0.063  0.00  0.00    +0.063 C 
ATOM     21  C   UNL     1      -0.696  -0.457  -0.059  0.00  0.00    +0.016 A 
ATOM     22  C   UNL     1      -0.567  -1.251  -1.141  0.00  0.00    +0.027 A 
ATOM     23  C   UNL     1      -0.083  -2.497  -0.695  0.00  0.00    -0.015 A 
ATOM     24  C   UNL     1       0.064  -2.416   0.643  0.00  0.00    +0.020 A 
ATOM     25  N   UNL     1      -0.305  -1.164   1.038  0.00  0.00    -0.345 N 
ATOM     26  C   UNL     1       0.558  -3.518   1.546  0.00  0.00    +0.064 C 
BRANCH  25  27
ATOM     27  C   UNL     1      -0.287  -0.664   2.415  0.00  0.00    +0.087 C 
ATOM     28  C   UNL     1       0.356   0.702   2.662  0.00  0.00    +0.027 C 
ATOM     29  C   UNL     1       1.070  -0.572   3.116  0.00  0.00    +0.027 C 
ENDBRANCH  25  27
ENDBRANCH   1  23
BRANCH   5  30
ATOM     30  C   UNL     1       2.397  -3.022  -5.936  0.00  0.00    +0.055 A 
ATOM     31  C   UNL     1       1.438  -2.435  -6.751  0.00  0.00    +0.025 A 
ATOM     32  C   UNL     1       1.626  -2.396  -8.119  0.00  0.00    +0.002 A 
ATOM     33  C   UNL     1       2.767  -2.942  -8.677  0.00  0.00    +0.000 A 
ATOM     34  C   UNL     1       3.724  -3.528  -7.869  0.00  0.00    +0.002 A 
ATOM     35  C   UNL     1       3.545  -3.564  -6.500  0.00  0.00    +0.025 A 
ENDBRANCH   5  30
TORSDOF 3
