REMARK  Name = ZINC64702076
REMARK  8 active torsions:
REMARK  status: ('A' for Active; 'I' for Inactive)
REMARK    1  A    between atoms: C_1  and  O_2
REMARK    2  A    between atoms: O_2  and  C_3
REMARK    3  A    between atoms: C_3  and  C_5
REMARK    4  A    between atoms: C_8  and  N_11
REMARK    5  A    between atoms: C_12  and  C_14
REMARK    6  A    between atoms: C_14  and  S_15
REMARK    7  A    between atoms: S_15  and  C_16
REMARK    8  A    between atoms: C_26  and  C_29
REMARK                            x       y       z     vdW  Elec       q    Type
REMARK                         _______ _______ _______ _____ _____    ______ ____
ROOT
ATOM      1  S   UNL     1       2.687  -8.861   3.665  0.00  0.00    -0.107 S 
ENDROOT
BRANCH   1   2
ATOM      2  C   UNL     1       2.907 -10.647   3.433  0.00  0.00    +0.269 C 
ATOM      3  N   UNL     1       3.851 -10.897   2.330  0.00  0.00    -0.163 NA
ATOM      4  N   UNL     1       5.060 -11.069   2.495  0.00  0.00    -0.081 NA
ATOM      5  C   UNL     1       5.669 -11.016   3.706  0.00  0.00    +0.272 C 
ATOM      6  O   UNL     1       6.839 -11.286   3.841  0.00  0.00    -0.270 OA
ATOM      7  C   UNL     1       4.816 -10.603   4.867  0.00  0.00    +0.167 C 
ATOM      8  N   UNL     1       3.480 -11.234   4.631  0.00  0.00    -0.196 NA
ATOM      9  N   UNL     1       2.805 -11.085   5.901  0.00  0.00    -0.243 NA
ATOM     10  C   UNL     1       3.838 -11.469   6.908  0.00  0.00    +0.108 C 
ATOM     11  C   UNL     1       5.219 -11.186   6.224  0.00  0.00    +0.055 C 
ATOM     12  H   UNL     1       2.002 -11.694   5.957  0.00  0.00    +0.142 HD
BRANCH  10  13
ATOM     13  C   UNL     1       3.698 -10.622   8.147  0.00  0.00    +0.008 A 
ATOM     14  C   UNL     1       3.847 -10.979   9.446  0.00  0.00    +0.013 A 
ATOM     15  C   UNL     1       3.669 -10.024  10.428  0.00  0.00    +0.008 A 
ATOM     16  C   UNL     1       3.351  -8.758  10.064  0.00  0.00    +0.045 A 
ATOM     17  S   UNL     1       3.300  -8.887   8.284  0.00  0.00    -0.100 S 
ENDBRANCH  10  13
ENDBRANCH   1   2
BRANCH   1  18
ATOM     18  C   UNL     1       1.569  -8.379   2.320  0.00  0.00    +0.168 C 
BRANCH  18  20
ATOM     19  N   UNL     1       0.604  -6.294   1.405  0.00  0.00    -0.285 N 
ATOM     20  C   UNL     1       1.397  -6.882   2.323  0.00  0.00    +0.227 C 
ATOM     21  O   UNL     1       1.971  -6.207   3.150  0.00  0.00    -0.275 OA
ATOM     22  H   UNL     1       0.086  -6.837   0.791  0.00  0.00    +0.155 HD
BRANCH  19  26
ATOM     23  C   UNL     1       0.378  -2.139   1.206  0.00  0.00    +0.059 A 
ATOM     24  C   UNL     1       1.577  -2.759   1.572  0.00  0.00    +0.017 A 
ATOM     25  C   UNL     1       1.648  -4.132   1.637  0.00  0.00    +0.024 A 
ATOM     26  C   UNL     1       0.528  -4.903   1.339  0.00  0.00    +0.033 A 
ATOM     27  C   UNL     1      -0.666  -4.290   0.974  0.00  0.00    +0.024 A 
ATOM     28  C   UNL     1      -0.746  -2.917   0.912  0.00  0.00    +0.017 A 
BRANCH  23  29
ATOM     29  C   UNL     1       0.298  -0.668   1.136  0.00  0.00    +0.339 C 
ATOM     30  O   UNL     1      -0.746  -0.131   0.822  0.00  0.00    -0.245 OA
BRANCH  29  32
ATOM     31  C   UNL     1       1.233   1.498   1.331  0.00  0.00    +0.280 C 
ATOM     32  O   UNL     1       1.382   0.080   1.419  0.00  0.00    -0.464 OA
ENDBRANCH  29  32
ENDBRANCH  23  29
ENDBRANCH  19  26
ENDBRANCH  18  20
ENDBRANCH   1  18
TORSDOF 7
