REMARK  Name = ZINC09336874
REMARK  7 active torsions:
REMARK  status: ('A' for Active; 'I' for Inactive)
REMARK    1  A    between atoms: C_1  and  C_2
REMARK    2  A    between atoms: C_2  and  C_29
REMARK    3  A    between atoms: N_5  and  N_9
REMARK    4  A    between atoms: C_10  and  C_12
REMARK    5  A    between atoms: C_12  and  N_13
REMARK    6  A    between atoms: C_29  and  C_30
REMARK    7  A    between atoms: C_30  and  C_31
REMARK                            x       y       z     vdW  Elec       q    Type
REMARK                         _______ _______ _______ _____ _____    ______ ____
ROOT
ATOM      1  N   UNL     1       8.420  -0.486  -3.401  0.00  0.00    -0.222 N 
ATOM      2  C   UNL     1       7.455  -0.598  -2.467  0.00  0.00    +0.248 C 
ATOM      3  O   UNL     1       7.409  -1.580  -1.758  0.00  0.00    -0.273 OA
ATOM      4  H   UNL     1       8.457   0.300  -3.969  0.00  0.00    +0.174 HD
ENDROOT
BRANCH   1   9
ATOM      5  C   UNL     1      11.777  -3.473  -2.253  0.00  0.00    +0.041 C 
ATOM      6  C   UNL     1      11.293  -2.738  -3.504  0.00  0.00    +0.112 C 
ATOM      7  C   UNL     1      10.648  -1.416  -3.135  0.00  0.00    +0.263 C 
ATOM      8  O   UNL     1      11.173  -0.476  -2.578  0.00  0.00    -0.271 OA
ATOM      9  N   UNL     1       9.370  -1.504  -3.553  0.00  0.00    -0.137 N 
ATOM     10  C   UNL     1       9.122  -2.683  -4.135  0.00  0.00    +0.326 C 
ATOM     11  O   UNL     1       8.041  -2.995  -4.596  0.00  0.00    -0.251 OA
ATOM     12  N   UNL     1      10.202  -3.485  -4.154  0.00  0.00    -0.284 N 
ATOM     13  H   UNL     1      10.253  -4.380  -4.524  0.00  0.00    +0.151 HD
BRANCH   6  14
ATOM     14  C   UNL     1      12.449  -2.514  -4.480  0.00  0.00    +0.040 C 
BRANCH  14  15
ATOM     15  C   UNL     1      12.929  -3.863  -5.020  0.00  0.00    +0.038 C 
BRANCH  15  16
ATOM     16  C   UNL     1      14.068  -3.642  -5.981  0.00  0.00    -0.047 A 
ATOM     17  C   UNL     1      13.812  -3.463  -7.328  0.00  0.00    +0.003 A 
ATOM     18  C   UNL     1      14.856  -3.256  -8.209  0.00  0.00    +0.000 A 
ATOM     19  C   UNL     1      16.158  -3.239  -7.746  0.00  0.00    +0.000 A 
ATOM     20  C   UNL     1      16.416  -3.423  -6.400  0.00  0.00    +0.000 A 
ATOM     21  C   UNL     1      15.371  -3.625  -5.518  0.00  0.00    +0.003 A 
ENDBRANCH  15  16
ENDBRANCH  14  15
ENDBRANCH   6  14
ENDBRANCH   1   9
BRANCH   2  22
ATOM     22  C   UNL     1       6.434   0.498  -2.305  0.00  0.00    +0.215 C 
BRANCH  22  23
ATOM     23  N   UNL     1       5.501   0.141  -1.233  0.00  0.00    -0.215 N 
ATOM     24  C   UNL     1       4.358  -0.549  -1.421  0.00  0.00    +0.251 C 
ATOM     25  O   UNL     1       3.924  -0.977  -2.470  0.00  0.00    -0.272 OA
ATOM     26  C   UNL     1       3.731  -0.678  -0.051  0.00  0.00    +0.138 C 
ATOM     27  C   UNL     1       3.615  -2.145   0.342  0.00  0.00    +0.040 C 
ATOM     28  C   UNL     1       2.489  -2.781  -0.484  0.00  0.00    +0.008 C 
ATOM     29  C   UNL     1       1.158  -2.198  -0.016  0.00  0.00    +0.035 C 
ATOM     30  C   UNL     1       1.207  -0.693  -0.015  0.00  0.00    -0.042 A 
ATOM     31  C   UNL     1       2.394   0.007  -0.025  0.00  0.00    -0.012 A 
ATOM     32  C   UNL     1       2.373   1.395  -0.015  0.00  0.00    +0.006 A 
ATOM     33  C   UNL     1       1.174   2.078   0.002  0.00  0.00    +0.000 A 
ATOM     34  C   UNL     1      -0.017   1.376   0.010  0.00  0.00    +0.000 A 
ATOM     35  C   UNL     1       0.002  -0.004   0.002  0.00  0.00    +0.004 A 
ATOM     36  N   UNL     1       4.676   0.015   0.837  0.00  0.00    -0.281 N 
ATOM     37  C   UNL     1       5.678   0.460   0.055  0.00  0.00    +0.310 C 
ATOM     38  O   UNL     1       6.636   1.081   0.472  0.00  0.00    -0.252 OA
ATOM     39  H   UNL     1       4.593   0.130   1.796  0.00  0.00    +0.152 HD
ENDBRANCH  22  23
ENDBRANCH   2  22
TORSDOF 6
