REMARK  Name = ZINC19356679
REMARK  3 active torsions:
REMARK  status: ('A' for Active; 'I' for Inactive)
REMARK    1  A    between atoms: C_8  and  C_17
REMARK    2  A    between atoms: C_9  and  N_11
REMARK    3  A    between atoms: N_28  and  C_29
REMARK                            x       y       z     vdW  Elec       q    Type
REMARK                         _______ _______ _______ _____ _____    ______ ____
ROOT
ATOM      1  C   UNL     1       0.293  -1.647   0.762  0.00  0.00    +0.201 C 
ATOM      2  N   UNL     1       1.516  -0.907   0.430  0.00  0.00    -0.321 N 
ATOM      3  C   UNL     1       1.758   0.306   1.065  0.00  0.00    +0.041 A 
ATOM      4  C   UNL     1       3.044   0.775   1.276  0.00  0.00    +0.024 A 
ATOM      5  C   UNL     1       3.234   1.993   1.900  0.00  0.00    +0.002 A 
ATOM      6  C   UNL     1       2.149   2.749   2.315  0.00  0.00    +0.001 A 
ATOM      7  C   UNL     1       0.862   2.295   2.115  0.00  0.00    +0.015 A 
ATOM      8  C   UNL     1       0.655   1.066   1.494  0.00  0.00    +0.058 A 
ATOM      9  C   UNL     1      -0.699   0.536   1.259  0.00  0.00    +0.254 C 
ATOM     10  O   UNL     1      -1.674   1.237   1.449  0.00  0.00    -0.270 OA
ATOM     11  N   UNL     1      -0.848  -0.735   0.833  0.00  0.00    -0.244 N 
ATOM     12  H   UNL     1       2.221  -1.313  -0.310  0.00  0.00    +0.148 HD
ENDROOT
BRANCH   1  20
ATOM     13  C   UNL     1      -1.164  -3.800   6.328  0.00  0.00    +0.001 A 
ATOM     14  C   UNL     1       0.091  -4.333   6.615  0.00  0.00    +0.002 A 
ATOM     15  C   UNL     1       1.115  -4.238   5.723  0.00  0.00    +0.026 A 
ATOM     16  C   UNL     1       0.909  -3.595   4.491  0.00  0.00    +0.048 A 
ATOM     17  C   UNL     1      -0.368  -3.054   4.201  0.00  0.00    -0.001 A 
ATOM     18  C   UNL     1      -1.400  -3.169   5.144  0.00  0.00    +0.010 A 
ATOM     19  C   UNL     1      -0.573  -2.403   2.967  0.00  0.00    +0.020 A 
ATOM     20  C   UNL     1       0.470  -2.330   2.094  0.00  0.00    +0.030 A 
ATOM     21  C   UNL     1       1.710  -2.885   2.439  0.00  0.00    +0.106 A 
ATOM     22  N   UNL     1       1.897  -3.488   3.596  0.00  0.00    -0.343 N 
ATOM     23  H   UNL     1       2.889  -3.908   3.819  0.00  0.00    +0.167 HD
BRANCH  21  24
ATOM     24  N   UNL     1       2.765  -2.798   1.543  0.00  0.00    -0.312 N 
ATOM     25  C   UNL     1       3.070  -4.112   0.959  0.00  0.00    +0.134 C 
ATOM     26  C   UNL     1       4.197  -3.960  -0.066  0.00  0.00    +0.178 C 
ATOM     27  O   UNL     1       5.336  -3.371   0.569  0.00  0.00    -0.377 OA
ATOM     28  C   UNL     1       5.074  -2.090   1.148  0.00  0.00    +0.178 C 
ATOM     29  C   UNL     1       3.956  -2.224   2.185  0.00  0.00    +0.134 C 
ENDBRANCH  21  24
ENDBRANCH   1  20
BRANCH  11  30
ATOM     30  C   UNL     1      -2.117  -1.188   0.451  0.00  0.00    +0.042 A 
ATOM     31  C   UNL     1      -2.328  -1.655  -0.840  0.00  0.00    +0.027 A 
ATOM     32  C   UNL     1      -3.578  -2.107  -1.216  0.00  0.00    +0.051 A 
ATOM     33  C   UNL     1      -4.627  -2.087  -0.311  0.00  0.00    +0.166 A 
ATOM     34  C   UNL     1      -4.419  -1.615   0.983  0.00  0.00    +0.168 A 
ATOM     35  C   UNL     1      -3.165  -1.167   1.361  0.00  0.00    +0.073 A 
ATOM     36  O   UNL     1      -5.595  -1.698   1.671  0.00  0.00    -0.453 OA
ATOM     37  C   UNL     1      -6.421  -2.603   0.915  0.00  0.00    +0.466 C 
ATOM     38  O   UNL     1      -5.934  -2.465  -0.433  0.00  0.00    -0.453 OA
ENDBRANCH  11  30
TORSDOF 3
