REMARK  Name = ZINC20355697
REMARK  8 active torsions:
REMARK  status: ('A' for Active; 'I' for Inactive)
REMARK    1  A    between atoms: C_1  and  C_2
REMARK    2  A    between atoms: C_2  and  C_3
REMARK    3  A    between atoms: C_3  and  N_4
REMARK    4  A    between atoms: C_5  and  C_7
REMARK    5  A    between atoms: N_10  and  S_13
REMARK    6  A    between atoms: S_13  and  C_16
REMARK    7  A    between atoms: C_22  and  C_32
REMARK    8  A    between atoms: C_28  and  C_31
REMARK                            x       y       z     vdW  Elec       q    Type
REMARK                         _______ _______ _______ _____ _____    ______ ____
ROOT
ATOM      1  C   UNL     1       2.791  -9.201  -2.347  0.00  0.00    +0.106 A 
ATOM      2  C   UNL     1       2.527  -9.837  -1.135  0.00  0.00    +0.030 A 
ATOM      3  C   UNL     1       2.110 -11.132  -1.099  0.00  0.00    +0.030 A 
ATOM      4  C   UNL     1       1.940 -11.845  -2.300  0.00  0.00    +0.072 A 
ATOM      5  C   UNL     1       2.211 -11.193  -3.529  0.00  0.00    +0.017 A 
ATOM      6  C   UNL     1       2.633  -9.858  -3.530  0.00  0.00    +0.039 A 
ATOM      7  C   UNL     1       2.039 -11.920  -4.733  0.00  0.00    +0.077 A 
ATOM      8  C   UNL     1       1.607 -13.244  -4.650  0.00  0.00    -0.011 A 
ATOM      9  C   UNL     1       1.359 -13.808  -3.405  0.00  0.00    +0.046 A 
ATOM     10  N   UNL     1       1.531 -13.112  -2.298  0.00  0.00    -0.251 NA
ATOM     11  C   UNL     1       0.875 -15.229  -3.253  0.00  0.00    +0.056 C 
ATOM     12  C   UNL     1       1.141 -16.026  -4.527  0.00  0.00    +0.010 C 
ATOM     13  C   UNL     1       0.571 -15.245  -5.717  0.00  0.00    -0.009 C 
ATOM     14  C   UNL     1       1.436 -14.005  -5.937  0.00  0.00    +0.041 C 
ATOM     15  C   UNL     1       0.598 -16.122  -6.970  0.00  0.00    +0.008 C 
ENDROOT
BRANCH   1  16
ATOM     16  S   UNL     1       3.329  -7.523  -2.349  0.00  0.00    +0.061 S 
ATOM     17  O   UNL     1       4.026  -7.322  -3.571  0.00  0.00    -0.153 OA
ATOM     18  O   UNL     1       3.927  -7.286  -1.082  0.00  0.00    -0.153 OA
BRANCH  16  22
ATOM     19  C   UNL     1       0.444  -4.197  -2.511  0.00  0.00    +0.077 C 
ATOM     20  C   UNL     1       1.167  -4.603  -1.225  0.00  0.00    +0.030 C 
ATOM     21  C   UNL     1       1.310  -6.128  -1.184  0.00  0.00    +0.110 C 
ATOM     22  N   UNL     1       1.973  -6.574  -2.417  0.00  0.00    -0.177 NA
ATOM     23  C   UNL     1       1.411  -6.163  -3.710  0.00  0.00    +0.110 C 
ATOM     24  C   UNL     1       1.267  -4.638  -3.723  0.00  0.00    +0.030 C 
BRANCH  19  26
ATOM     25  N   UNL     1      -0.424  -2.083  -1.563  0.00  0.00    -0.315 N 
ATOM     26  C   UNL     1       0.272  -2.700  -2.539  0.00  0.00    +0.216 C 
ATOM     27  O   UNL     1       0.760  -2.050  -3.439  0.00  0.00    -0.276 OA
ATOM     28  H   UNL     1      -0.815  -2.603  -0.843  0.00  0.00    +0.149 HD
BRANCH  25  29
ATOM     29  C   UNL     1      -0.591  -0.628  -1.590  0.00  0.00    +0.104 C 
BRANCH  29  31
ATOM     30  C   UNL     1      -1.589   1.333  -0.407  0.00  0.00    +0.005 C 
ATOM     31  C   UNL     1      -1.415  -0.187  -0.379  0.00  0.00    +0.015 C 
ENDBRANCH  29  31
ENDBRANCH  25  29
ENDBRANCH  19  26
ENDBRANCH  16  22
ENDBRANCH   1  16
BRANCH   7  32
ATOM     32  C   UNL     1       2.310 -11.292  -6.041  0.00  0.00    +0.387 C 
ATOM     33  O   UNL     1       3.421 -11.381  -6.544  0.00  0.00    -0.241 OA
ATOM     34  O   UNL     1       1.423 -10.684  -6.623  0.00  0.00    -0.241 OA
ENDBRANCH   7  32
TORSDOF 6
