REMARK  Name = ZINC59231529
REMARK  2 active torsions:
REMARK  status: ('A' for Active; 'I' for Inactive)
REMARK    1  A    between atoms: C_4  and  C_7
REMARK    2  A    between atoms: C_12  and  C_14
REMARK                            x       y       z     vdW  Elec       q    Type
REMARK                         _______ _______ _______ _____ _____    ______ ____
ROOT
ATOM      1  C   UNL     1       3.688  -0.675  -0.038  0.00  0.00    +0.041 C 
ATOM      2  C   UNL     1       3.715  -2.049   0.058  0.00  0.00    +0.129 C 
ATOM      3  C   UNL     1       4.911  -2.908   0.165  0.00  0.00    +0.276 C 
ATOM      4  O   UNL     1       6.074  -2.551   0.187  0.00  0.00    -0.268 OA
ATOM      5  N   UNL     1       4.443  -4.174   0.235  0.00  0.00    -0.194 N 
ATOM      6  C   UNL     1       3.065  -4.127   0.177  0.00  0.00    +0.177 C 
ATOM      7  N   UNL     1       2.644  -2.889   0.080  0.00  0.00    -0.223 NA
ATOM      8  C   UNL     1       5.217  -5.326   0.346  0.00  0.00    +0.173 A 
ATOM      9  N   UNL     1       4.816  -6.577   0.411  0.00  0.00    -0.233 NA
ATOM     10  C   UNL     1       5.682  -7.567   0.515  0.00  0.00    +0.120 A 
ATOM     11  C   UNL     1       6.996  -7.234   0.551  0.00  0.00    +0.068 A 
ATOM     12  S   UNL     1       6.893  -5.456   0.422  0.00  0.00    -0.060 S 
ENDROOT
BRANCH   1  16
ATOM     13  C   UNL     1      -0.016   1.381   0.024  0.00  0.00    +0.000 A 
ATOM     14  C   UNL     1       0.002  -0.003  -0.005  0.00  0.00    +0.001 A 
ATOM     15  C   UNL     1       1.202  -0.680  -0.026  0.00  0.00    +0.008 A 
ATOM     16  C   UNL     1       2.406   0.036  -0.017  0.00  0.00    -0.023 A 
ATOM     17  C   UNL     1       2.378   1.437   0.012  0.00  0.00    +0.008 A 
ATOM     18  C   UNL     1       1.169   2.097   0.033  0.00  0.00    +0.001 A 
ENDBRANCH   1  16
BRANCH   6  19
ATOM     19  C   UNL     1       2.189  -5.303   0.224  0.00  0.00    +0.168 A 
ATOM     20  C   UNL     1       0.825  -5.290   0.163  0.00  0.00    +0.053 A 
ATOM     21  C   UNL     1       0.404  -6.628   0.242  0.00  0.00    +0.042 A 
ATOM     22  C   UNL     1       1.516  -7.388   0.345  0.00  0.00    +0.196 A 
ATOM     23  O   UNL     1       2.590  -6.586   0.328  0.00  0.00    -0.460 OA
ENDBRANCH   6  19
TORSDOF 2
