REMARK  Name = ZINC57827475
REMARK  4 active torsions:
REMARK  status: ('A' for Active; 'I' for Inactive)
REMARK    1  A    between atoms: N_5  and  C_8
REMARK    2  A    between atoms: C_8  and  C_9
REMARK    3  A    between atoms: C_17  and  C_19
REMARK    4  A    between atoms: C_19  and  N_20
REMARK                            x       y       z     vdW  Elec       q    Type
REMARK                         _______ _______ _______ _____ _____    ______ ____
ROOT
ATOM      1  C   UNL     1       2.420  -2.418  -2.078  0.00  0.00    +0.199 C 
ATOM      2  O   UNL     1       2.195  -2.537  -0.892  0.00  0.00    -0.278 OA
ATOM      3  N   UNL     1       2.882  -3.469  -2.784  0.00  0.00    -0.300 N 
ATOM      4  C   UNL     1       3.165  -3.339  -4.220  0.00  0.00    +0.126 C 
ATOM      5  C   UNL     1       4.617  -3.765  -4.474  0.00  0.00    +0.126 C 
ATOM      6  N   UNL     1       4.846  -5.062  -3.822  0.00  0.00    -0.300 N 
ATOM      7  C   UNL     1       4.562  -5.193  -2.386  0.00  0.00    +0.126 C 
ATOM      8  C   UNL     1       3.116  -4.765  -2.131  0.00  0.00    +0.126 C 
ATOM      9  C   UNL     1       5.307  -6.113  -4.528  0.00  0.00    +0.199 C 
ATOM     10  O   UNL     1       5.537  -5.994  -5.713  0.00  0.00    -0.278 OA
ENDROOT
BRANCH   1  11
ATOM     11  C   UNL     1       2.185  -1.096  -2.761  0.00  0.00    +0.019 C 
BRANCH  11  16
ATOM     12  C   UNL     1      -0.019   1.544   0.011  0.00  0.00    -0.002 C 
ATOM     13  C   UNL     1       1.397   2.058  -0.000  0.00  0.00    -0.002 C 
ATOM     14  C   UNL     1       1.946   2.302  -1.420  0.00  0.00    -0.019 C 
ATOM     15  C   UNL     1       1.569   1.179  -2.402  0.00  0.00    -0.078 C 
ATOM     16  N   UNL     1       1.686  -0.121  -1.782  0.00  0.00    +0.385 N 
ATOM     17  C   UNL     1       0.344  -0.518  -1.321  0.00  0.00    -0.078 C 
ATOM     18  C   UNL     1       0.002  -0.004   0.002  0.00  0.00    -0.019 C 
ATOM     19  H   UNL     1       2.317  -0.070  -0.997  0.00  0.00    -0.081 HD
ENDBRANCH  11  16
ENDBRANCH   1  11
BRANCH   9  20
ATOM     20  C   UNL     1       5.537  -7.437  -3.846  0.00  0.00    +0.019 C 
BRANCH  20  21
ATOM     21  N   UNL     1       6.037  -8.412  -4.824  0.00  0.00    +0.385 N 
ATOM     22  C   UNL     1       5.020  -8.588  -5.879  0.00  0.00    -0.078 C 
ATOM     23  C   UNL     1       5.713  -9.065  -7.131  0.00  0.00    -0.019 C 
ATOM     24  C   UNL     1       5.652 -10.598  -7.260  0.00  0.00    -0.002 C 
ATOM     25  C   UNL     1       5.880 -11.296  -5.904  0.00  0.00    -0.002 C 
ATOM     26  C   UNL     1       6.976 -10.645  -5.100  0.00  0.00    -0.019 C 
ATOM     27  C   UNL     1       6.352  -9.596  -4.156  0.00  0.00    -0.078 C 
ATOM     28  H   UNL     1       6.877  -8.045  -5.246  0.00  0.00    -0.081 HD
ENDBRANCH  20  21
ENDBRANCH   9  20
TORSDOF 4
