REMARK  Name = ZINC36595255
REMARK  10 active torsions:
REMARK  status: ('A' for Active; 'I' for Inactive)
REMARK    1  A    between atoms: C_1  and  C_2
REMARK    2  A    between atoms: C_5  and  C_7
REMARK    3  A    between atoms: C_7  and  N_8
REMARK    4  A    between atoms: N_8  and  C_9
REMARK    5  A    between atoms: C_9  and  C_11
REMARK    6  A    between atoms: C_9  and  C_18
REMARK    7  A    between atoms: C_14  and  O_17
REMARK    8  A    between atoms: N_20  and  C_21
REMARK    9  A    between atoms: C_27  and  C_29
REMARK   10  A    between atoms: C_34  and  O_35
REMARK                            x       y       z     vdW  Elec       q    Type
REMARK                         _______ _______ _______ _____ _____    ______ ____
ROOT
ATOM      1  C   UNL     1       3.299  -2.629  -2.645  0.00  0.00    +0.193 C 
ENDROOT
BRANCH   1   2
ATOM      2  C   UNL     1       2.849  -1.353  -3.308  0.00  0.00    -0.018 A 
ATOM      3  C   UNL     1       2.415  -0.291  -2.537  0.00  0.00    +0.009 A 
ATOM      4  C   UNL     1       2.001   0.880  -3.142  0.00  0.00    +0.046 A 
ATOM      5  C   UNL     1       2.021   0.990  -4.525  0.00  0.00    +0.117 A 
ATOM      6  C   UNL     1       2.458  -0.078  -5.296  0.00  0.00    +0.046 A 
ATOM      7  C   UNL     1       2.876  -1.244  -4.686  0.00  0.00    +0.009 A 
BRANCH   5   8
ATOM      8  O   UNL     1       1.614   2.140  -5.122  0.00  0.00    -0.507 OA
ATOM      9  H   UNL     1       2.322   2.784  -5.259  0.00  0.00    +0.292 HD
ENDBRANCH   5   8
ENDBRANCH   1   2
BRANCH   1  10
ATOM     10  C   UNL     1       4.802  -2.725  -2.708  0.00  0.00    +0.238 C 
ATOM     11  O   UNL     1       5.407  -3.338  -1.854  0.00  0.00    -0.273 OA
ATOM     12  N   UNL     1       5.473  -2.128  -3.713  0.00  0.00    -0.311 N 
ATOM     13  H   UNL     1       4.990  -1.638  -4.396  0.00  0.00    +0.149 HD
BRANCH  12  14
ATOM     14  C   UNL     1       6.934  -2.221  -3.774  0.00  0.00    +0.073 C 
ATOM     15  C   UNL     1       7.552  -1.123  -2.906  0.00  0.00    +0.022 C 
ATOM     16  C   UNL     1       9.078  -1.220  -2.970  0.00  0.00    +0.002 C 
ATOM     17  C   UNL     1       9.539  -1.046  -4.418  0.00  0.00    +0.000 C 
ATOM     18  C   UNL     1       8.922  -2.144  -5.287  0.00  0.00    +0.002 C 
ATOM     19  C   UNL     1       7.396  -2.047  -5.223  0.00  0.00    +0.022 C 
ENDBRANCH  12  14
ENDBRANCH   1  10
BRANCH   1  20
ATOM     20  N   UNL     1       2.868  -2.631  -1.244  0.00  0.00    -0.275 N 
ATOM     21  C   UNL     1       1.665  -2.125  -0.909  0.00  0.00    +0.251 C 
ATOM     22  O   UNL     1       1.374  -1.972   0.261  0.00  0.00    -0.270 OA
BRANCH  21  23
ATOM     23  C   UNL     1       0.700  -1.758  -1.963  0.00  0.00    +0.078 A 
ATOM     24  C   UNL     1       0.857  -2.248  -3.262  0.00  0.00    +0.017 A 
ATOM     25  C   UNL     1      -0.048  -1.901  -4.241  0.00  0.00    +0.001 A 
ATOM     26  C   UNL     1      -1.115  -1.068  -3.944  0.00  0.00    +0.004 A 
ATOM     27  C   UNL     1      -1.282  -0.577  -2.665  0.00  0.00    +0.046 A 
ATOM     28  C   UNL     1      -0.384  -0.920  -1.665  0.00  0.00    +0.129 A 
BRANCH  28  29
ATOM     29  O   UNL     1      -0.550  -0.442  -0.407  0.00  0.00    -0.506 OA
ATOM     30  H   UNL     1      -0.107   0.403  -0.245  0.00  0.00    +0.292 HD
ENDBRANCH  28  29
ENDBRANCH  21  23
BRANCH  20  31
ATOM     31  C   UNL     1       3.746  -3.182  -0.209  0.00  0.00    +0.183 C 
BRANCH  31  36
ATOM     32  C   UNL     1       2.051  -7.845   0.698  0.00  0.00    +0.086 C 
ATOM     33  C   UNL     1       2.904  -6.713   0.186  0.00  0.00    +0.102 A 
ATOM     34  C   UNL     1       4.018  -6.840  -0.557  0.00  0.00    +0.045 A 
ATOM     35  C   UNL     1       4.493  -5.533  -0.811  0.00  0.00    +0.046 A 
ATOM     36  C   UNL     1       3.640  -4.685  -0.208  0.00  0.00    +0.122 A 
ATOM     37  O   UNL     1       2.677  -5.405   0.389  0.00  0.00    -0.463 OA
ENDBRANCH  31  36
ENDBRANCH  20  31
ENDBRANCH   1  20
TORSDOF 9
