REMARK  Name = ZINC40404651
REMARK  14 active torsions:
REMARK  status: ('A' for Active; 'I' for Inactive)
REMARK    1  A    between atoms: C_1  and  C_2
REMARK    2  A    between atoms: C_2  and  C_3
REMARK    3  A    between atoms: C_2  and  C_4
REMARK    4  A    between atoms: C_4  and  O_5
REMARK    5  A    between atoms: O_5  and  C_6
REMARK    6  A    between atoms: C_6  and  C_7
REMARK    7  A    between atoms: C_7  and  C_9
REMARK    8  A    between atoms: C_7  and  O_37
REMARK    9  A    between atoms: C_9  and  N_10
REMARK   10  A    between atoms: N_10  and  C_11
REMARK   11  A    between atoms: N_10  and  C_18
REMARK   12  A    between atoms: C_11  and  C_12
REMARK   13  A    between atoms: C_18  and  C_19
REMARK   14  A    between atoms: C_25  and  C_30
REMARK                            x       y       z     vdW  Elec       q    Type
REMARK                         _______ _______ _______ _____ _____    ______ ____
ROOT
ATOM      1  N   UNL     1      -3.605  -5.913  -0.271  0.00  0.00    +0.389 N 
ATOM      2  H   UNL     1      -2.921  -6.100  -0.988  0.00  0.00    -0.081 HD
ENDROOT
BRANCH   1   3
ATOM      3  C   UNL     1      -4.008  -4.502  -0.334  0.00  0.00    -0.044 C 
BRANCH   3   4
ATOM      4  C   UNL     1      -2.768  -3.612  -0.239  0.00  0.00    +0.124 C 
BRANCH   4   5
ATOM      5  O   UNL     1      -1.942  -3.821  -1.387  0.00  0.00    -0.391 OA
ATOM      6  H   UNL     1      -2.377  -3.616  -2.226  0.00  0.00    +0.210 HD
ENDBRANCH   4   5
BRANCH   4   7
ATOM      7  C   UNL     1      -3.196  -2.145  -0.179  0.00  0.00    +0.189 C 
BRANCH   7   8
ATOM      8  O   UNL     1      -2.046  -1.321   0.026  0.00  0.00    -0.377 OA
BRANCH   8   9
ATOM      9  C   UNL     1      -2.337   0.076   0.098  0.00  0.00    +0.163 C 
BRANCH   9  11
ATOM     10  C   UNL     1      -1.334   2.358   0.270  0.00  0.00    +0.009 C 
ATOM     11  C   UNL     1      -1.040   0.857   0.318  0.00  0.00    +0.009 C 
ATOM     12  C   UNL     1      -0.453   0.495   1.685  0.00  0.00    +0.009 C 
ENDBRANCH   9  11
ENDBRANCH   8   9
ENDBRANCH   7   8
ENDBRANCH   4   7
ENDBRANCH   3   4
ENDBRANCH   1   3
BRANCH   1  13
ATOM     13  C   UNL     1      -3.023  -6.198   1.048  0.00  0.00    -0.042 C 
BRANCH  13  14
ATOM     14  C   UNL     1      -2.499  -7.610   1.071  0.00  0.00    -0.064 A 
ATOM     15  C   UNL     1      -3.284  -8.630   1.576  0.00  0.00    +0.002 A 
ATOM     16  C   UNL     1      -2.803  -9.926   1.597  0.00  0.00    +0.000 A 
ATOM     17  C   UNL     1      -1.538 -10.202   1.114  0.00  0.00    +0.000 A 
ATOM     18  C   UNL     1      -0.753  -9.182   0.609  0.00  0.00    +0.000 A 
ATOM     19  C   UNL     1      -1.236  -7.887   0.583  0.00  0.00    +0.002 A 
ENDBRANCH  13  14
ENDBRANCH   1  13
BRANCH   1  20
ATOM     20  C   UNL     1      -4.781  -6.768  -0.482  0.00  0.00    -0.003 C 
BRANCH  20  21
ATOM     21  C   UNL     1      -5.276  -6.601  -1.895  0.00  0.00    +0.094 A 
ATOM     22  N   UNL     1      -6.434  -7.202  -2.272  0.00  0.00    -0.312 N 
ATOM     23  H   UNL     1      -6.928  -7.731  -1.625  0.00  0.00    +0.170 HD
ATOM     24  C   UNL     1      -6.912  -7.077  -3.524  0.00  0.00    +0.260 A 
ATOM     25  O   UNL     1      -7.954  -7.622  -3.846  0.00  0.00    -0.267 OA
ATOM     26  C   UNL     1      -6.178  -6.295  -4.471  0.00  0.00    +0.080 A 
ATOM     27  C   UNL     1      -6.484  -6.012  -5.869  0.00  0.00    +0.006 A 
ATOM     28  C   UNL     1      -5.630  -5.235  -6.578  0.00  0.00    +0.056 A 
ATOM     29  S   UNL     1      -4.357  -4.836  -5.397  0.00  0.00    -0.076 S 
ATOM     30  C   UNL     1      -4.993  -5.713  -3.992  0.00  0.00    +0.116 A 
ATOM     31  N   UNL     1      -4.587  -5.877  -2.736  0.00  0.00    -0.229 NA
BRANCH  27  32
ATOM     32  C   UNL     1      -7.705  -6.565  -6.501  0.00  0.00    +0.019 A 
ATOM     33  C   UNL     1      -7.598  -7.492  -7.537  0.00  0.00    +0.011 A 
ATOM     34  C   UNL     1      -8.739  -8.005  -8.122  0.00  0.00    +0.001 A 
ATOM     35  C   UNL     1      -9.987  -7.600  -7.683  0.00  0.00    +0.003 A 
ATOM     36  C   UNL     1     -10.101  -6.680  -6.657  0.00  0.00    +0.039 A 
ATOM     37  C   UNL     1      -8.967  -6.164  -6.059  0.00  0.00    +0.131 A 
ATOM     38  F   UNL     1      -9.079  -5.270  -5.052  0.00  0.00    -0.205 F 
ENDBRANCH  27  32
ENDBRANCH  20  21
ENDBRANCH   1  20
TORSDOF 12
