REMARK  Name = ZINC61536347
REMARK  8 active torsions:
REMARK  status: ('A' for Active; 'I' for Inactive)
REMARK    1  A    between atoms: C_1  and  C_2
REMARK    2  A    between atoms: C_2  and  C_3
REMARK    3  A    between atoms: C_2  and  C_4
REMARK    4  A    between atoms: C_2  and  C_18
REMARK    5  A    between atoms: C_4  and  N_5
REMARK    6  A    between atoms: C_18  and  N_19
REMARK    7  A    between atoms: N_19  and  C_20
REMARK    8  A    between atoms: N_19  and  C_21
REMARK                            x       y       z     vdW  Elec       q    Type
REMARK                         _______ _______ _______ _____ _____    ______ ____
ROOT
ATOM      1  N   UNL     1      -2.214   1.065   0.578  0.00  0.00    -0.313 N 
ATOM      2  C   UNL     1      -3.564   1.021   0.861  0.00  0.00    +0.221 A 
ATOM      3  N   UNL     1      -4.104   1.925   1.672  0.00  0.00    -0.177 NA
ATOM      4  C   UNL     1      -5.402   1.880   1.941  0.00  0.00    +0.257 A 
ATOM      5  N   UNL     1      -6.160   0.932   1.400  0.00  0.00    -0.180 NA
ATOM      6  C   UNL     1      -5.621   0.032   0.593  0.00  0.00    +0.229 A 
ATOM      7  N   UNL     1      -4.328   0.077   0.318  0.00  0.00    -0.184 NA
ATOM      8 CL   UNL     1      -6.614  -1.205  -0.112  0.00  0.00    -0.041 Cl
ATOM      9  N   UNL     1      -5.970   2.826   2.791  0.00  0.00    -0.205 N 
ATOM     10  C   UNL     1      -7.279   2.893   3.154  0.00  0.00    +0.118 A 
ATOM     11  C   UNL     1      -7.418   3.950   3.985  0.00  0.00    +0.041 A 
ATOM     12  C   UNL     1      -6.162   4.549   4.138  0.00  0.00    +0.135 A 
ATOM     13  N   UNL     1      -5.295   3.875   3.428  0.00  0.00    -0.172 NA
ATOM     14  H   UNL     1      -1.657   1.753   0.975  0.00  0.00    +0.149 HD
ENDROOT
BRANCH   1  15
ATOM     15  C   UNL     1      -1.621   0.071  -0.320  0.00  0.00    +0.109 C 
BRANCH  15  17
ATOM     16  C   UNL     1       0.089   1.743  -1.041  0.00  0.00    +0.010 C 
ATOM     17  C   UNL     1      -0.122   0.343  -0.464  0.00  0.00    -0.034 C 
ATOM     18  C   UNL     1       0.546   0.251   0.910  0.00  0.00    +0.010 C 
BRANCH  17  19
ATOM     19  C   UNL     1       0.497  -0.695  -1.402  0.00  0.00    -0.072 C 
BRANCH  19  20
ATOM     20  N   UNL     1       1.927  -0.406  -1.577  0.00  0.00    +0.376 N 
ATOM     21  C   UNL     1       2.689  -1.025  -0.485  0.00  0.00    -0.097 C 
ATOM     22  C   UNL     1       2.382  -0.950  -2.863  0.00  0.00    -0.097 C 
ATOM     23  H   UNL     1       2.072   0.593  -1.564  0.00  0.00    -0.083 HD
ENDBRANCH  19  20
ENDBRANCH  17  19
ENDBRANCH  15  17
ENDBRANCH   1  15
TORSDOF 4
