REMARK  Name = ZINC00734950
REMARK  6 active torsions:
REMARK  status: ('A' for Active; 'I' for Inactive)
REMARK    1  A    between atoms: C_3  and  C_6
REMARK    2  A    between atoms: C_8  and  C_20
REMARK    3  A    between atoms: N_9  and  C_11
REMARK    4  A    between atoms: C_14  and  N_17
REMARK    5  A    between atoms: N_22  and  C_23
REMARK    6  A    between atoms: C_23  and  C_24
REMARK                            x       y       z     vdW  Elec       q    Type
REMARK                         _______ _______ _______ _____ _____    ______ ____
ROOT
ATOM      1  C   UNL     1       3.602   0.501   0.073  0.00  0.00    +0.129 A 
ATOM      2  C   UNL     1       4.495  -0.578   0.179  0.00  0.00    +0.066 A 
ATOM      3  C   UNL     1       5.767  -0.089  -0.023  0.00  0.00    +0.130 A 
ATOM      4  N   UNL     1       5.654   1.258  -0.247  0.00  0.00    -0.227 N 
ATOM      5  N   UNL     1       4.296   1.593  -0.187  0.00  0.00    -0.163 NA
ENDROOT
BRANCH   4   6
ATOM      6  C   UNL     1       6.710   2.141  -0.498  0.00  0.00    +0.066 A 
ATOM      7  C   UNL     1       7.697   1.805  -1.415  0.00  0.00    +0.030 A 
ATOM      8  C   UNL     1       8.738   2.679  -1.660  0.00  0.00    +0.035 A 
ATOM      9  C   UNL     1       8.798   3.888  -0.992  0.00  0.00    +0.126 A 
ATOM     10  C   UNL     1       7.818   4.227  -0.078  0.00  0.00    +0.035 A 
ATOM     11  C   UNL     1       6.771   3.360   0.167  0.00  0.00    +0.030 A 
BRANCH   9  12
ATOM     12  N   UNL     1       9.916   4.822  -1.256  0.00  0.00    +0.056 N 
ATOM     13  O   UNL     1      10.774   4.528  -2.055  0.00  0.00    -0.126 OA
ATOM     14  O   UNL     1       9.970   5.880  -0.673  0.00  0.00    -0.126 OA
ENDBRANCH   9  12
ENDBRANCH   4   6
BRANCH   1  17
ATOM     15  C   UNL     1      -0.026   0.944   0.323  0.00  0.00    +0.042 A 
ATOM     16  C   UNL     1       1.266   1.467   0.112  0.00  0.00    +0.051 A 
ATOM     17  C   UNL     1       2.133   0.426   0.220  0.00  0.00    +0.155 A 
ATOM     18  O   UNL     1       1.421  -0.687   0.483  0.00  0.00    -0.461 OA
ATOM     19  C   UNL     1       0.116  -0.377   0.547  0.00  0.00    +0.196 A 
ENDBRANCH   1  17
BRANCH   3  20
ATOM     20  C   UNL     1       7.014  -0.869  -0.001  0.00  0.00    +0.263 C 
ATOM     21  O   UNL     1       8.087  -0.302  -0.083  0.00  0.00    -0.269 OA
ATOM     22  N   UNL     1       6.968  -2.211   0.111  0.00  0.00    -0.306 N 
ATOM     23  H   UNL     1       6.114  -2.669   0.104  0.00  0.00    +0.149 HD
BRANCH  22  24
ATOM     24  C   UNL     1       8.210  -2.978   0.242  0.00  0.00    +0.140 C 
BRANCH  24  25
ATOM     25  C   UNL     1       7.884  -4.446   0.349  0.00  0.00    -0.030 A 
ATOM     26  C   UNL     1       7.666  -5.016   1.589  0.00  0.00    +0.008 A 
ATOM     27  C   UNL     1       7.367  -6.362   1.689  0.00  0.00    +0.038 A 
ATOM     28  C   UNL     1       7.287  -7.139   0.546  0.00  0.00    +0.123 A 
ATOM     29  C   UNL     1       7.505  -6.566  -0.696  0.00  0.00    +0.038 A 
ATOM     30  C   UNL     1       7.799  -5.219  -0.793  0.00  0.00    +0.008 A 
ATOM     31  F   UNL     1       6.995  -8.454   0.642  0.00  0.00    -0.205 F 
ENDBRANCH  24  25
ENDBRANCH  22  24
ENDBRANCH   3  20
TORSDOF 6
