REMARK  Name = ZINC09249736
REMARK  6 active torsions:
REMARK  status: ('A' for Active; 'I' for Inactive)
REMARK    1  A    between atoms: C_1  and  N_2
REMARK    2  A    between atoms: C_8  and  S_9
REMARK    3  A    between atoms: S_9  and  C_10
REMARK    4  A    between atoms: C_10  and  C_11
REMARK    5  A    between atoms: C_18  and  C_24
REMARK    6  A    between atoms: C_28  and  O_30
REMARK                            x       y       z     vdW  Elec       q    Type
REMARK                         _______ _______ _______ _____ _____    ______ ____
ROOT
ATOM      1  C   UNL     1       4.077   6.681   2.373  0.00  0.00    +0.152 C 
ATOM      2  N   UNL     1       2.625   6.487   2.369  0.00  0.00    -0.311 N 
ATOM      3  C   UNL     1       2.000   6.028   1.240  0.00  0.00    +0.116 A 
ATOM      4  C   UNL     1       0.650   5.853   1.256  0.00  0.00    +0.065 A 
ATOM      5  C   UNL     1      -0.067   6.150   2.433  0.00  0.00    +0.279 A 
ATOM      6  O   UNL     1      -1.280   6.002   2.469  0.00  0.00    -0.265 OA
ATOM      7  N   UNL     1       0.592   6.598   3.513  0.00  0.00    -0.185 NA
ATOM      8  C   UNL     1       1.898   6.763   3.488  0.00  0.00    +0.174 A 
ATOM      9  C   UNL     1      -0.065   5.351   0.031  0.00  0.00    +0.066 C 
ATOM     10  C   UNL     1       0.639   5.875  -1.222  0.00  0.00    +0.109 C 
ATOM     11  C   UNL     1       2.124   5.657  -1.095  0.00  0.00    +0.219 C 
ATOM     12  O   UNL     1       2.780   5.400  -2.082  0.00  0.00    -0.275 OA
ATOM     13  N   UNL     1       2.728   5.746   0.104  0.00  0.00    -0.271 N 
ATOM     14  H   UNL     1       3.687   5.611   0.169  0.00  0.00    +0.156 HD
ENDROOT
BRANCH   9  15
ATOM     15  C   UNL     1      -0.049   3.844   0.023  0.00  0.00    -0.036 A 
ATOM     16  C   UNL     1       1.156   3.166   0.008  0.00  0.00    +0.004 A 
ATOM     17  C   UNL     1       1.174   1.783   0.000  0.00  0.00    +0.004 A 
ATOM     18  C   UNL     1      -0.013   1.076   0.008  0.00  0.00    +0.045 A 
ATOM     19  C   UNL     1      -1.223   1.754   0.017  0.00  0.00    +0.117 A 
ATOM     20  C   UNL     1      -1.238   3.141   0.030  0.00  0.00    +0.049 A 
BRANCH  19  21
ATOM     21  O   UNL     1      -2.391   1.060   0.019  0.00  0.00    -0.507 OA
ATOM     22  H   UNL     1      -2.725   0.854   0.903  0.00  0.00    +0.292 HD
ENDBRANCH  19  21
ENDBRANCH   9  15
BRANCH   8  23
ATOM     23  S   UNL     1       2.722   7.353   4.930  0.00  0.00    -0.083 S 
BRANCH  23  24
ATOM     24  C   UNL     1       1.310   7.538   6.046  0.00  0.00    +0.114 C 
BRANCH  24  25
ATOM     25  C   UNL     1       1.788   8.047   7.381  0.00  0.00    -0.019 A 
ATOM     26  C   UNL     1       2.151   7.153   8.372  0.00  0.00    +0.006 A 
ATOM     27  C   UNL     1       2.594   7.620   9.595  0.00  0.00    +0.000 A 
ATOM     28  C   UNL     1       2.664   8.980   9.833  0.00  0.00    +0.001 A 
ATOM     29  C   UNL     1       2.296   9.874   8.845  0.00  0.00    +0.020 A 
ATOM     30  C   UNL     1       1.857   9.408   7.619  0.00  0.00    +0.045 A 
ATOM     31 CL   UNL     1       1.394  10.530   6.378  0.00  0.00    -0.083 Cl
ENDBRANCH  24  25
ENDBRANCH  23  24
ENDBRANCH   8  23
TORSDOF 5
