REMARK  Name = ZINC63513983
REMARK  10 active torsions:
REMARK  status: ('A' for Active; 'I' for Inactive)
REMARK    1  A    between atoms: C_1  and  C_2
REMARK    2  A    between atoms: C_6  and  C_37
REMARK    3  A    between atoms: C_7  and  N_8
REMARK    4  A    between atoms: C_9  and  C_14
REMARK    5  A    between atoms: C_14  and  C_16
REMARK    6  A    between atoms: C_14  and  N_23
REMARK    7  A    between atoms: N_23  and  C_24
REMARK    8  A    between atoms: C_24  and  C_25
REMARK    9  A    between atoms: C_25  and  C_26
REMARK   10  A    between atoms: C_34  and  C_36
REMARK                            x       y       z     vdW  Elec       q    Type
REMARK                         _______ _______ _______ _____ _____    ______ ____
ROOT
ATOM      1  C   UNL     1       2.104  -0.849   3.880  0.00  0.00    +0.001 C 
ENDROOT
BRANCH   1   2
ATOM      2  C   UNL     1       1.283  -1.790   4.723  0.00  0.00    -0.058 A 
ATOM      3  C   UNL     1       0.859  -1.401   5.980  0.00  0.00    +0.003 A 
ATOM      4  C   UNL     1       0.106  -2.264   6.754  0.00  0.00    +0.020 A 
ATOM      5  C   UNL     1      -0.224  -3.517   6.271  0.00  0.00    +0.041 A 
ATOM      6  C   UNL     1       0.200  -3.906   5.013  0.00  0.00    +0.020 A 
ATOM      7  C   UNL     1       0.948  -3.041   4.237  0.00  0.00    +0.003 A 
ATOM      8 CL   UNL     1      -1.169  -4.602   7.242  0.00  0.00    -0.084 Cl
ENDBRANCH   1   2
BRANCH   1  10
ATOM      9  N   UNL     1       1.958   1.158   2.443  0.00  0.00    -0.184 N 
ATOM     10  C   UNL     1       1.217   0.293   3.380  0.00  0.00    +0.191 C 
ATOM     11  N   UNL     1       0.114  -0.223   2.548  0.00  0.00    -0.229 N 
ATOM     12  N   UNL     1       0.291   0.345   1.281  0.00  0.00    -0.063 NA
ATOM     13  N   UNL     1       1.270   1.084   1.227  0.00  0.00    -0.056 NA
ATOM     14  H   UNL     1      -0.590  -0.832   2.823  0.00  0.00    +0.172 HD
BRANCH   9  21
ATOM     15  C   UNL     1       1.642   3.744   3.587  0.00  0.00    +0.046 C 
ATOM     16  C   UNL     1       3.000   3.170   3.274  0.00  0.00    -0.027 A 
ATOM     17  C   UNL     1       4.139   3.901   3.547  0.00  0.00    +0.005 A 
ATOM     18  C   UNL     1       5.386   3.376   3.260  0.00  0.00    +0.001 A 
ATOM     19  C   UNL     1       5.496   2.117   2.698  0.00  0.00    +0.005 A 
ATOM     20  C   UNL     1       4.362   1.380   2.423  0.00  0.00    -0.027 A 
ATOM     21  C   UNL     1       3.107   1.902   2.716  0.00  0.00    +0.061 A 
ATOM     22  C   UNL     1       4.483   0.008   1.810  0.00  0.00    +0.046 C 
ENDBRANCH   9  21
ENDBRANCH   1  10
BRANCH   1  23
ATOM     23  N   UNL     1       3.201  -0.300   4.687  0.00  0.00    +0.386 N 
ATOM     24  H   UNL     1       3.701   0.392   4.148  0.00  0.00    -0.085 HD
ATOM     25  H   UNL     1       2.825   0.130   5.519  0.00  0.00    -0.085 HD
BRANCH  23  26
ATOM     26  C   UNL     1       4.119  -1.382   5.067  0.00  0.00    -0.077 C 
BRANCH  26  27
ATOM     27  C   UNL     1       5.262  -0.810   5.907  0.00  0.00    +0.014 C 
BRANCH  27  28
ATOM     28  C   UNL     1       6.204  -1.920   6.297  0.00  0.00    -0.041 C 
ATOM     29  C   UNL     1       6.097  -3.229   5.972  0.00  0.00    -0.001 A 
ATOM     30  C   UNL     1       5.110  -3.981   5.188  0.00  0.00    +0.010 A 
ATOM     31  C   UNL     1       5.274  -5.315   5.034  0.00  0.00    +0.001 A 
ATOM     32  C   UNL     1       6.360  -5.995   5.601  0.00  0.00    +0.002 A 
ATOM     33  C   UNL     1       7.308  -5.372   6.334  0.00  0.00    +0.026 A 
ATOM     34  C   UNL     1       7.235  -3.970   6.560  0.00  0.00    +0.043 A 
ATOM     35  N   UNL     1       8.015  -3.151   7.224  0.00  0.00    -0.378 N 
ATOM     36  C   UNL     1       7.463  -1.796   7.126  0.00  0.00    +0.103 C 
ATOM     37  C   UNL     1       7.126  -1.265   8.521  0.00  0.00    +0.035 C 
ATOM     38  H   UNL     1       8.825  -3.400   7.697  0.00  0.00    +0.160 HD
ENDBRANCH  27  28
ENDBRANCH  26  27
ENDBRANCH  23  26
ENDBRANCH   1  23
TORSDOF 7
