REMARK  Name = ZINC04146847
REMARK  7 active torsions:
REMARK  status: ('A' for Active; 'I' for Inactive)
REMARK    1  A    between atoms: C_1  and  C_2
REMARK    2  A    between atoms: C_5  and  C_8
REMARK    3  A    between atoms: C_12  and  C_22
REMARK    4  A    between atoms: C_17  and  N_21
REMARK    5  A    between atoms: C_18  and  C_19
REMARK    6  A    between atoms: C_25  and  O_28
REMARK    7  A    between atoms: O_28  and  C_29
REMARK                            x       y       z     vdW  Elec       q    Type
REMARK                         _______ _______ _______ _____ _____    ______ ____
ROOT
ATOM      1  C   UNL     1       0.059  -4.275  -0.021  0.00  0.00    +0.082 C 
ATOM      2  C   UNL     1       1.319  -4.776   0.695  0.00  0.00    +0.140 C 
ATOM      3  C   UNL     1       2.475  -3.826   0.477  0.00  0.00    +0.084 C 
ATOM      4  N   UNL     1       2.779  -3.350   1.655  0.00  0.00    -0.150 NA
ATOM      5  N   UNL     1       1.938  -3.838   2.656  0.00  0.00    -0.115 NA
ATOM      6  C   UNL     1       1.032  -4.642   2.188  0.00  0.00    +0.227 C 
ATOM      7  O   UNL     1      -0.042  -5.238   2.750  0.00  0.00    -0.425 OA
ATOM      8  C   UNL     1      -1.159  -5.223   1.977  0.00  0.00    +0.200 C 
ATOM      9  C   UNL     1      -1.156  -4.798   0.695  0.00  0.00    +0.095 C 
ENDROOT
BRANCH   1  14
ATOM     10  C   UNL     1      -0.018   1.503   0.010  0.00  0.00    +0.044 C 
ATOM     11  C   UNL     1       0.002  -0.004   0.002  0.00  0.00    -0.050 A 
ATOM     12  C   UNL     1       0.006  -0.689  -1.199  0.00  0.00    +0.003 A 
ATOM     13  C   UNL     1       0.025  -2.071  -1.206  0.00  0.00    +0.004 A 
ATOM     14  C   UNL     1       0.040  -2.768  -0.013  0.00  0.00    -0.038 A 
ATOM     15  C   UNL     1       0.037  -2.084   1.188  0.00  0.00    +0.004 A 
ATOM     16  C   UNL     1       0.023  -0.702   1.195  0.00  0.00    +0.003 A 
ENDBRANCH   1  14
BRANCH   3  17
ATOM     17  C   UNL     1       3.125  -3.502  -0.802  0.00  0.00    -0.001 A 
ATOM     18  C   UNL     1       2.676  -4.095  -1.987  0.00  0.00    +0.013 A 
ATOM     19  C   UNL     1       3.288  -3.789  -3.182  0.00  0.00    +0.046 A 
ATOM     20  C   UNL     1       4.350  -2.893  -3.212  0.00  0.00    +0.120 A 
ATOM     21  C   UNL     1       4.800  -2.301  -2.038  0.00  0.00    +0.046 A 
ATOM     22  C   UNL     1       4.190  -2.596  -0.838  0.00  0.00    +0.013 A 
BRANCH  20  23
ATOM     23  O   UNL     1       4.951  -2.595  -4.393  0.00  0.00    -0.495 OA
ATOM     24  C   UNL     1       6.036  -1.666  -4.352  0.00  0.00    +0.277 C 
ENDBRANCH  20  23
ENDBRANCH   3  17
BRANCH   8  25
ATOM     25  N   UNL     1      -2.341  -5.661   2.521  0.00  0.00    -0.328 N 
ATOM     26  H   UNL     1      -2.366  -5.971   3.440  0.00  0.00    +0.145 HD
ATOM     27  H   UNL     1      -3.150  -5.659   1.987  0.00  0.00    +0.145 HD
ENDBRANCH   8  25
BRANCH   9  28
ATOM     28  C   UNL     1      -2.390  -4.848  -0.030  0.00  0.00    +0.100 C 
ATOM     29  N   UNL     1      -3.369  -4.887  -0.606  0.00  0.00    -0.191 NA
ENDBRANCH   9  28
TORSDOF 5
