REMARK  Name = ZINC39655399
REMARK  10 active torsions:
REMARK  status: ('A' for Active; 'I' for Inactive)
REMARK    1  A    between atoms: C_1  and  C_2
REMARK    2  A    between atoms: C_2  and  C_3
REMARK    3  A    between atoms: C_3  and  C_4
REMARK    4  A    between atoms: C_3  and  C_6
REMARK    5  A    between atoms: C_4  and  C_5
REMARK    6  A    between atoms: C_10  and  C_19
REMARK    7  A    between atoms: N_21  and  C_22
REMARK    8  A    between atoms: C_22  and  C_23
REMARK    9  A    between atoms: C_23  and  N_24
REMARK   10  A    between atoms: N_24  and  C_25
REMARK                            x       y       z     vdW  Elec       q    Type
REMARK                         _______ _______ _______ _____ _____    ______ ____
ROOT
ATOM      1  C   UNL     1       0.518  -2.150  -1.349  0.00  0.00    +0.219 C 
ATOM      2  O   UNL     1      -0.202  -2.728  -0.563  0.00  0.00    -0.275 OA
ATOM      3  N   UNL     1       1.184  -2.848  -2.291  0.00  0.00    -0.300 N 
ATOM      4  C   UNL     1       2.030  -2.318  -3.385  0.00  0.00    +0.121 C 
ATOM      5  C   UNL     1       3.223  -3.297  -3.466  0.00  0.00    +0.100 C 
ATOM      6  C   UNL     1       2.695  -4.609  -2.862  0.00  0.00    -0.004 C 
ATOM      7  C   UNL     1       1.242  -4.320  -2.460  0.00  0.00    +0.115 C 
ATOM      8  C   UNL     1       2.745  -5.726  -3.900  0.00  0.00    -0.010 C 
ATOM      9  C   UNL     1       2.270  -7.033  -3.259  0.00  0.00    -0.082 C 
ATOM     10  N   UNL     1       3.131  -7.361  -2.115  0.00  0.00    +0.379 N 
ATOM     11  C   UNL     1       3.006  -6.326  -1.082  0.00  0.00    -0.082 C 
ATOM     12  C   UNL     1       3.512  -4.989  -1.631  0.00  0.00    -0.010 C 
ATOM     13  H   UNL     1       2.854  -8.252  -1.733  0.00  0.00    -0.086 HD
ATOM     14  H   UNL     1       4.091  -7.413  -2.423  0.00  0.00    -0.086 HD
ENDROOT
BRANCH   5  15
ATOM     15  C   UNL     1       4.385  -2.776  -2.661  0.00  0.00    +0.218 C 
ATOM     16  O   UNL     1       4.185  -2.146  -1.644  0.00  0.00    -0.275 OA
ATOM     17  N   UNL     1       5.648  -3.009  -3.071  0.00  0.00    -0.314 N 
ATOM     18  H   UNL     1       5.808  -3.513  -3.885  0.00  0.00    +0.149 HD
BRANCH  17  19
ATOM     19  C   UNL     1       6.778  -2.503  -2.289  0.00  0.00    +0.123 C 
BRANCH  19  20
ATOM     20  C   UNL     1       8.089  -2.903  -2.968  0.00  0.00    +0.120 C 
BRANCH  20  21
ATOM     21  N   UNL     1       9.219  -2.396  -2.185  0.00  0.00    -0.342 N 
ATOM     22  H   UNL     1       9.059  -1.893  -1.372  0.00  0.00    +0.146 HD
BRANCH  21  23
ATOM     23  C   UNL     1      10.527  -2.638  -2.610  0.00  0.00    +0.027 A 
ATOM     24  C   UNL     1      10.759  -3.354  -3.778  0.00  0.00    +0.023 A 
ATOM     25  C   UNL     1      12.054  -3.591  -4.196  0.00  0.00    +0.002 A 
ATOM     26  C   UNL     1      13.119  -3.117  -3.453  0.00  0.00    +0.000 A 
ATOM     27  C   UNL     1      12.892  -2.404  -2.289  0.00  0.00    +0.002 A 
ATOM     28  C   UNL     1      11.600  -2.159  -1.869  0.00  0.00    +0.023 A 
ENDBRANCH  21  23
ENDBRANCH  20  21
ENDBRANCH  19  20
ENDBRANCH  17  19
ENDBRANCH   5  15
BRANCH   1  29
ATOM     29  C   UNL     1       0.668  -0.652  -1.275  0.00  0.00    +0.075 C 
BRANCH  29  31
ATOM     30  C   UNL     1      -0.244   1.527  -2.088  0.00  0.00    +0.004 C 
ATOM     31  C   UNL     1      -0.465   0.013  -2.058  0.00  0.00    +0.009 C 
ENDBRANCH  29  31
BRANCH  29  32
ATOM     32  C   UNL     1       0.608  -0.206   0.187  0.00  0.00    +0.009 C 
ATOM     33  C   UNL     1       1.819  -0.760   0.940  0.00  0.00    +0.004 C 
ENDBRANCH  29  32
ENDBRANCH   1  29
TORSDOF 8
