REMARK  Name = ZINC64099633
REMARK  6 active torsions:
REMARK  status: ('A' for Active; 'I' for Inactive)
REMARK    1  A    between atoms: C_1  and  C_2
REMARK    2  A    between atoms: C_5  and  S_9
REMARK    3  A    between atoms: C_7  and  C_8
REMARK    4  A    between atoms: S_9  and  N_12
REMARK    5  A    between atoms: C_13  and  C_15
REMARK    6  A    between atoms: C_18  and  C_23
REMARK                            x       y       z     vdW  Elec       q    Type
REMARK                         _______ _______ _______ _____ _____    ______ ____
ROOT
ATOM      1  N   UNL     1       1.651  -4.999  -0.034  0.00  0.00    -0.086 NA
ATOM      2  C   UNL     1       1.956  -6.267  -0.043  0.00  0.00    +0.300 C 
ATOM      3  O   UNL     1       0.975  -7.199  -0.042  0.00  0.00    -0.264 OA
ENDROOT
BRANCH   2   4
ATOM      4  C   UNL     1       3.368  -6.684  -0.053  0.00  0.00    +0.107 A 
ATOM      5  C   UNL     1       4.386  -5.728  -0.048  0.00  0.00    +0.021 A 
ATOM      6  C   UNL     1       5.707  -6.146  -0.057  0.00  0.00    +0.028 A 
ATOM      7  C   UNL     1       6.002  -7.503  -0.071  0.00  0.00    +0.056 A 
ATOM      8  N   UNL     1       4.999  -8.435  -0.077  0.00  0.00    -0.321 N 
ATOM      9  H   UNL     1       5.223  -9.379  -0.087  0.00  0.00    +0.169 HD
ATOM     10  C   UNL     1       3.707  -8.058  -0.062  0.00  0.00    +0.262 A 
ATOM     11  O   UNL     1       2.827  -8.902  -0.062  0.00  0.00    -0.267 OA
BRANCH   7  12
ATOM     12  C   UNL     1       7.400  -7.941  -0.081  0.00  0.00    +0.036 A 
ATOM     13  C   UNL     1       7.912  -9.230  -0.101  0.00  0.00    +0.017 A 
ATOM     14  C   UNL     1       9.284  -9.327  -0.106  0.00  0.00    +0.008 A 
ATOM     15  C   UNL     1      10.024  -8.192  -0.091  0.00  0.00    +0.046 A 
ATOM     16  S   UNL     1       8.886  -6.957  -0.078  0.00  0.00    -0.095 S 
ENDBRANCH   7  12
ENDBRANCH   2   4
BRANCH   1  17
ATOM     17  S   UNL     1       0.063  -4.530  -0.023  0.00  0.00    +0.102 S 
ATOM     18  O   UNL     1      -0.476  -4.950   1.223  0.00  0.00    -0.146 OA
ATOM     19  O   UNL     1      -0.490  -4.937  -1.267  0.00  0.00    -0.146 OA
BRANCH  17  24
ATOM     20  C   UNL     1      -0.018   1.503   0.010  0.00  0.00    +0.044 C 
ATOM     21  C   UNL     1       0.002  -0.004   0.002  0.00  0.00    -0.047 A 
ATOM     22  C   UNL     1       0.006  -0.689  -1.199  0.00  0.00    +0.005 A 
ATOM     23  C   UNL     1       0.025  -2.071  -1.207  0.00  0.00    +0.029 A 
ATOM     24  C   UNL     1       0.040  -2.768  -0.013  0.00  0.00    +0.113 A 
ATOM     25  C   UNL     1       0.037  -2.084   1.188  0.00  0.00    +0.032 A 
ATOM     26  C   UNL     1       0.023  -0.702   1.195  0.00  0.00    -0.046 A 
ATOM     27  C   UNL     1       0.025   0.045   2.504  0.00  0.00    +0.044 C 
ENDBRANCH  17  24
ENDBRANCH   1  17
TORSDOF 4
