REMARK  Name = ZINC36205899
REMARK  19 active torsions:
REMARK  status: ('A' for Active; 'I' for Inactive)
REMARK    1  A    between atoms: C_1  and  C_2
REMARK    2  A    between atoms: C_2  and  C_3
REMARK    3  A    between atoms: C_2  and  O_4
REMARK    4  A    between atoms: O_4  and  C_5
REMARK    5  A    between atoms: C_5  and  C_6
REMARK    6  A    between atoms: C_6  and  C_8
REMARK    7  A    between atoms: C_6  and  O_36
REMARK    8  A    between atoms: C_8  and  N_9
REMARK    9  A    between atoms: N_9  and  C_10
REMARK   10  A    between atoms: N_9  and  C_14
REMARK   11  A    between atoms: C_10  and  C_11
REMARK   12  A    between atoms: C_11  and  O_12
REMARK   13  A    between atoms: O_12  and  C_13
REMARK   14  A    between atoms: C_14  and  C_15
REMARK   15  A    between atoms: C_21  and  C_26
REMARK   16  A    between atoms: C_29  and  O_34
REMARK   17  A    between atoms: C_30  and  O_32
REMARK   18  A    between atoms: O_32  and  C_33
REMARK   19  A    between atoms: O_34  and  C_35
REMARK                            x       y       z     vdW  Elec       q    Type
REMARK                         _______ _______ _______ _____ _____    ______ ____
ROOT
ATOM      1  C   UNL     1      -6.585  -5.200  -2.199  0.00  0.00    +0.094 A 
ATOM      2  N   UNL     1      -7.156  -6.374  -2.570  0.00  0.00    -0.312 N 
ATOM      3  H   UNL     1      -6.590  -7.130  -2.791  0.00  0.00    +0.170 HD
ATOM      4  C   UNL     1      -8.493  -6.510  -2.638  0.00  0.00    +0.260 A 
ATOM      5  O   UNL     1      -8.991  -7.572  -2.974  0.00  0.00    -0.267 OA
ATOM      6  C   UNL     1      -9.323  -5.391  -2.311  0.00  0.00    +0.080 A 
ATOM      7  C   UNL     1     -10.777  -5.289  -2.308  0.00  0.00    +0.004 A 
ATOM      8  C   UNL     1     -11.347  -4.111  -1.957  0.00  0.00    +0.056 A 
ATOM      9  S   UNL     1      -9.948  -3.063  -1.608  0.00  0.00    -0.076 S 
ATOM     10  C   UNL     1      -8.643  -4.219  -1.938  0.00  0.00    +0.116 A 
ATOM     11  N   UNL     1      -7.315  -4.162  -1.889  0.00  0.00    -0.229 NA
ENDROOT
BRANCH   7  12
ATOM     12  C   UNL     1     -11.616  -6.453  -2.682  0.00  0.00    -0.013 A 
ATOM     13  C   UNL     1     -11.351  -7.155  -3.856  0.00  0.00    +0.012 A 
ATOM     14  C   UNL     1     -12.133  -8.239  -4.204  0.00  0.00    +0.050 A 
ATOM     15  C   UNL     1     -13.183  -8.630  -3.387  0.00  0.00    +0.162 A 
ATOM     16  C   UNL     1     -13.452  -7.932  -2.212  0.00  0.00    +0.162 A 
ATOM     17  C   UNL     1     -12.668  -6.849  -1.857  0.00  0.00    +0.058 A 
BRANCH  16  18
ATOM     18  O   UNL     1     -14.482  -8.318  -1.413  0.00  0.00    -0.491 OA
ATOM     19  C   UNL     1     -14.700  -7.557  -0.223  0.00  0.00    +0.277 C 
ENDBRANCH  16  18
BRANCH  15  20
ATOM     20  O   UNL     1     -13.951  -9.697  -3.733  0.00  0.00    -0.491 OA
ATOM     21  C   UNL     1     -13.620 -10.367  -4.952  0.00  0.00    +0.277 C 
ENDBRANCH  15  20
ENDBRANCH   7  12
BRANCH   1  22
ATOM     22  C   UNL     1      -5.083  -5.094  -2.136  0.00  0.00    -0.003 C 
BRANCH  22  23
ATOM     23  N   UNL     1      -4.707  -3.791  -1.570  0.00  0.00    +0.388 N 
ATOM     24  H   UNL     1      -5.165  -3.055  -2.087  0.00  0.00    -0.081 HD
BRANCH  23  25
ATOM     25  C   UNL     1      -5.120  -3.732  -0.162  0.00  0.00    -0.044 C 
BRANCH  25  26
ATOM     26  C   UNL     1      -4.842  -2.333   0.392  0.00  0.00    +0.124 C 
BRANCH  26  27
ATOM     27  O   UNL     1      -5.665  -1.380  -0.284  0.00  0.00    -0.391 OA
ATOM     28  H   UNL     1      -6.614  -1.542  -0.188  0.00  0.00    +0.210 HD
ENDBRANCH  26  27
BRANCH  26  29
ATOM     29  C   UNL     1      -5.155  -2.306   1.890  0.00  0.00    +0.189 C 
BRANCH  29  30
ATOM     30  O   UNL     1      -4.786  -1.036   2.431  0.00  0.00    -0.375 OA
BRANCH  30  32
ATOM     31  C   UNL     1      -4.017   0.053   4.447  0.00  0.00    +0.037 C 
ATOM     32  C   UNL     1      -5.038  -0.905   3.831  0.00  0.00    +0.112 C 
ATOM     33  C   UNL     1      -6.449  -0.353   4.046  0.00  0.00    +0.037 C 
ENDBRANCH  30  32
ENDBRANCH  29  30
ENDBRANCH  26  29
ENDBRANCH  25  26
ENDBRANCH  23  25
BRANCH  23  34
ATOM     34  C   UNL     1      -3.251  -3.620  -1.661  0.00  0.00    -0.050 C 
BRANCH  34  35
ATOM     35  C   UNL     1      -2.838  -3.538  -3.132  0.00  0.00    +0.141 C 
BRANCH  35  36
ATOM     36  O   UNL     1      -3.397  -2.362  -3.720  0.00  0.00    -0.385 OA
ATOM     37  C   UNL     1      -2.980  -2.130  -5.067  0.00  0.00    +0.193 C 
ENDBRANCH  35  36
ENDBRANCH  34  35
ENDBRANCH  23  34
ENDBRANCH  22  23
ENDBRANCH   1  22
TORSDOF 14
