REMARK  Name = ZINC44790231
REMARK  2 active torsions:
REMARK  status: ('A' for Active; 'I' for Inactive)
REMARK    1  A    between atoms: C_1  and  C_2
REMARK    2  A    between atoms: C_11  and  O_12
REMARK                            x       y       z     vdW  Elec       q    Type
REMARK                         _______ _______ _______ _____ _____    ______ ____
ROOT
ATOM      1  C   UNL     1      -0.018   1.503   0.010  0.00  0.00    +0.045 C 
ATOM      2  C   UNL     1       0.002  -0.004   0.002  0.00  0.00    -0.031 A 
ATOM      3  C   UNL     1      -0.095  -0.697  -1.162  0.00  0.00    +0.021 A 
ATOM      4  C   UNL     1      -0.070  -2.099  -1.171  0.00  0.00    +0.219 A 
ATOM      5  N   UNL     1       0.038  -2.769  -0.036  0.00  0.00    -0.209 NA
ATOM      6  C   UNL     1       0.136  -2.147   1.142  0.00  0.00    +0.118 A 
ATOM      7  C   UNL     1       0.129  -0.733   1.201  0.00  0.00    +0.026 A 
ATOM      8  C   UNL     1       0.241  -0.086   2.443  0.00  0.00    +0.051 A 
ATOM      9  C   UNL     1       0.358  -0.827   3.582  0.00  0.00    +0.024 A 
ATOM     10  C   UNL     1       0.369  -2.218   3.530  0.00  0.00    +0.049 A 
ATOM     11  C   UNL     1       0.253  -2.880   2.342  0.00  0.00    +0.143 A 
ATOM     12 CL   UNL     1       0.231   1.648   2.528  0.00  0.00    -0.083 Cl
ATOM     13  O   UNL     1      -0.155  -2.575  -2.444  0.00  0.00    -0.476 OA
ATOM     14  C   UNL     1      -0.691  -1.553  -3.300  0.00  0.00    +0.235 C 
ATOM     15  C   UNL     1      -0.246  -0.246  -2.602  0.00  0.00    +0.082 C 
ENDROOT
BRANCH  11  16
ATOM     16  O   UNL     1       0.264  -4.239   2.313  0.00  0.00    -0.505 OA
ATOM     17  H   UNL     1       1.147  -4.623   2.225  0.00  0.00    +0.292 HD
ENDBRANCH  11  16
TORSDOF 1
