REMARK  Name = ZINC66399031
REMARK  6 active torsions:
REMARK  status: ('A' for Active; 'I' for Inactive)
REMARK    1  A    between atoms: C_1  and  C_2
REMARK    2  A    between atoms: C_7  and  C_8
REMARK    3  A    between atoms: C_8  and  C_10
REMARK    4  A    between atoms: C_8  and  N_12
REMARK    5  A    between atoms: C_13  and  C_15
REMARK    6  A    between atoms: C_17  and  C_21
REMARK                            x       y       z     vdW  Elec       q    Type
REMARK                         _______ _______ _______ _____ _____    ______ ____
ROOT
ATOM      1  N   UNL     1      -0.537  -0.808   3.554  0.00  0.00    -0.291 N 
ATOM      2  C   UNL     1      -1.190  -0.255   4.595  0.00  0.00    +0.264 C 
ATOM      3  O   UNL     1      -1.312   0.954   4.663  0.00  0.00    -0.268 OA
ATOM      4  H   UNL     1      -0.440  -1.772   3.500  0.00  0.00    +0.151 HD
ENDROOT
BRANCH   2   5
ATOM      5  C   UNL     1      -1.754  -1.112   5.649  0.00  0.00    +0.135 A 
ATOM      6  C   UNL     1      -2.451  -0.696   6.769  0.00  0.00    +0.075 A 
ATOM      7  C   UNL     1      -2.778  -1.878   7.462  0.00  0.00    +0.107 A 
ATOM      8  N   UNL     1      -2.295  -2.889   6.772  0.00  0.00    -0.172 NA
ATOM      9  N   UNL     1      -1.699  -2.477   5.712  0.00  0.00    -0.271 N 
ATOM     10  H   UNL     1      -1.272  -3.048   5.054  0.00  0.00    +0.189 HD
ATOM     11 BR   UNL     1      -2.874   1.079   7.265  0.00  0.00    -0.046 Br
BRANCH   7  12
ATOM     12  C   UNL     1      -3.530  -1.966   8.738  0.00  0.00    +0.003 A 
ATOM     13  C   UNL     1      -3.378  -0.979   9.709  0.00  0.00    +0.010 A 
ATOM     14  C   UNL     1      -4.080  -1.066  10.894  0.00  0.00    +0.001 A 
ATOM     15  C   UNL     1      -4.933  -2.132  11.119  0.00  0.00    +0.000 A 
ATOM     16  C   UNL     1      -5.087  -3.115  10.158  0.00  0.00    +0.001 A 
ATOM     17  C   UNL     1      -4.395  -3.034   8.967  0.00  0.00    +0.010 A 
ENDBRANCH   7  12
ENDBRANCH   2   5
BRANCH   1  18
ATOM     18  C   UNL     1       0.025   0.045   2.504  0.00  0.00    +0.207 C 
BRANCH  18  25
ATOM     19  C   UNL     1      -0.096   1.486   0.003  0.00  0.00    +0.044 C 
ATOM     20  C   UNL     1      -0.017  -0.019   0.003  0.00  0.00    -0.045 A 
ATOM     21  C   UNL     1       0.003  -0.710  -1.195  0.00  0.00    +0.004 A 
ATOM     22  C   UNL     1       0.076  -2.090  -1.195  0.00  0.00    +0.000 A 
ATOM     23  C   UNL     1       0.129  -2.780   0.002  0.00  0.00    +0.000 A 
ATOM     24  C   UNL     1       0.110  -2.089   1.199  0.00  0.00    +0.007 A 
ATOM     25  C   UNL     1       0.041  -0.709   1.199  0.00  0.00    -0.010 A 
ENDBRANCH  18  25
BRANCH  18  26
ATOM     26  C   UNL     1       1.400   0.428   2.867  0.00  0.00    +0.090 C 
ATOM     27  N   UNL     1       2.460   0.723   3.147  0.00  0.00    -0.194 NA
ENDBRANCH  18  26
ENDBRANCH   1  18
TORSDOF 5
