REMARK  Name = ZINC35490708
REMARK  9 active torsions:
REMARK  status: ('A' for Active; 'I' for Inactive)
REMARK    1  A    between atoms: C_1  and  C_2
REMARK    2  A    between atoms: C_2  and  C_3
REMARK    3  A    between atoms: C_3  and  C_4
REMARK    4  A    between atoms: C_4  and  N_5
REMARK    5  A    between atoms: C_9  and  C_10
REMARK    6  A    between atoms: C_11  and  C_22
REMARK    7  A    between atoms: N_13  and  C_16
REMARK    8  A    between atoms: C_22  and  C_23
REMARK    9  A    between atoms: C_22  and  C_24
REMARK                            x       y       z     vdW  Elec       q    Type
REMARK                         _______ _______ _______ _____ _____    ______ ____
ROOT
ATOM      1  C   UNL     1       4.384  -4.022   5.708  0.00  0.00    +0.066 A 
ATOM      2  C   UNL     1       5.037  -5.191   6.168  0.00  0.00    +0.077 A 
ATOM      3  N   UNL     1       4.913  -5.245   7.464  0.00  0.00    -0.167 NA
ATOM      4  N   UNL     1       4.185  -4.133   7.903  0.00  0.00    -0.196 N 
ATOM      5  C   UNL     1       3.865  -3.379   6.829  0.00  0.00    +0.281 A 
ATOM      6  O   UNL     1       3.167  -2.219   6.840  0.00  0.00    -0.265 OA
ENDROOT
BRANCH   1  11
ATOM      7  N   UNL     1       1.471  -2.526   2.420  0.00  0.00    -0.221 N 
ATOM      8  C   UNL     1       2.796  -2.762   2.491  0.00  0.00    +0.268 C 
ATOM      9  O   UNL     1       3.607  -2.613   1.594  0.00  0.00    -0.268 OA
ATOM     10  C   UNL     1       3.068  -3.217   3.808  0.00  0.00    +0.099 C 
ATOM     11  C   UNL     1       4.279  -3.572   4.319  0.00  0.00    +0.043 C 
ATOM     12  N   UNL     1       1.833  -3.226   4.476  0.00  0.00    -0.265 N 
ATOM     13  C   UNL     1       0.900  -2.798   3.605  0.00  0.00    +0.313 C 
ATOM     14  O   UNL     1      -0.284  -2.678   3.853  0.00  0.00    -0.252 OA
ATOM     15  H   UNL     1       1.681  -3.489   5.397  0.00  0.00    +0.157 HD
BRANCH   7  16
ATOM     16  C   UNL     1       0.763  -2.041   1.233  0.00  0.00    +0.118 C 
BRANCH  16  17
ATOM     17  C   UNL     1       0.742  -0.511   1.242  0.00  0.00    +0.019 C 
BRANCH  17  19
ATOM     18  C   UNL     1      -0.019   1.526   0.010  0.00  0.00    +0.004 C 
ATOM     19  C   UNL     1       0.002  -0.004   0.002  0.00  0.00    -0.002 C 
ENDBRANCH  17  19
ENDBRANCH  16  17
ENDBRANCH   7  16
ENDBRANCH   1  11
BRANCH   4  20
ATOM     20  C   UNL     1       3.849  -3.848   9.234  0.00  0.00    +0.069 A 
ATOM     21  C   UNL     1       3.802  -2.531   9.672  0.00  0.00    +0.028 A 
ATOM     22  C   UNL     1       3.471  -2.253  10.984  0.00  0.00    +0.002 A 
ATOM     23  C   UNL     1       3.188  -3.284  11.860  0.00  0.00    +0.000 A 
ATOM     24  C   UNL     1       3.235  -4.596  11.427  0.00  0.00    +0.002 A 
ATOM     25  C   UNL     1       3.559  -4.881  10.115  0.00  0.00    +0.028 A 
ENDBRANCH   4  20
BRANCH   2  26
ATOM     26  C   UNL     1       5.753  -6.200   5.307  0.00  0.00    +0.034 C 
ATOM     27  C   UNL     1       7.221  -6.282   5.731  0.00  0.00    +0.014 C 
ATOM     28  C   UNL     1       5.097  -7.571   5.474  0.00  0.00    +0.014 C 
ENDBRANCH   2  26
TORSDOF 6
