REMARK  Name = ZINC14953728
REMARK  10 active torsions:
REMARK  status: ('A' for Active; 'I' for Inactive)
REMARK    1  A    between atoms: C_1  and  C_2
REMARK    2  A    between atoms: C_6  and  C_29
REMARK    3  A    between atoms: C_16  and  N_62
REMARK    4  A    between atoms: C_20  and  C_21
REMARK    5  A    between atoms: C_20  and  N_62
REMARK    6  A    between atoms: C_21  and  C_22
REMARK    7  A    between atoms: C_21  and  C_25
REMARK    8  A    between atoms: C_21  and  O_28
REMARK    9  A    between atoms: C_22  and  C_23
REMARK   10  A    between atoms: C_25  and  C_26
REMARK                            x       y       z     vdW  Elec       q    Type
REMARK                         _______ _______ _______ _____ _____    ______ ____
ROOT
ATOM      1  C   UNL     1      10.360  -5.959   0.798  0.00  0.00    +0.044 C 
ATOM      2  C   UNL     1       9.477  -4.738   0.815  0.00  0.00    -0.048 A 
ATOM      3  C   UNL     1       9.732  -3.696  -0.074  0.00  0.00    +0.004 A 
ATOM      4  C   UNL     1       8.953  -2.578  -0.085  0.00  0.00    +0.012 A 
ATOM      5  C   UNL     1       7.880  -2.474   0.812  0.00  0.00    +0.022 A 
ATOM      6  C   UNL     1       7.043  -1.344   0.848  0.00  0.00    +0.051 A 
ATOM      7  N   UNL     1       6.056  -1.321   1.719  0.00  0.00    -0.219 NA
ATOM      8  C   UNL     1       5.841  -2.335   2.555  0.00  0.00    +0.219 A 
ATOM      9  N   UNL     1       6.595  -3.416   2.571  0.00  0.00    -0.214 NA
ATOM     10  C   UNL     1       7.620  -3.535   1.718  0.00  0.00    +0.077 A 
ATOM     11  C   UNL     1       8.443  -4.670   1.700  0.00  0.00    +0.032 A 
ATOM     12  N   UNL     1       4.786  -2.248   3.446  0.00  0.00    -0.300 N 
ATOM     13  C   UNL     1       3.869  -3.399   3.297  0.00  0.00    +0.108 C 
ATOM     14  C   UNL     1       2.576  -3.216   4.045  0.00  0.00    +0.017 C 
ATOM     15  C   UNL     1       1.533  -2.617   3.079  0.00  0.00    -0.014 C 
ATOM     16  C   UNL     1       1.719  -1.183   2.888  0.00  0.00    -0.070 C 
ATOM     17  C   UNL     1       3.096  -0.849   2.277  0.00  0.00    +0.003 C 
ATOM     18  C   UNL     1       4.131  -0.923   3.365  0.00  0.00    +0.106 C 
ATOM     19  C   UNL     1       7.271  -0.186  -0.090  0.00  0.00    +0.066 C 
ENDROOT
BRANCH  16  20
ATOM     20  N   UNL     1       0.661  -0.686   1.988  0.00  0.00    +0.383 N 
ATOM     21  H   UNL     1      -0.206  -1.206   2.165  0.00  0.00    -0.085 HD
ATOM     22  H   UNL     1       0.952  -0.827   1.014  0.00  0.00    -0.085 HD
BRANCH  20  23
ATOM     23  C   UNL     1       0.423   0.751   2.221  0.00  0.00    -0.046 C 
BRANCH  23  24
ATOM     24  C   UNL     1      -0.677   1.237   1.275  0.00  0.00    +0.058 C 
BRANCH  24  25
ATOM     25  O   UNL     1      -1.907   0.588   1.602  0.00  0.00    -0.390 OA
ATOM     26  H   UNL     1      -2.213   0.755   2.504  0.00  0.00    +0.210 HD
ENDBRANCH  24  25
BRANCH  24  27
ATOM     27  C   UNL     1      -0.292   0.904  -0.168  0.00  0.00    +0.059 C 
BRANCH  27  28
ATOM     28  C   UNL     1      -1.356   1.420  -1.103  0.00  0.00    -0.032 C 
ATOM     29  C   UNL     1      -1.030   2.221  -2.087  0.00  0.00    +0.004 C 
ENDBRANCH  27  28
ENDBRANCH  24  27
BRANCH  24  30
ATOM     30  C   UNL     1      -0.844   2.751   1.422  0.00  0.00    +0.059 C 
BRANCH  30  31
ATOM     31  C   UNL     1      -1.186   3.082   2.852  0.00  0.00    -0.032 C 
ATOM     32  C   UNL     1      -0.452   3.937   3.521  0.00  0.00    +0.004 C 
ENDBRANCH  30  31
ENDBRANCH  24  30
ENDBRANCH  23  24
ENDBRANCH  20  23
ENDBRANCH  16  20
TORSDOF 8
