REMARK  Name = ZINC21821794
REMARK  6 active torsions:
REMARK  status: ('A' for Active; 'I' for Inactive)
REMARK    1  A    between atoms: C_1  and  C_2
REMARK    2  A    between atoms: C_2  and  O_3
REMARK    3  A    between atoms: O_3  and  C_4
REMARK    4  A    between atoms: C_11  and  C_18
REMARK    5  A    between atoms: C_13  and  O_14
REMARK    6  A    between atoms: C_18  and  N_19
REMARK                            x       y       z     vdW  Elec       q    Type
REMARK                         _______ _______ _______ _____ _____    ______ ____
ROOT
ATOM      1  C   UNL     1      -6.370   0.625   6.683  0.00  0.00    +0.405 C 
ATOM      2  O   UNL     1      -5.502   0.872   7.497  0.00  0.00    -0.226 OA
ATOM      3  N   UNL     1      -6.086   0.657   5.366  0.00  0.00    -0.251 N 
ATOM      4  C   UNL     1      -4.776   0.879   4.939  0.00  0.00    +0.040 A 
ATOM      5  C   UNL     1      -4.303   0.237   3.795  0.00  0.00    +0.024 A 
ATOM      6  C   UNL     1      -3.025   0.445   3.365  0.00  0.00    +0.014 A 
ATOM      7  C   UNL     1      -2.182   1.306   4.078  0.00  0.00    +0.022 A 
ATOM      8  C   UNL     1      -0.806   1.547   3.640  0.00  0.00    -0.016 A 
ATOM      9  C   UNL     1      -0.036   2.389   4.377  0.00  0.00    +0.093 A 
ATOM     10  C   UNL     1      -0.574   3.010   5.522  0.00  0.00    +0.285 A 
ATOM     11  O   UNL     1      -1.837   2.786   5.918  0.00  0.00    -0.425 OA
ATOM     12  C   UNL     1      -2.654   1.957   5.234  0.00  0.00    +0.141 A 
ATOM     13  C   UNL     1      -3.955   1.736   5.657  0.00  0.00    +0.070 A 
ATOM     14  H   UNL     1      -6.887   0.508   4.627  0.00  0.00    +0.158 HD
ENDROOT
BRANCH  10  15
ATOM     15  O   UNL     1       0.126   3.767   6.172  0.00  0.00    -0.480 OA
ATOM     16  H   UNL     1      -0.281   4.259   7.068  0.00  0.00    +0.295 HD
ENDBRANCH  10  15
BRANCH   1  17
ATOM     17  O   UNL     1      -7.614   0.321   7.097  0.00  0.00    -0.450 OA
BRANCH  17  19
ATOM     18  C   UNL     1      -9.308  -0.059   8.805  0.00  0.00    +0.048 C 
ATOM     19  C   UNL     1      -7.848   0.305   8.530  0.00  0.00    +0.230 C 
ENDBRANCH  17  19
ENDBRANCH   1  17
BRANCH   8  20
ATOM     20  C   UNL     1      -0.256   0.873   2.409  0.00  0.00    +0.120 C 
BRANCH  20  21
ATOM     21  N   UNL     1      -0.714   1.591   1.212  0.00  0.00    -0.294 NA
ATOM     22  C   UNL     1      -0.013   1.113   0.010  0.00  0.00    +0.090 C 
ATOM     23  C   UNL     1      -0.763   1.611  -1.225  0.00  0.00    +0.051 C 
ATOM     24  C   UNL     1      -1.015   3.092  -1.112  0.00  0.00    -0.042 A 
ATOM     25  C   UNL     1      -1.359   3.794  -2.257  0.00  0.00    +0.004 A 
ATOM     26  C   UNL     1      -1.600   5.152  -2.197  0.00  0.00    +0.000 A 
ATOM     27  C   UNL     1      -1.500   5.816  -0.988  0.00  0.00    +0.000 A 
ATOM     28  C   UNL     1      -1.156   5.118   0.152  0.00  0.00    +0.005 A 
ATOM     29  C   UNL     1      -0.911   3.754   0.093  0.00  0.00    -0.030 A 
ATOM     30  C   UNL     1      -0.535   3.038   1.363  0.00  0.00    +0.120 C 
ENDBRANCH  20  21
ENDBRANCH   8  20
TORSDOF 5
