REMARK  Name = ZINC01224822
REMARK  7 active torsions:
REMARK  status: ('A' for Active; 'I' for Inactive)
REMARK    1  A    between atoms: C_1  and  C_2
REMARK    2  A    between atoms: C_7  and  C_9
REMARK    3  A    between atoms: C_7  and  C_23
REMARK    4  A    between atoms: C_7  and  N_61
REMARK    5  A    between atoms: C_14  and  O_21
REMARK    6  A    between atoms: O_21  and  C_22
REMARK    7  A    between atoms: N_27  and  C_28
REMARK                            x       y       z     vdW  Elec       q    Type
REMARK                         _______ _______ _______ _____ _____    ______ ____
ROOT
ATOM      1  C   UNL     1      -8.090  -0.013   3.182  0.00  0.00    +0.039 C 
ENDROOT
BRANCH   1   2
ATOM      2  C   UNL     1      -6.664   0.433   2.985  0.00  0.00    +0.011 A 
ATOM      3  C   UNL     1      -6.017   0.136   1.829  0.00  0.00    +0.017 A 
ATOM      4  C   UNL     1      -4.634   0.583   1.668  0.00  0.00    -0.001 A 
ATOM      5  C   UNL     1      -3.916   0.305   0.498  0.00  0.00    +0.013 A 
ATOM      6  C   UNL     1      -2.629   0.739   0.374  0.00  0.00    +0.046 A 
ATOM      7  C   UNL     1      -2.017   1.447   1.407  0.00  0.00    +0.122 A 
ATOM      8  C   UNL     1      -2.710   1.732   2.571  0.00  0.00    +0.072 A 
ATOM      9  C   UNL     1      -4.023   1.303   2.713  0.00  0.00    +0.053 A 
ATOM     10  N   UNL     1      -4.736   1.572   3.863  0.00  0.00    -0.322 N 
ATOM     11  H   UNL     1      -4.302   2.084   4.604  0.00  0.00    +0.169 HD
ATOM     12  C   UNL     1      -6.008   1.157   4.001  0.00  0.00    +0.251 A 
ATOM     13  O   UNL     1      -6.608   1.413   5.030  0.00  0.00    -0.268 OA
BRANCH   7  14
ATOM     14  O   UNL     1      -0.734   1.867   1.268  0.00  0.00    -0.495 OA
ATOM     15  C   UNL     1      -0.074   1.541   0.043  0.00  0.00    +0.277 C 
ENDBRANCH   7  14
ENDBRANCH   1   2
BRANCH   1  22
ATOM     16  C   UNL     1      -8.873  -3.635   7.534  0.00  0.00    +0.007 C 
ATOM     17  C   UNL     1      -8.837  -3.012   6.137  0.00  0.00    -0.018 C 
ATOM     18  C   UNL     1      -7.393  -2.656   5.772  0.00  0.00    -0.015 C 
ATOM     19  C   UNL     1      -7.371  -1.977   4.401  0.00  0.00    -0.077 C 
ATOM     20  C   UNL     1      -9.599  -1.087   4.741  0.00  0.00    -0.077 C 
ATOM     21  C   UNL     1      -9.688  -1.738   6.123  0.00  0.00    -0.015 C 
ATOM     22  N   UNL     1      -8.188  -0.746   4.461  0.00  0.00    +0.389 N 
ATOM     23  H   UNL     1      -7.833  -0.148   5.217  0.00  0.00    -0.080 HD
ENDBRANCH   1  22
BRANCH   1  24
ATOM     24  C   UNL     1      -8.990   1.195   3.240  0.00  0.00    +0.143 A 
ATOM     25  N   UNL     1      -9.121   2.026   4.244  0.00  0.00    -0.115 NA
ATOM     26  N   UNL     1      -9.981   2.925   3.908  0.00  0.00    -0.023 NA
ATOM     27  N   UNL     1     -10.407   2.684   2.717  0.00  0.00    -0.044 NA
ATOM     28  N   UNL     1      -9.820   1.625   2.272  0.00  0.00    -0.227 N 
BRANCH  28  29
ATOM     29  C   UNL     1     -10.020   1.006   0.959  0.00  0.00    +0.111 C 
ATOM     30  C   UNL     1      -9.705   2.023  -0.158  0.00  0.00    +0.027 C 
ATOM     31  C   UNL     1     -10.756   1.720  -1.256  0.00  0.00    +0.002 C 
ATOM     32  C   UNL     1     -12.026   1.391  -0.432  0.00  0.00    +0.002 C 
ATOM     33  C   UNL     1     -11.495   0.605   0.784  0.00  0.00    +0.027 C 
ENDBRANCH  28  29
ENDBRANCH   1  24
TORSDOF 5
