REMARK  Name = ZINC39664666
REMARK  11 active torsions:
REMARK  status: ('A' for Active; 'I' for Inactive)
REMARK    1  A    between atoms: C_1  and  C_2
REMARK    2  A    between atoms: C_2  and  C_3
REMARK    3  A    between atoms: C_3  and  C_5
REMARK    4  A    between atoms: C_3  and  C_6
REMARK    5  A    between atoms: C_10  and  C_19
REMARK    6  A    between atoms: N_21  and  C_22
REMARK    7  A    between atoms: C_22  and  C_24
REMARK    8  A    between atoms: C_22  and  C_28
REMARK    9  A    between atoms: C_24  and  N_25
REMARK   10  A    between atoms: N_25  and  C_26
REMARK   11  A    between atoms: N_25  and  C_27
REMARK                            x       y       z     vdW  Elec       q    Type
REMARK                         _______ _______ _______ _____ _____    ______ ____
ROOT
ATOM      1  C   UNL     1      -3.127  -1.222   0.916  0.00  0.00    +0.218 C 
ATOM      2  O   UNL     1      -2.060  -1.754   1.136  0.00  0.00    -0.275 OA
ATOM      3  N   UNL     1      -4.218  -1.975   0.674  0.00  0.00    -0.300 N 
ATOM      4  C   UNL     1      -5.595  -1.511   0.380  0.00  0.00    +0.121 C 
ATOM      5  C   UNL     1      -6.109  -2.479  -0.709  0.00  0.00    +0.100 C 
ATOM      6  C   UNL     1      -5.265  -3.752  -0.532  0.00  0.00    -0.004 C 
ATOM      7  C   UNL     1      -4.311  -3.454   0.634  0.00  0.00    +0.115 C 
ATOM      8  C   UNL     1      -4.466  -4.037  -1.800  0.00  0.00    -0.010 C 
ATOM      9  C   UNL     1      -3.679  -5.339  -1.620  0.00  0.00    -0.082 C 
ATOM     10  N   UNL     1      -4.609  -6.441  -1.346  0.00  0.00    +0.379 N 
ATOM     11  C   UNL     1      -5.307  -6.203  -0.077  0.00  0.00    -0.082 C 
ATOM     12  C   UNL     1      -6.162  -4.938  -0.191  0.00  0.00    -0.010 C 
ATOM     13  H   UNL     1      -5.285  -6.503  -2.093  0.00  0.00    -0.086 HD
ATOM     14  H   UNL     1      -4.095  -7.307  -1.289  0.00  0.00    -0.086 HD
ENDROOT
BRANCH   5  15
ATOM     15  C   UNL     1      -5.893  -1.890  -2.079  0.00  0.00    +0.219 C 
ATOM     16  O   UNL     1      -6.795  -1.896  -2.890  0.00  0.00    -0.275 OA
ATOM     17  N   UNL     1      -4.699  -1.357  -2.403  0.00  0.00    -0.310 N 
ATOM     18  H   UNL     1      -3.959  -1.408  -1.777  0.00  0.00    +0.149 HD
BRANCH  17  19
ATOM     19  C   UNL     1      -4.517  -0.700  -3.700  0.00  0.00    +0.087 C 
BRANCH  19  20
ATOM     20  C   UNL     1      -3.055  -0.708  -4.066  0.00  0.00    -0.029 A 
ATOM     21  C   UNL     1      -2.098  -0.478  -3.095  0.00  0.00    +0.005 A 
ATOM     22  C   UNL     1      -0.757  -0.485  -3.432  0.00  0.00    +0.000 A 
ATOM     23  C   UNL     1      -0.374  -0.722  -4.738  0.00  0.00    +0.000 A 
ATOM     24  C   UNL     1      -1.331  -0.952  -5.709  0.00  0.00    +0.000 A 
ATOM     25  C   UNL     1      -2.671  -0.950  -5.372  0.00  0.00    +0.005 A 
ENDBRANCH  19  20
BRANCH  19  26
ATOM     26  C   UNL     1      -5.014   0.745  -3.614  0.00  0.00    -0.052 C 
BRANCH  26  27
ATOM     27  N   UNL     1      -4.979   1.355  -4.950  0.00  0.00    +0.377 N 
ATOM     28  C   UNL     1      -5.929   0.662  -5.830  0.00  0.00    -0.097 C 
ATOM     29  C   UNL     1      -5.348   2.773  -4.850  0.00  0.00    -0.097 C 
ATOM     30  H   UNL     1      -4.048   1.275  -5.331  0.00  0.00    -0.083 HD
ENDBRANCH  26  27
ENDBRANCH  19  26
ENDBRANCH  17  19
ENDBRANCH   5  15
BRANCH   1  31
ATOM     31  C   UNL     1      -3.233   0.281   0.914  0.00  0.00    +0.072 C 
ATOM     32  C   UNL     1      -4.233   0.724   1.985  0.00  0.00    +0.017 C 
BRANCH  31  34
ATOM     33  C   UNL     1      -1.941   2.413   1.090  0.00  0.00    +0.004 C 
ATOM     34  C   UNL     1      -1.862   0.890   1.215  0.00  0.00    +0.009 C 
ENDBRANCH  31  34
ENDBRANCH   1  31
TORSDOF 7
