REMARK  Name = ZINC04484994
REMARK  5 active torsions:
REMARK  status: ('A' for Active; 'I' for Inactive)
REMARK    1  A    between atoms: C_9  and  S_12
REMARK    2  A    between atoms: S_12  and  C_13
REMARK    3  A    between atoms: C_13  and  C_14
REMARK    4  A    between atoms: N_16  and  C_17
REMARK    5  A    between atoms: C_17  and  C_23
REMARK                            x       y       z     vdW  Elec       q    Type
REMARK                         _______ _______ _______ _____ _____    ______ ____
ROOT
ATOM      1  C   UNL     1       6.654  -1.074  -0.067  0.00  0.00    +0.173 C 
ENDROOT
BRANCH   1   2
ATOM      2  C   UNL     1       8.152  -1.235  -0.082  0.00  0.00    +0.224 C 
ATOM      3  O   UNL     1       8.867  -0.255  -0.083  0.00  0.00    -0.275 OA
ATOM      4  N   UNL     1       8.698  -2.467  -0.093  0.00  0.00    -0.297 N 
ATOM      5  H   UNL     1       8.126  -3.251  -0.092  0.00  0.00    +0.150 HD
BRANCH   4   6
ATOM      6  C   UNL     1      10.154  -2.623  -0.108  0.00  0.00    +0.121 C 
ATOM      7  C   UNL     1      10.750  -1.968   1.140  0.00  0.00    +0.041 C 
ATOM      8  C   UNL     1      12.271  -2.131   1.125  0.00  0.00    +0.003 C 
ATOM      9  C   UNL     1      12.624  -3.619   1.113  0.00  0.00    +0.000 C 
ATOM     10  C   UNL     1      12.029  -4.275  -0.134  0.00  0.00    +0.003 C 
ATOM     11  C   UNL     1      10.507  -4.112  -0.119  0.00  0.00    +0.041 C 
BRANCH   6  12
ATOM     12  C   UNL     1      10.705  -1.979  -1.311  0.00  0.00    +0.088 C 
ATOM     13  N   UNL     1      11.130  -1.482  -2.240  0.00  0.00    -0.194 NA
ENDBRANCH   6  12
ENDBRANCH   4   6
ENDBRANCH   1   2
BRANCH   1  14
ATOM     14  S   UNL     1       6.235   0.691  -0.053  0.00  0.00    -0.079 S 
BRANCH  14  23
ATOM     15  C   UNL     1      -0.017   1.383   0.010  0.00  0.00    +0.022 A 
ATOM     16  C   UNL     1       1.164   2.098   0.002  0.00  0.00    +0.029 A 
ATOM     17  C   UNL     1       2.377   1.428  -0.013  0.00  0.00    +0.067 A 
ATOM     18  C   UNL     1       2.402   0.023  -0.021  0.00  0.00    +0.091 A 
ATOM     19  C   UNL     1       1.199  -0.687  -0.013  0.00  0.00    +0.050 A 
ATOM     20  C   UNL     1       0.002  -0.004   0.002  0.00  0.00    +0.043 A 
ATOM     21 CL   UNL     1      -1.493  -0.886   0.011  0.00  0.00    -0.083 Cl
ATOM     22  N   UNL     1       3.708  -0.353  -0.035  0.00  0.00    -0.222 NA
ATOM     23  C   UNL     1       4.473   0.711  -0.037  0.00  0.00    +0.168 A 
ATOM     24  N   UNL     1       3.701   1.838  -0.023  0.00  0.00    -0.333 N 
ATOM     25  H   UNL     1       4.019   2.754  -0.022  0.00  0.00    +0.168 HD
ENDBRANCH  14  23
ENDBRANCH   1  14
TORSDOF 5
