REMARK  Name = ZINC14991860
REMARK  7 active torsions:
REMARK  status: ('A' for Active; 'I' for Inactive)
REMARK    1  A    between atoms: C_1  and  C_2
REMARK    2  A    between atoms: C_2  and  C_34
REMARK    3  A    between atoms: C_7  and  C_11
REMARK    4  A    between atoms: C_11  and  N_69
REMARK    5  A    between atoms: C_14  and  C_17
REMARK    6  A    between atoms: C_14  and  O_33
REMARK    7  A    between atoms: C_24  and  C_26
REMARK                            x       y       z     vdW  Elec       q    Type
REMARK                         _______ _______ _______ _____ _____    ______ ____
ROOT
ATOM      1  C   UNL     1       3.150  -0.144   1.555  0.00  0.00    -0.075 C 
ATOM      2  C   UNL     1       3.576  -1.611   1.464  0.00  0.00    +0.021 C 
ATOM      3  C   UNL     1       2.671  -2.457   2.364  0.00  0.00    +0.088 C 
ATOM      4  C   UNL     1       1.214  -2.266   1.933  0.00  0.00    +0.021 C 
ATOM      5  C   UNL     1       0.856  -0.780   2.010  0.00  0.00    -0.075 C 
ATOM      6  N   UNL     1       1.746  -0.024   1.104  0.00  0.00    +0.382 N 
ATOM      7  H   UNL     1       1.666  -0.413   0.158  0.00  0.00    -0.081 HD
ENDROOT
BRANCH   3   8
ATOM      8  C   UNL     1       3.048  -3.911   2.233  0.00  0.00    -0.015 A 
ATOM      9  C   UNL     1       2.436  -4.697   1.266  0.00  0.00    +0.010 A 
ATOM     10  C   UNL     1       2.770  -6.027   1.125  0.00  0.00    +0.047 A 
ATOM     11  C   UNL     1       3.721  -6.594   1.965  0.00  0.00    +0.136 A 
ATOM     12  C   UNL     1       4.335  -5.794   2.946  0.00  0.00    +0.021 A 
ATOM     13  C   UNL     1       3.986  -4.446   3.069  0.00  0.00    +0.018 A 
ATOM     14  C   UNL     1       5.269  -6.673   3.648  0.00  0.00    +0.063 A 
ATOM     15  C   UNL     1       5.153  -7.891   3.060  0.00  0.00    +0.191 A 
ATOM     16  O   UNL     1       4.238  -7.834   2.069  0.00  0.00    -0.450 OA
BRANCH  15  17
ATOM     17  C   UNL     1       5.909  -9.092   3.444  0.00  0.00    +0.282 C 
ATOM     18  O   UNL     1       6.714  -9.038   4.355  0.00  0.00    -0.267 OA
ATOM     19  N   UNL     1       5.712 -10.252   2.787  0.00  0.00    -0.295 N 
ATOM     20  C   UNL     1       4.770 -10.458   1.677  0.00  0.00    +0.108 C 
ATOM     21  C   UNL     1       4.870 -11.941   1.261  0.00  0.00    +0.020 C 
ATOM     22  C   UNL     1       5.439 -12.619   2.535  0.00  0.00    +0.020 C 
ATOM     23  C   UNL     1       6.399 -11.526   3.067  0.00  0.00    +0.108 C 
ENDBRANCH  15  17
ENDBRANCH   3   8
BRANCH   3  24
ATOM     24  O   UNL     1       2.826  -2.043   3.722  0.00  0.00    -0.384 OA
ATOM     25  H   UNL     1       3.727  -2.137   4.062  0.00  0.00    +0.211 HD
ENDBRANCH   3  24
BRANCH   6  26
ATOM     26  C   UNL     1       1.346   1.398   1.074  0.00  0.00    -0.047 C 
BRANCH  26  32
ATOM     27  C   UNL     1       1.759   4.730  -0.799  0.00  0.00    +0.012 C 
ATOM     28  C   UNL     1       2.375   3.699  -1.747  0.00  0.00    -0.025 C 
ATOM     29  C   UNL     1       3.883   3.480  -1.534  0.00  0.00    -0.000 C 
ATOM     30  C   UNL     1       4.299   3.596  -0.061  0.00  0.00    +0.031 C 
ATOM     31  C   UNL     1       3.320   2.842   0.806  0.00  0.00    -0.029 C 
ATOM     32  C   UNL     1       2.340   2.170   0.245  0.00  0.00    -0.086 C 
ATOM     33  C   UNL     1       2.252   2.197  -1.271  0.00  0.00    +0.019 C 
ATOM     34  C   UNL     1       3.632   2.007  -1.918  0.00  0.00    +0.012 C 
ATOM     35  C   UNL     1       1.981   3.916  -3.209  0.00  0.00    +0.012 C 
ENDBRANCH  26  32
ENDBRANCH   6  26
TORSDOF 5
