REMARK  Name = ZINC39947150
REMARK  5 active torsions:
REMARK  status: ('A' for Active; 'I' for Inactive)
REMARK    1  A    between atoms: C_1  and  C_2
REMARK    2  A    between atoms: C_2  and  C_4
REMARK    3  A    between atoms: C_2  and  S_15
REMARK    4  A    between atoms: S_15  and  C_16
REMARK    5  A    between atoms: C_20  and  C_22
REMARK                            x       y       z     vdW  Elec       q    Type
REMARK                         _______ _______ _______ _____ _____    ______ ____
ROOT
ATOM      1  C   UNL     1       2.564  -0.036  -1.268  0.00  0.00    +0.340 C 
ATOM      2  N   UNL     1       2.600   1.430  -1.135  0.00  0.00    -0.219 N 
ATOM      3  N   UNL     1       3.145   1.680   0.133  0.00  0.00    -0.145 NA
ATOM      4  C   UNL     1       3.421   0.552   0.733  0.00  0.00    +0.238 C 
ATOM      5  O   UNL     1       3.107  -0.524  -0.033  0.00  0.00    -0.443 OA
ATOM      6  H   UNL     1       2.309   2.086  -1.788  0.00  0.00    +0.173 HD
ENDROOT
BRANCH   4   7
ATOM      7  C   UNL     1       3.978   0.464   2.017  0.00  0.00    +0.043 C 
ATOM      8  C   UNL     1       4.321   1.520   2.862  0.00  0.00    +0.008 A 
ATOM      9  C   UNL     1       4.232   2.921   2.721  0.00  0.00    +0.010 A 
ATOM     10  C   UNL     1       4.652   3.728   3.731  0.00  0.00    +0.001 A 
ATOM     11  C   UNL     1       5.174   3.205   4.915  0.00  0.00    +0.002 A 
ATOM     12  C   UNL     1       5.288   1.869   5.119  0.00  0.00    +0.026 A 
ATOM     13  C   UNL     1       4.871   0.964   4.109  0.00  0.00    +0.043 A 
ATOM     14  N   UNL     1       4.878  -0.354   4.062  0.00  0.00    -0.380 N 
ATOM     15  C   UNL     1       4.326  -0.796   2.778  0.00  0.00    +0.154 C 
ATOM     16  H   UNL     1       5.194  -0.939   4.768  0.00  0.00    +0.160 HD
ENDBRANCH   4   7
BRANCH   1  17
ATOM     17  S   UNL     1       0.857  -0.611  -1.480  0.00  0.00    -0.084 S 
BRANCH  17  19
ATOM     18  C   UNL     1      -0.013   1.522  -0.006  0.00  0.00    +0.029 C 
ATOM     19  C   UNL     1       0.003  -0.008   0.002  0.00  0.00    +0.135 C 
BRANCH  19  20
ATOM     20  C   UNL     1      -1.412  -0.526   0.013  0.00  0.00    +0.233 C 
ATOM     21  O   UNL     1      -1.960  -0.813  -1.030  0.00  0.00    -0.274 OA
ATOM     22  N   UNL     1      -2.068  -0.670   1.181  0.00  0.00    -0.270 N 
ATOM     23  C   UNL     1      -1.556  -0.252   2.489  0.00  0.00    +0.118 C 
ATOM     24  C   UNL     1      -2.660  -0.626   3.492  0.00  0.00    +0.056 C 
ATOM     25  C   UNL     1      -3.748  -1.249   2.646  0.00  0.00    -0.024 A 
ATOM     26  C   UNL     1      -3.340  -1.235   1.322  0.00  0.00    +0.040 A 
ATOM     27  C   UNL     1      -4.189  -1.757   0.345  0.00  0.00    +0.024 A 
ATOM     28  C   UNL     1      -5.418  -2.274   0.697  0.00  0.00    +0.002 A 
ATOM     29  C   UNL     1      -5.818  -2.279   2.020  0.00  0.00    +0.000 A 
ATOM     30  C   UNL     1      -4.978  -1.772   2.994  0.00  0.00    +0.005 A 
ENDBRANCH  19  20
ENDBRANCH  17  19
ENDBRANCH   1  17
TORSDOF 4
