REMARK  Name = ZINC16688235
REMARK  7 active torsions:
REMARK  status: ('A' for Active; 'I' for Inactive)
REMARK    1  A    between atoms: C_1  and  C_2
REMARK    2  A    between atoms: C_2  and  O_3
REMARK    3  A    between atoms: O_3  and  C_4
REMARK    4  A    between atoms: C_6  and  C_12
REMARK    5  A    between atoms: C_9  and  O_10
REMARK    6  A    between atoms: N_19  and  C_22
REMARK    7  A    between atoms: C_26  and  N_28
REMARK                            x       y       z     vdW  Elec       q    Type
REMARK                         _______ _______ _______ _____ _____    ______ ____
ROOT
ATOM      1  C   UNL     1      -8.560   1.706   0.256  0.00  0.00    +0.026 C 
ATOM      2  C   UNL     1      -7.442   1.084  -0.268  0.00  0.00    +0.102 C 
ATOM      3  C   UNL     1      -7.221  -0.367  -0.107  0.00  0.00    +0.276 C 
ATOM      4  O   UNL     1      -8.021  -1.058   0.494  0.00  0.00    -0.268 OA
ATOM      5  N   UNL     1      -6.107  -0.904  -0.646  0.00  0.00    -0.123 NA
ATOM      6  C   UNL     1      -5.220  -0.155  -1.316  0.00  0.00    +0.340 C 
ATOM      7  O   UNL     1      -4.240  -0.703  -1.781  0.00  0.00    -0.250 OA
ATOM      8  N   UNL     1      -5.353   1.166  -1.495  0.00  0.00    -0.188 N 
ATOM      9  C   UNL     1      -6.417   1.841  -1.013  0.00  0.00    +0.264 C 
ATOM     10  O   UNL     1      -6.528   3.039  -1.187  0.00  0.00    -0.269 OA
ENDROOT
BRANCH   1  13
ATOM     11  C   UNL     1      -9.902   5.182  -0.130  0.00  0.00    +0.163 A 
ATOM     12  C   UNL     1      -9.827   3.804  -0.142  0.00  0.00    +0.057 A 
ATOM     13  C   UNL     1      -8.646   3.166   0.266  0.00  0.00    -0.019 A 
ATOM     14  C   UNL     1      -7.551   3.933   0.691  0.00  0.00    +0.027 A 
ATOM     15  C   UNL     1      -7.634   5.307   0.693  0.00  0.00    +0.063 A 
ATOM     16  C   UNL     1      -8.806   5.938   0.288  0.00  0.00    +0.173 A 
ATOM     17 BR   UNL     1      -6.154   6.341   1.257  0.00  0.00    -0.046 Br
BRANCH  16  18
ATOM     18  O   UNL     1      -8.883   7.293   0.299  0.00  0.00    -0.503 OA
ATOM     19  H   UNL     1      -8.021   7.890   0.627  0.00  0.00    +0.292 HD
ENDBRANCH  16  18
BRANCH  11  20
ATOM     20  O   UNL     1     -11.045   5.804  -0.525  0.00  0.00    -0.489 OA
BRANCH  20  22
ATOM     21  C   UNL     1     -13.318   5.840  -1.346  0.00  0.00    +0.048 C 
ATOM     22  C   UNL     1     -12.128   4.969  -0.941  0.00  0.00    +0.226 C 
ENDBRANCH  20  22
ENDBRANCH  11  20
ENDBRANCH   1  13
BRANCH   8  23
ATOM     23  C   UNL     1      -4.366   1.863  -2.206  0.00  0.00    +0.048 A 
ATOM     24  C   UNL     1      -4.665   2.429  -3.438  0.00  0.00    +0.024 A 
ATOM     25  C   UNL     1      -3.691   3.115  -4.136  0.00  0.00    +0.004 A 
ATOM     26  C   UNL     1      -2.419   3.243  -3.607  0.00  0.00    +0.033 A 
ATOM     27  C   UNL     1      -2.117   2.675  -2.382  0.00  0.00    +0.128 A 
ATOM     28  C   UNL     1      -3.088   1.988  -1.680  0.00  0.00    +0.056 A 
BRANCH  27  29
ATOM     29  N   UNL     1      -0.754   2.810  -1.821  0.00  0.00    +0.056 N 
ATOM     30  O   UNL     1      -0.488   2.315  -0.741  0.00  0.00    -0.126 OA
ATOM     31  O   UNL     1       0.104   3.412  -2.443  0.00  0.00    -0.126 OA
ENDBRANCH  27  29
ENDBRANCH   8  23
TORSDOF 6
