REMARK  Name = ZINC43754906
REMARK  6 active torsions:
REMARK  status: ('A' for Active; 'I' for Inactive)
REMARK    1  A    between atoms: C_1  and  C_2
REMARK    2  A    between atoms: C_2  and  C_3
REMARK    3  A    between atoms: C_3  and  O_31
REMARK    4  A    between atoms: C_8  and  C_30
REMARK    5  A    between atoms: C_19  and  C_29
REMARK    6  A    between atoms: N_23  and  N_24
REMARK                            x       y       z     vdW  Elec       q    Type
REMARK                         _______ _______ _______ _____ _____    ______ ____
ROOT
ATOM      1  C   UNL     1       0.872  -1.208  -1.568  0.00  0.00    +0.071 C 
ATOM      2  C   UNL     1       0.129  -0.762  -2.854  0.00  0.00    +0.035 C 
ATOM      3  C   UNL     1      -0.193  -2.064  -3.645  0.00  0.00    +0.007 C 
ATOM      4  C   UNL     1       0.828  -3.048  -3.051  0.00  0.00    +0.001 C 
ATOM      5  C   UNL     1       0.696  -2.744  -1.548  0.00  0.00    -0.000 C 
ATOM      6  C   UNL     1       1.742  -3.497  -0.769  0.00  0.00    +0.010 C 
ATOM      7  C   UNL     1       1.834  -4.960  -1.225  0.00  0.00    +0.005 C 
ATOM      8  C   UNL     1       0.693  -5.369  -2.140  0.00  0.00    -0.001 C 
ATOM      9  C   UNL     1       0.625  -4.508  -3.392  0.00  0.00    -0.004 C 
ATOM     10  C   UNL     1       1.750  -4.888  -4.369  0.00  0.00    +0.004 C 
ATOM     11  C   UNL     1       1.699  -6.371  -4.713  0.00  0.00    +0.005 C 
ATOM     12  C   UNL     1       1.867  -7.187  -3.431  0.00  0.00    +0.001 C 
ATOM     13  C   UNL     1       0.741  -6.867  -2.458  0.00  0.00    -0.025 C 
ATOM     14  C   UNL     1       0.953  -7.641  -1.152  0.00  0.00    +0.013 C 
ATOM     15  C   UNL     1       0.919  -9.148  -1.409  0.00  0.00    +0.053 C 
ATOM     16  C   UNL     1       1.905  -9.486  -2.503  0.00  0.00    +0.037 C 
ATOM     17  N   UNL     1       2.746 -10.441  -2.353  0.00  0.00    -0.188 NA
ATOM     18  C   UNL     1       1.881  -8.677  -3.779  0.00  0.00    +0.056 C 
ATOM     19  C   UNL     1      -0.614  -7.268  -3.053  0.00  0.00    +0.012 C 
ATOM     20  C   UNL     1      -0.707  -2.998  -0.996  0.00  0.00    +0.014 C 
ENDROOT
BRANCH  17  21
ATOM     21  N   UNL     1       3.729 -10.670  -3.325  0.00  0.00    -0.191 N 
ATOM     22  C   UNL     1       4.540 -11.741  -3.224  0.00  0.00    +0.317 C 
ATOM     23  O   UNL     1       5.393 -11.939  -4.068  0.00  0.00    -0.251 OA
ATOM     24  N   UNL     1       4.407 -12.592  -2.188  0.00  0.00    -0.312 N 
ATOM     25  H   UNL     1       3.825 -10.057  -4.071  0.00  0.00    +0.179 HD
ATOM     26  H   UNL     1       3.727 -12.434  -1.515  0.00  0.00    +0.147 HD
ATOM     27  H   UNL     1       4.992 -13.363  -2.116  0.00  0.00    +0.147 HD
ENDBRANCH  17  21
BRANCH   1  29
ATOM     28  C   UNL     1       0.289   0.930  -0.422  0.00  0.00    +0.007 C 
ATOM     29  C   UNL     1       0.220  -0.596  -0.332  0.00  0.00    +0.032 C 
ENDBRANCH   1  29
BRANCH   1  30
ATOM     30  O   UNL     1       2.252  -0.870  -1.643  0.00  0.00    -0.388 OA
ATOM     31  H   UNL     1       2.422   0.081  -1.681  0.00  0.00    +0.210 HD
ENDBRANCH   1  30
TORSDOF 3
