REMARK  Name = ZINC66121945
REMARK  8 active torsions:
REMARK  status: ('A' for Active; 'I' for Inactive)
REMARK    1  A    between atoms: C_1  and  C_2
REMARK    2  A    between atoms: C_6  and  C_7
REMARK    3  A    between atoms: N_9  and  N_10
REMARK    4  A    between atoms: N_10  and  C_11
REMARK    5  A    between atoms: C_11  and  N_13
REMARK    6  A    between atoms: N_13  and  C_14
REMARK    7  A    between atoms: C_14  and  C_16
REMARK    8  A    between atoms: C_14  and  C_17
REMARK                            x       y       z     vdW  Elec       q    Type
REMARK                         _______ _______ _______ _____ _____    ______ ____
ROOT
ATOM      1  C   UNL     1       0.528  -1.597   6.112  0.00  0.00    +0.147 C 
ATOM      2  S   UNL     1       0.449  -1.179   7.771  0.00  0.00    -0.017 S 
ENDROOT
BRANCH   1   3
ATOM      3  N   UNL     1       0.755  -0.643   5.187  0.00  0.00    -0.246 N 
ATOM      4  H   UNL     1       0.872   0.280   5.461  0.00  0.00    +0.172 HD
BRANCH   3   7
ATOM      5  C   UNL     1       1.046  -0.031   2.905  0.00  0.00    +0.267 C 
ATOM      6  O   UNL     1       1.193   1.127   3.249  0.00  0.00    -0.268 OA
ATOM      7  N   UNL     1       0.820  -0.985   3.830  0.00  0.00    -0.231 N 
ATOM      8  H   UNL     1       0.702  -1.908   3.556  0.00  0.00    +0.173 HD
BRANCH   5  14
ATOM      9  C   UNL     1       1.550   1.915   0.525  0.00  0.00    +0.045 C 
ATOM     10  C   UNL     1       1.334   0.430   0.388  0.00  0.00    -0.031 A 
ATOM     11  C   UNL     1       1.349  -0.201  -0.834  0.00  0.00    +0.011 A 
ATOM     12  C   UNL     1       1.148  -1.541  -0.886  0.00  0.00    +0.046 A 
ATOM     13  S   UNL     1       0.933  -1.988   0.719  0.00  0.00    -0.092 S 
ATOM     14  C   UNL     1       1.114  -0.388   1.485  0.00  0.00    +0.078 A 
ENDBRANCH   5  14
ENDBRANCH   3   7
ENDBRANCH   1   3
BRANCH   1  15
ATOM     15  N   UNL     1       0.365  -2.879   5.732  0.00  0.00    -0.319 N 
ATOM     16  H   UNL     1       0.410  -3.116   4.792  0.00  0.00    +0.148 HD
BRANCH  15  17
ATOM     17  C   UNL     1       0.119  -3.916   6.737  0.00  0.00    +0.101 C 
ATOM     18  C   UNL     1      -1.382  -4.010   7.016  0.00  0.00    +0.033 C 
BRANCH  17  19
ATOM     19  C   UNL     1       0.618  -5.242   6.224  0.00  0.00    -0.009 A 
ATOM     20  C   UNL     1       0.672  -5.481   4.863  0.00  0.00    +0.008 A 
ATOM     21  C   UNL     1       1.130  -6.696   4.391  0.00  0.00    +0.020 A 
ATOM     22  C   UNL     1       1.535  -7.676   5.281  0.00  0.00    +0.042 A 
ATOM     23  C   UNL     1       1.482  -7.438   6.642  0.00  0.00    +0.040 A 
ATOM     24  C   UNL     1       1.028  -6.219   7.114  0.00  0.00    +0.047 A 
ATOM     25 CL   UNL     1       0.967  -5.917   8.822  0.00  0.00    -0.083 Cl
ATOM     26 CL   UNL     1       2.109  -9.203   4.688  0.00  0.00    -0.083 Cl
ENDBRANCH  17  19
ENDBRANCH  15  17
ENDBRANCH   1  15
TORSDOF 6
