REMARK  Name = ZINC09821792
REMARK  5 active torsions:
REMARK  status: ('A' for Active; 'I' for Inactive)
REMARK    1  A    between atoms: C_4  and  S_7
REMARK    2  A    between atoms: S_7  and  N_10
REMARK    3  A    between atoms: C_13  and  C_16
REMARK    4  A    between atoms: C_16  and  C_17
REMARK    5  A    between atoms: C_17  and  N_19
REMARK                            x       y       z     vdW  Elec       q    Type
REMARK                         _______ _______ _______ _____ _____    ______ ____
ROOT
ATOM      1  N   UNL     1       4.419  -1.102   1.486  0.00  0.00    -0.103 NA
ATOM      2  C   UNL     1       5.535  -1.726   1.775  0.00  0.00    +0.192 A 
ATOM      3  N   UNL     1       6.071  -2.031   3.007  0.00  0.00    -0.336 N 
ATOM      4  C   UNL     1       7.262  -2.695   3.052  0.00  0.00    +0.034 A 
ATOM      5  C   UNL     1       7.883  -3.035   1.923  0.00  0.00    +0.070 A 
ATOM      6  S   UNL     1       6.764  -2.414   0.677  0.00  0.00    -0.057 S 
ATOM      7  H   UNL     1       5.612  -1.779   3.824  0.00  0.00    +0.168 HD
ENDROOT
BRANCH   1   8
ATOM      8  S   UNL     1       3.990  -0.863  -0.095  0.00  0.00    +0.101 S 
ATOM      9  O   UNL     1       3.736  -2.148  -0.646  0.00  0.00    -0.146 OA
ATOM     10  O   UNL     1       4.951   0.026  -0.647  0.00  0.00    -0.146 OA
BRANCH   8  14
ATOM     11  C   UNL     1       0.039   1.346  -0.092  0.00  0.00    +0.000 A 
ATOM     12  C   UNL     1       1.226   2.054  -0.092  0.00  0.00    +0.002 A 
ATOM     13  C   UNL     1       2.433   1.379  -0.093  0.00  0.00    +0.029 A 
ATOM     14  C   UNL     1       2.452  -0.003  -0.093  0.00  0.00    +0.113 A 
ATOM     15  C   UNL     1       1.264  -0.711  -0.092  0.00  0.00    +0.029 A 
ATOM     16  C   UNL     1       0.058  -0.036  -0.093  0.00  0.00    +0.002 A 
ENDBRANCH   8  14
ENDBRANCH   1   8
BRANCH   4  17
ATOM     17  C   UNL     1       7.877  -3.045   4.383  0.00  0.00    +0.151 C 
BRANCH  17  18
ATOM     18  C   UNL     1       8.676  -1.873   4.891  0.00  0.00    +0.244 C 
ATOM     19  O   UNL     1       8.739  -0.851   4.235  0.00  0.00    -0.273 OA
BRANCH  18  20
ATOM     20  N   UNL     1       9.311  -1.956   6.055  0.00  0.00    -0.156 NA
ATOM     21  C   UNL     1      10.100  -0.961   6.455  0.00  0.00    +0.164 A 
ATOM     22  N   UNL     1      10.284   0.246   5.862  0.00  0.00    -0.335 N 
ATOM     23  H   UNL     1       9.808   0.464   5.046  0.00  0.00    +0.168 HD
ATOM     24  C   UNL     1      11.151   1.163   6.425  0.00  0.00    +0.055 A 
ATOM     25  C   UNL     1      11.485   2.451   5.984  0.00  0.00    +0.027 A 
ATOM     26  C   UNL     1      12.380   3.222   6.689  0.00  0.00    +0.002 A 
ATOM     27  C   UNL     1      12.975   2.752   7.848  0.00  0.00    +0.001 A 
ATOM     28  C   UNL     1      12.662   1.483   8.304  0.00  0.00    +0.017 A 
ATOM     29  C   UNL     1      11.767   0.712   7.601  0.00  0.00    +0.039 A 
ATOM     30  S   UNL     1      11.090  -0.913   7.813  0.00  0.00    -0.052 S 
ENDBRANCH  18  20
ENDBRANCH  17  18
ENDBRANCH   4  17
TORSDOF 5
