REMARK  Name = ZINC12658029
REMARK  7 active torsions:
REMARK  status: ('A' for Active; 'I' for Inactive)
REMARK    1  A    between atoms: C_1  and  C_2
REMARK    2  A    between atoms: C_5  and  N_8
REMARK    3  A    between atoms: C_9  and  C_11
REMARK    4  A    between atoms: C_11  and  N_22
REMARK    5  A    between atoms: C_12  and  C_13
REMARK    6  A    between atoms: C_23  and  C_25
REMARK    7  A    between atoms: C_26  and  C_27
REMARK                            x       y       z     vdW  Elec       q    Type
REMARK                         _______ _______ _______ _____ _____    ______ ____
ROOT
ATOM      1  C   UNL     1       2.423  -4.159  -0.249  0.00  0.00    +0.097 C 
ATOM      2  C   UNL     1       1.241  -4.819  -0.257  0.00  0.00    +0.036 C 
ENDROOT
BRANCH   2   3
ATOM      3  C   UNL     1       1.220  -6.289  -0.275  0.00  0.00    -0.019 A 
ATOM      4  C   UNL     1       2.301  -7.000  -0.809  0.00  0.00    +0.012 A 
ATOM      5  C   UNL     1       2.281  -8.377  -0.819  0.00  0.00    +0.050 A 
ATOM      6  C   UNL     1       1.186  -9.065  -0.313  0.00  0.00    +0.166 A 
ATOM      7  C   UNL     1       0.102  -8.362   0.215  0.00  0.00    +0.167 A 
ATOM      8  C   UNL     1       0.116  -6.981   0.235  0.00  0.00    +0.057 A 
ATOM      9  O   UNL     1      -0.833  -9.261   0.642  0.00  0.00    -0.453 OA
ATOM     10  C   UNL     1      -0.138 -10.518   0.745  0.00  0.00    +0.466 C 
ATOM     11  O   UNL     1       0.927 -10.401  -0.217  0.00  0.00    -0.453 OA
ENDBRANCH   2   3
BRANCH   1  13
ATOM     12  N   UNL     1       1.290  -2.008  -0.051  0.00  0.00    -0.280 N 
ATOM     13  C   UNL     1       2.446  -2.695  -0.142  0.00  0.00    +0.262 C 
ATOM     14  O   UNL     1       3.509  -2.101  -0.135  0.00  0.00    -0.268 OA
ATOM     15  H   UNL     1       0.449  -2.483   0.032  0.00  0.00    +0.155 HD
BRANCH  12  20
ATOM     16  C   UNL     1       1.344   3.663  -0.159  0.00  0.00    +0.044 C 
ATOM     17  C   UNL     1       1.330   2.156  -0.131  0.00  0.00    -0.050 A 
ATOM     18  C   UNL     1       2.347   1.445  -0.740  0.00  0.00    +0.005 A 
ATOM     19  C   UNL     1       2.337   0.064  -0.716  0.00  0.00    +0.023 A 
ATOM     20  C   UNL     1       1.304  -0.610  -0.078  0.00  0.00    +0.034 A 
ATOM     21  C   UNL     1       0.283   0.108   0.534  0.00  0.00    +0.023 A 
ATOM     22  C   UNL     1       0.300   1.488   0.505  0.00  0.00    +0.005 A 
ENDBRANCH  12  20
ENDBRANCH   1  13
BRANCH   1  23
ATOM     23  N   UNL     1       3.623  -4.872  -0.342  0.00  0.00    -0.278 N 
ATOM     24  C   UNL     1       4.470  -4.635  -1.364  0.00  0.00    +0.241 C 
ATOM     25  O   UNL     1       4.234  -3.740  -2.155  0.00  0.00    -0.270 OA
ATOM     26  H   UNL     1       3.846  -5.537   0.328  0.00  0.00    +0.155 HD
BRANCH  24  27
ATOM     27  C   UNL     1       5.634  -5.425  -1.516  0.00  0.00    +0.071 C 
ATOM     28  C   UNL     1       6.537  -5.123  -2.481  0.00  0.00    +0.051 C 
BRANCH  28  29
ATOM     29  C   UNL     1       7.647  -5.973  -2.704  0.00  0.00    +0.128 A 
ATOM     30  C   UNL     1       8.634  -5.791  -3.650  0.00  0.00    +0.049 A 
ATOM     31  C   UNL     1       9.524  -6.867  -3.511  0.00  0.00    +0.042 A 
ATOM     32  C   UNL     1       9.053  -7.650  -2.515  0.00  0.00    +0.195 A 
ATOM     33  O   UNL     1       7.925  -7.111  -2.032  0.00  0.00    -0.464 OA
ENDBRANCH  28  29
ENDBRANCH  24  27
ENDBRANCH   1  23
TORSDOF 6
