REMARK  Name = ZINC42446529
REMARK  9 active torsions:
REMARK  status: ('A' for Active; 'I' for Inactive)
REMARK    1  A    between atoms: C_1  and  C_2
REMARK    2  A    between atoms: C_2  and  N_3
REMARK    3  A    between atoms: N_3  and  C_4
REMARK    4  A    between atoms: N_3  and  S_12
REMARK    5  A    between atoms: C_4  and  C_5
REMARK    6  A    between atoms: C_5  and  C_7
REMARK    7  A    between atoms: C_5  and  C_8
REMARK    8  A    between atoms: N_9  and  O_10
REMARK    9  A    between atoms: S_12  and  C_15
REMARK                            x       y       z     vdW  Elec       q    Type
REMARK                         _______ _______ _______ _____ _____    ______ ____
ROOT
ATOM      1  N   UNL     1      -1.341  -0.515   0.143  0.00  0.00    -0.176 NA
ENDROOT
BRANCH   1   2
ATOM      2  S   UNL     1      -2.001  -0.805   1.634  0.00  0.00    +0.062 S 
ATOM      3  O   UNL     1      -3.333  -1.246   1.410  0.00  0.00    -0.153 OA
ATOM      4  O   UNL     1      -1.052  -1.580   2.354  0.00  0.00    -0.153 OA
BRANCH   2   5
ATOM      5  C   UNL     1      -2.116   0.746   2.462  0.00  0.00    +0.125 A 
ATOM      6  C   UNL     1      -3.355   1.307   2.711  0.00  0.00    +0.050 A 
ATOM      7  C   UNL     1      -3.446   2.524   3.361  0.00  0.00    +0.043 A 
ATOM      8  C   UNL     1      -2.296   3.181   3.763  0.00  0.00    +0.021 A 
ATOM      9  C   UNL     1      -1.058   2.621   3.515  0.00  0.00    +0.023 A 
ATOM     10  C   UNL     1      -0.967   1.400   2.869  0.00  0.00    +0.067 A 
ATOM     11 CL   UNL     1       0.589   0.693   2.564  0.00  0.00    -0.082 Cl
ATOM     12 CL   UNL     1      -5.002   3.228   3.672  0.00  0.00    -0.083 Cl
ENDBRANCH   2   5
ENDBRANCH   1   2
BRANCH   1  14
ATOM     13  C   UNL     1       0.647   0.802  -0.401  0.00  0.00    +0.022 C 
ATOM     14  C   UNL     1       0.111  -0.585  -0.042  0.00  0.00    +0.106 C 
ENDBRANCH   1  14
BRANCH   1  15
ATOM     15  C   UNL     1      -2.209  -0.189  -0.991  0.00  0.00    +0.120 C 
BRANCH  15  16
ATOM     16  C   UNL     1      -2.519  -1.463  -1.780  0.00  0.00    +0.068 C 
ATOM     17  C   UNL     1      -3.335  -2.418  -0.906  0.00  0.00    +0.017 C 
BRANCH  16  18
ATOM     18  C   UNL     1      -3.309  -1.111  -3.014  0.00  0.00    +0.136 C 
ATOM     19  N   UNL     1      -4.599  -1.178  -2.995  0.00  0.00    -0.076 NA
ATOM     20  N   UNL     1      -2.656  -0.718  -4.160  0.00  0.00    -0.344 N 
ATOM     21  H   UNL     1      -1.687  -0.668  -4.174  0.00  0.00    +0.144 HD
ATOM     22  H   UNL     1      -3.164  -0.491  -4.955  0.00  0.00    +0.144 HD
BRANCH  19  23
ATOM     23  O   UNL     1      -5.341  -0.847  -4.155  0.00  0.00    -0.408 OA
ATOM     24  H   UNL     1      -6.299  -0.927  -4.045  0.00  0.00    +0.328 HD
ENDBRANCH  19  23
ENDBRANCH  16  18
ENDBRANCH  15  16
ENDBRANCH   1  15
TORSDOF 7
