REMARK  Name = ZINC09621911
REMARK  6 active torsions:
REMARK  status: ('A' for Active; 'I' for Inactive)
REMARK    1  A    between atoms: C_1  and  O_2
REMARK    2  A    between atoms: O_2  and  C_3
REMARK    3  A    between atoms: C_8  and  N_9
REMARK    4  A    between atoms: C_12  and  S_19
REMARK    5  A    between atoms: S_19  and  C_20
REMARK    6  A    between atoms: C_20  and  C_21
REMARK                            x       y       z     vdW  Elec       q    Type
REMARK                         _______ _______ _______ _____ _____    ______ ____
ROOT
ATOM      1  N   UNL     1      -0.073  -2.781  -0.012  0.00  0.00    -0.210 N 
ATOM      2  C   UNL     1       0.010  -4.144  -0.026  0.00  0.00    +0.171 A 
ATOM      3  N   UNL     1      -0.880  -5.134  -0.029  0.00  0.00    -0.202 NA
ATOM      4  C   UNL     1      -0.483  -6.395  -0.044  0.00  0.00    +0.194 A 
ATOM      5  N   UNL     1       0.801  -6.738  -0.056  0.00  0.00    -0.183 NA
ATOM      6  C   UNL     1       1.756  -5.819  -0.053  0.00  0.00    +0.285 A 
ATOM      7  O   UNL     1       3.061  -6.177  -0.065  0.00  0.00    -0.265 OA
ATOM      8  C   UNL     1       1.383  -4.462  -0.038  0.00  0.00    +0.105 A 
ATOM      9  C   UNL     1       2.090  -3.239  -0.032  0.00  0.00    +0.150 A 
ATOM     10  N   UNL     1       1.228  -2.263  -0.022  0.00  0.00    -0.172 NA
ENDROOT
BRANCH   1  16
ATOM     11  C   UNL     1      -1.201  -0.638   0.010  0.00  0.00    +0.145 A 
ATOM     12  C   UNL     1      -2.374   0.099   0.019  0.00  0.00    +0.048 A 
ATOM     13  C   UNL     1      -3.596  -0.546   0.028  0.00  0.00    +0.004 A 
ATOM     14  C   UNL     1      -3.653  -1.928   0.027  0.00  0.00    +0.002 A 
ATOM     15  C   UNL     1      -2.487  -2.671   0.017  0.00  0.00    +0.031 A 
ATOM     16  C   UNL     1      -1.257  -2.030   0.003  0.00  0.00    +0.109 A 
BRANCH  11  18
ATOM     17  C   UNL     1      -0.017   1.425   0.010  0.00  0.00    +0.277 C 
ATOM     18  O   UNL     1       0.002  -0.004   0.002  0.00  0.00    -0.493 OA
ENDBRANCH  11  18
ENDBRANCH   1  16
BRANCH   4  19
ATOM     19  S   UNL     1      -1.701  -7.668  -0.048  0.00  0.00    -0.077 S 
BRANCH  19  20
ATOM     20  C   UNL     1      -0.733  -9.202  -0.069  0.00  0.00    +0.173 C 
BRANCH  20  21
ATOM     21  C   UNL     1      -1.666 -10.385  -0.074  0.00  0.00    +0.226 C 
ATOM     22  O   UNL     1      -2.866 -10.211  -0.064  0.00  0.00    -0.275 OA
ATOM     23  N   UNL     1      -1.167 -11.637  -0.089  0.00  0.00    -0.301 N 
ATOM     24  C   UNL     1       0.285 -11.864  -0.095  0.00  0.00    +0.108 C 
ATOM     25  C   UNL     1       0.642 -12.804   1.061  0.00  0.00    +0.019 C 
ATOM     26  C   UNL     1      -0.195 -14.081   0.952  0.00  0.00    +0.003 C 
ATOM     27  C   UNL     1      -1.681 -13.730   1.056  0.00  0.00    +0.019 C 
ATOM     28  C   UNL     1      -2.064 -12.801  -0.094  0.00  0.00    +0.108 C 
ENDBRANCH  20  21
ENDBRANCH  19  20
ENDBRANCH   4  19
TORSDOF 5
