REMARK  Name = ZINC40074860
REMARK  10 active torsions:
REMARK  status: ('A' for Active; 'I' for Inactive)
REMARK    1  A    between atoms: C_1  and  C_2
REMARK    2  A    between atoms: C_3  and  C_33
REMARK    3  A    between atoms: C_9  and  C_12
REMARK    4  A    between atoms: C_12  and  O_14
REMARK    5  A    between atoms: O_14  and  C_15
REMARK    6  A    between atoms: C_15  and  C_16
REMARK    7  A    between atoms: N_18  and  C_19
REMARK    8  A    between atoms: C_20  and  C_32
REMARK    9  A    between atoms: N_22  and  C_26
REMARK   10  A    between atoms: C_23  and  C_25
REMARK                            x       y       z     vdW  Elec       q    Type
REMARK                         _______ _______ _______ _____ _____    ______ ____
ROOT
ATOM      1  C   UNL     1       0.184  -3.592   7.892  0.00  0.00    +0.255 C 
ATOM      2  O   UNL     1       0.248  -4.655   7.311  0.00  0.00    -0.272 OA
ATOM      3  N   UNL     1       0.135  -3.562   9.239  0.00  0.00    -0.283 N 
ATOM      4  H   UNL     1       0.156  -2.712   9.706  0.00  0.00    +0.155 HD
ENDROOT
BRANCH   3   5
ATOM      5  C   UNL     1       0.053  -4.757   9.963  0.00  0.00    +0.050 C 
ATOM      6  C   UNL     1      -0.890  -5.082  10.832  0.00  0.00    +0.038 C 
ATOM      7  N   UNL     1      -0.674  -6.343  11.375  0.00  0.00    -0.266 N 
ATOM      8  N   UNL     1       0.491  -6.908  10.839  0.00  0.00    -0.245 N 
ATOM      9  C   UNL     1       1.022  -5.915   9.890  0.00  0.00    +0.137 C 
ATOM     10  C   UNL     1       2.421  -5.467  10.320  0.00  0.00    +0.036 C 
ATOM     11  C   UNL     1      -2.054  -4.194  11.188  0.00  0.00    +0.063 C 
ATOM     12  H   UNL     1      -1.247  -6.769  12.031  0.00  0.00    +0.170 HD
BRANCH   8  13
ATOM     13  C   UNL     1       1.034  -8.160  11.139  0.00  0.00    +0.048 A 
ATOM     14  C   UNL     1       2.208  -8.576  10.522  0.00  0.00    +0.025 A 
ATOM     15  C   UNL     1       2.742  -9.813  10.822  0.00  0.00    +0.002 A 
ATOM     16  C   UNL     1       2.110 -10.639  11.734  0.00  0.00    +0.000 A 
ATOM     17  C   UNL     1       0.942 -10.228  12.350  0.00  0.00    +0.002 A 
ATOM     18  C   UNL     1       0.406  -8.989  12.059  0.00  0.00    +0.025 A 
ENDBRANCH   8  13
ENDBRANCH   3   5
BRANCH   1  19
ATOM     19  C   UNL     1       0.160  -2.305   7.108  0.00  0.00    +0.328 C 
BRANCH  19  20
ATOM     20  O   UNL     1       0.221  -2.597   5.711  0.00  0.00    -0.452 OA
BRANCH  20  21
ATOM     21  C   UNL     1       0.208  -1.548   4.865  0.00  0.00    +0.340 C 
ATOM     22  O   UNL     1       0.146  -0.416   5.303  0.00  0.00    -0.245 OA
BRANCH  21  31
ATOM     23  C   UNL     1       0.259   1.464  -0.013  0.00  0.00    +0.046 C 
ATOM     24  C   UNL     1       0.321  -0.042  -0.013  0.00  0.00    -0.022 A 
ATOM     25  C   UNL     1       0.398  -0.839  -1.091  0.00  0.00    +0.017 A 
ATOM     26  N   UNL     1       0.436  -2.150  -0.701  0.00  0.00    -0.358 N 
ATOM     27  H   UNL     1       0.493  -2.908  -1.303  0.00  0.00    +0.166 HD
ATOM     28  C   UNL     1       0.384  -2.234   0.669  0.00  0.00    +0.047 A 
ATOM     29  C   UNL     1       0.315  -0.916   1.163  0.00  0.00    +0.004 A 
ATOM     30  C   UNL     1       0.257  -0.689   2.536  0.00  0.00    +0.025 A 
ATOM     31  C   UNL     1       0.270  -1.774   3.409  0.00  0.00    +0.060 A 
ATOM     32  C   UNL     1       0.342  -3.080   2.905  0.00  0.00    +0.017 A 
ATOM     33  C   UNL     1       0.391  -3.305   1.561  0.00  0.00    +0.027 A 
ATOM     34  C   UNL     1       0.437  -0.359  -2.519  0.00  0.00    +0.063 C 
ENDBRANCH  21  31
ENDBRANCH  20  21
ENDBRANCH  19  20
ENDBRANCH   1  19
TORSDOF 6
