REMARK  Name = ZINC17445365
REMARK  9 active torsions:
REMARK  status: ('A' for Active; 'I' for Inactive)
REMARK    1  A    between atoms: C_1  and  C_2
REMARK    2  A    between atoms: C_2  and  C_3
REMARK    3  A    between atoms: C_2  and  C_4
REMARK    4  A    between atoms: C_4  and  C_6
REMARK    5  A    between atoms: C_4  and  N_20
REMARK    6  A    between atoms: N_8  and  N_9
REMARK    7  A    between atoms: C_10  and  C_12
REMARK    8  A    between atoms: N_20  and  S_21
REMARK    9  A    between atoms: S_21  and  C_24
REMARK                            x       y       z     vdW  Elec       q    Type
REMARK                         _______ _______ _______ _____ _____    ______ ____
ROOT
ATOM      1  C   UNL     1       4.685   0.150  -2.477  0.00  0.00    +0.166 C 
ENDROOT
BRANCH   1   2
ATOM      2  C   UNL     1       4.192   0.118  -3.900  0.00  0.00    +0.248 C 
ATOM      3  O   UNL     1       4.045  -0.944  -4.467  0.00  0.00    -0.273 OA
ATOM      4  N   UNL     1       3.914   1.269  -4.543  0.00  0.00    -0.233 N 
ATOM      5  H   UNL     1       4.099   2.120  -4.117  0.00  0.00    +0.173 HD
BRANCH   4   6
ATOM      6  N   UNL     1       3.357   1.236  -5.829  0.00  0.00    -0.230 N 
ATOM      7  C   UNL     1       3.079   2.388  -6.472  0.00  0.00    +0.267 C 
ATOM      8  O   UNL     1       3.311   3.455  -5.936  0.00  0.00    -0.268 OA
ATOM      9  H   UNL     1       3.172   0.385  -6.256  0.00  0.00    +0.173 HD
BRANCH   7  10
ATOM     10  C   UNL     1       2.497   2.354  -7.817  0.00  0.00    +0.076 A 
ATOM     11  C   UNL     1       2.142   3.404  -8.638  0.00  0.00    +0.024 A 
ATOM     12  C   UNL     1       1.600   3.108  -9.889  0.00  0.00    -0.036 A 
ATOM     13  C   UNL     1       1.463   1.791 -10.200  0.00  0.00    -0.006 A 
ATOM     14  S   UNL     1       2.070   0.944  -8.822  0.00  0.00    -0.088 S 
ATOM     15  C   UNL     1       0.866   1.597 -11.567  0.00  0.00    +0.043 C 
ATOM     16  C   UNL     1       0.238   2.964 -11.917  0.00  0.00    +0.010 C 
ATOM     17  C   UNL     1       1.092   3.932 -11.076  0.00  0.00    +0.036 C 
ENDBRANCH   7  10
ENDBRANCH   4   6
ENDBRANCH   1   2
BRANCH   1  19
ATOM     18  C   UNL     1       6.840  -0.803  -3.308  0.00  0.00    +0.009 C 
ATOM     19  C   UNL     1       6.207   0.308  -2.468  0.00  0.00    +0.010 C 
ATOM     20  C   UNL     1       6.582   1.669  -3.057  0.00  0.00    +0.009 C 
ENDBRANCH   1  19
BRANCH   1  21
ATOM     21  N   UNL     1       4.320  -1.099  -1.804  0.00  0.00    -0.178 NA
ATOM     22  H   UNL     1       4.316  -1.933  -2.300  0.00  0.00    +0.149 HD
BRANCH  21  23
ATOM     23  S   UNL     1       3.914  -1.087  -0.199  0.00  0.00    +0.059 S 
ATOM     24  O   UNL     1       4.928  -0.352   0.471  0.00  0.00    -0.153 OA
ATOM     25  O   UNL     1       3.589  -2.427   0.147  0.00  0.00    -0.153 OA
BRANCH  23  26
ATOM     26  C   UNL     1       2.428  -0.153  -0.044  0.00  0.00    +0.109 A 
ATOM     27  C   UNL     1       1.203  -0.786  -0.140  0.00  0.00    +0.032 A 
ATOM     28  C   UNL     1       0.032  -0.059  -0.019  0.00  0.00    +0.051 A 
ATOM     29  C   UNL     1       0.092   1.307   0.197  0.00  0.00    +0.162 A 
ATOM     30  C   UNL     1       1.322   1.943   0.292  0.00  0.00    +0.164 A 
ATOM     31  C   UNL     1       2.492   1.212   0.172  0.00  0.00    +0.078 A 
ATOM     32  O   UNL     1       1.370   3.291   0.503  0.00  0.00    -0.488 OA
ATOM     33  C   UNL     1       0.922   3.739   1.784  0.00  0.00    +0.232 C 
ATOM     34  C   UNL     1      -0.590   3.902   1.799  0.00  0.00    +0.082 C 
ATOM     35  C   UNL     1      -1.317   2.580   1.612  0.00  0.00    +0.232 C 
ATOM     36  O   UNL     1      -1.055   2.038   0.312  0.00  0.00    -0.488 OA
ENDBRANCH  23  26
ENDBRANCH  21  23
ENDBRANCH   1  21
TORSDOF 7
