REMARK  Name = ZINC50659576
REMARK  3 active torsions:
REMARK  status: ('A' for Active; 'I' for Inactive)
REMARK    1  A    between atoms: C_1  and  N_2
REMARK    2  A    between atoms: C_5  and  S_9
REMARK    3  A    between atoms: S_9  and  N_12
REMARK                            x       y       z     vdW  Elec       q    Type
REMARK                         _______ _______ _______ _____ _____    ______ ____
ROOT
ATOM      1  S   UNL     1       2.603   0.154   4.437  0.00  0.00    +0.061 S 
ATOM      2  O   UNL     1       3.575  -0.732   4.974  0.00  0.00    -0.153 OA
ATOM      3  O   UNL     1       2.934   1.451   3.961  0.00  0.00    -0.153 OA
ENDROOT
BRANCH   1   4
ATOM      4  N   UNL     1       1.452   0.361   5.611  0.00  0.00    -0.176 NA
ATOM      5  C   UNL     1       0.602   1.559   5.624  0.00  0.00    +0.110 C 
ATOM      6  C   UNL     1       0.703   2.219   7.002  0.00  0.00    +0.021 C 
ATOM      7  C   UNL     1       0.353   1.193   8.083  0.00  0.00    -0.005 C 
ATOM      8  C   UNL     1       0.436   1.861   9.458  0.00  0.00    +0.004 C 
ATOM      9  C   UNL     1       1.852   2.398   9.677  0.00  0.00    +0.000 C 
ATOM     10  C   UNL     1       2.853   1.243   9.611  0.00  0.00    +0.000 C 
ATOM     11  C   UNL     1       2.766   0.568   8.241  0.00  0.00    +0.005 C 
ATOM     12  C   UNL     1       1.345   0.029   8.022  0.00  0.00    +0.008 C 
ATOM     13  C   UNL     1       1.257  -0.653   6.656  0.00  0.00    +0.113 C 
ENDBRANCH   1   4
BRANCH   1  18
ATOM     14  C   UNL     1      -0.018   1.461   0.010  0.00  0.00    +0.127 C 
ATOM     15  N   UNL     1       0.002  -0.004   0.002  0.00  0.00    -0.332 N 
ATOM     16  C   UNL     1       0.623  -0.696   1.035  0.00  0.00    +0.120 A 
ATOM     17  C   UNL     1       1.219   0.008   2.076  0.00  0.00    +0.072 A 
ATOM     18  C   UNL     1       1.834  -0.694   3.098  0.00  0.00    +0.110 A 
ATOM     19  C   UNL     1       1.832  -2.081   3.043  0.00  0.00    +0.048 A 
ATOM     20  C   UNL     1       1.221  -2.715   1.980  0.00  0.00    +0.115 A 
ATOM     21  N   UNL     1       0.638  -2.020   1.022  0.00  0.00    -0.240 NA
ATOM     22  H   UNL     1      -0.418  -0.491  -0.724  0.00  0.00    +0.147 HD
ENDBRANCH   1  18
TORSDOF 2
