REMARK  Name = ZINC18524835
REMARK  10 active torsions:
REMARK  status: ('A' for Active; 'I' for Inactive)
REMARK    1  A    between atoms: C_1  and  C_2
REMARK    2  A    between atoms: C_2  and  C_3
REMARK    3  A    between atoms: C_2  and  C_4
REMARK    4  A    between atoms: C_4  and  C_6
REMARK    5  A    between atoms: C_4  and  N_17
REMARK    6  A    between atoms: C_18  and  C_20
REMARK    7  A    between atoms: C_20  and  S_21
REMARK    8  A    between atoms: S_21  and  C_22
REMARK    9  A    between atoms: C_25  and  C_28
REMARK   10  A    between atoms: N_26  and  N_27
REMARK                            x       y       z     vdW  Elec       q    Type
REMARK                         _______ _______ _______ _____ _____    ______ ____
ROOT
ATOM      1  N   UNL     1       1.422  -9.429  -0.068  0.00  0.00    -0.308 N 
ATOM      2  C   UNL     1       2.203  -8.333  -0.139  0.00  0.00    +0.224 C 
ATOM      3  O   UNL     1       3.404  -8.451  -0.255  0.00  0.00    -0.275 OA
ATOM      4  H   UNL     1       0.461  -9.334   0.025  0.00  0.00    +0.149 HD
ENDROOT
BRANCH   1   5
ATOM      5  C   UNL     1       2.024 -10.763  -0.131  0.00  0.00    +0.106 C 
BRANCH   5   6
ATOM      6  C   UNL     1       1.121 -11.755   0.555  0.00  0.00    -0.023 A 
ATOM      7  C   UNL     1      -0.250 -11.667   0.392  0.00  0.00    +0.009 A 
ATOM      8  C   UNL     1      -1.085 -12.574   1.019  0.00  0.00    +0.050 A 
ATOM      9  C   UNL     1      -0.544 -13.571   1.813  0.00  0.00    +0.162 A 
ATOM     10  C   UNL     1       0.831 -13.659   1.976  0.00  0.00    +0.162 A 
ATOM     11  C   UNL     1       1.665 -12.754   1.343  0.00  0.00    +0.055 A 
ATOM     12  O   UNL     1       1.355 -14.646   2.761  0.00  0.00    -0.488 OA
ATOM     13  C   UNL     1       1.223 -15.978   2.260  0.00  0.00    +0.232 C 
ATOM     14  C   UNL     1      -0.133 -16.560   2.627  0.00  0.00    +0.082 C 
ATOM     15  C   UNL     1      -1.281 -15.817   1.963  0.00  0.00    +0.232 C 
ATOM     16  O   UNL     1      -1.357 -14.471   2.438  0.00  0.00    -0.488 OA
ENDBRANCH   5   6
BRANCH   5  18
ATOM     17  C   UNL     1       3.127 -10.163  -2.291  0.00  0.00    +0.009 C 
ATOM     18  C   UNL     1       2.210 -11.170  -1.594  0.00  0.00    +0.008 C 
ATOM     19  C   UNL     1       2.838 -12.563  -1.660  0.00  0.00    +0.009 C 
ENDBRANCH   5  18
ENDBRANCH   1   5
BRANCH   2  20
ATOM     20  C   UNL     1       1.583  -6.960  -0.074  0.00  0.00    +0.173 C 
BRANCH  20  21
ATOM     21  S   UNL     1       2.882  -5.706  -0.194  0.00  0.00    -0.075 S 
BRANCH  21  22
ATOM     22  C   UNL     1       1.905  -4.243  -0.094  0.00  0.00    +0.209 A 
ATOM     23  N   UNL     1       0.599  -4.186   0.033  0.00  0.00    -0.121 NA
ATOM     24  N   UNL     1       0.213  -2.961   0.081  0.00  0.00    -0.127 NA
ATOM     25  C   UNL     1       1.249  -2.161  -0.022  0.00  0.00    +0.184 A 
ATOM     26  N   UNL     1       2.365  -2.957  -0.133  0.00  0.00    -0.224 N 
BRANCH  25  27
ATOM     27  C   UNL     1       1.222  -0.683  -0.013  0.00  0.00    +0.056 A 
ATOM     28  C   UNL     1       1.952   0.037  -0.959  0.00  0.00    +0.014 A 
ATOM     29  C   UNL     1       1.923   1.417  -0.946  0.00  0.00    +0.001 A 
ATOM     30  C   UNL     1       1.172   2.087   0.003  0.00  0.00    +0.003 A 
ATOM     31  C   UNL     1       0.445   1.382   0.944  0.00  0.00    +0.039 A 
ATOM     32  C   UNL     1       0.464  -0.000   0.943  0.00  0.00    +0.134 A 
ATOM     33  F   UNL     1      -0.246  -0.689   1.862  0.00  0.00    -0.205 F 
ENDBRANCH  25  27
BRANCH  26  34
ATOM     34  N   UNL     1       3.662  -2.548  -0.257  0.00  0.00    -0.295 N 
ATOM     35  H   UNL     1       4.096  -2.444   0.648  0.00  0.00    +0.163 HD
ATOM     36  H   UNL     1       4.188  -3.183  -0.839  0.00  0.00    +0.163 HD
ENDBRANCH  26  34
ENDBRANCH  21  22
ENDBRANCH  20  21
ENDBRANCH   2  20
TORSDOF 8
