REMARK  Name = ZINC15958407
REMARK  9 active torsions:
REMARK  status: ('A' for Active; 'I' for Inactive)
REMARK    1  A    between atoms: C_1  and  C_2
REMARK    2  A    between atoms: C_2  and  C_3
REMARK    3  A    between atoms: C_17  and  C_20
REMARK    4  A    between atoms: C_20  and  C_22
REMARK    5  A    between atoms: C_20  and  O_23
REMARK    6  A    between atoms: N_26  and  C_29
REMARK    7  A    between atoms: C_29  and  C_30
REMARK    8  A    between atoms: C_35  and  O_36
REMARK    9  A    between atoms: O_36  and  C_37
REMARK                            x       y       z     vdW  Elec       q    Type
REMARK                         _______ _______ _______ _____ _____    ______ ____
ROOT
ATOM      1  C   UNL     1      -1.412  -0.526   0.013  0.00  0.00    -0.026 A 
ATOM      2  C   UNL     1      -2.011  -0.863   1.209  0.00  0.00    +0.005 A 
ATOM      3  C   UNL     1      -3.308  -1.342   1.229  0.00  0.00    +0.001 A 
ATOM      4  C   UNL     1      -4.008  -1.484   0.043  0.00  0.00    +0.008 A 
ATOM      5  C   UNL     1      -3.415  -1.148  -1.152  0.00  0.00    +0.004 A 
ATOM      6  C   UNL     1      -2.111  -0.661  -1.184  0.00  0.00    +0.042 A 
ATOM      7  N   UNL     1      -1.729  -0.388  -2.499  0.00  0.00    -0.283 N 
ATOM      8  C   UNL     1      -2.712  -0.658  -3.380  0.00  0.00    +0.243 C 
ATOM      9  O   UNL     1      -2.663  -0.519  -4.584  0.00  0.00    -0.273 OA
ATOM     10  C   UNL     1      -3.877  -1.177  -2.581  0.00  0.00    +0.136 C 
ATOM     11  C   UNL     1      -4.284  -2.590  -3.015  0.00  0.00    +0.123 C 
ATOM     12  C   UNL     1      -5.477  -2.371  -3.988  0.00  0.00    +0.109 C 
ATOM     13  C   UNL     1      -5.652  -0.839  -4.061  0.00  0.00    +0.096 C 
ATOM     14  N   UNL     1      -5.069  -0.333  -2.783  0.00  0.00    -0.293 NA
ATOM     15  C   UNL     1      -6.645  -2.987  -3.253  0.00  0.00    +0.228 C 
ATOM     16  O   UNL     1      -7.786  -3.027  -3.659  0.00  0.00    -0.275 OA
ATOM     17  N   UNL     1      -6.223  -3.483  -2.084  0.00  0.00    -0.237 N 
ATOM     18  C   UNL     1      -4.901  -3.323  -1.845  0.00  0.00    +0.229 C 
ATOM     19  O   UNL     1      -4.302  -3.699  -0.861  0.00  0.00    -0.275 OA
ATOM     20  H   UNL     1      -0.858  -0.043  -2.750  0.00  0.00    +0.155 HD
ATOM     21  H   UNL     1      -5.715  -0.431  -2.015  0.00  0.00    +0.124 HD
ENDROOT
BRANCH   1  23
ATOM     22  C   UNL     1      -0.019   1.526   0.010  0.00  0.00    +0.009 C 
ATOM     23  C   UNL     1       0.002  -0.004   0.002  0.00  0.00    +0.033 C 
ENDBRANCH   1  23
BRANCH  13  24
ATOM     24  C   UNL     1      -7.137  -0.477  -4.133  0.00  0.00    +0.129 C 
ATOM     25  C   UNL     1      -7.288   1.044  -4.205  0.00  0.00    +0.039 C 
BRANCH  24  26
ATOM     26  O   UNL     1      -7.716  -1.068  -5.298  0.00  0.00    -0.390 OA
ATOM     27  H   UNL     1      -7.311  -0.780  -6.128  0.00  0.00    +0.210 HD
ENDBRANCH  24  26
ENDBRANCH  13  24
BRANCH  17  28
ATOM     28  C   UNL     1      -7.119  -4.152  -1.137  0.00  0.00    +0.155 C 
BRANCH  28  29
ATOM     29  C   UNL     1      -7.156  -5.628  -1.438  0.00  0.00    +0.012 A 
ATOM     30  C   UNL     1      -8.208  -6.160  -2.158  0.00  0.00    +0.009 A 
ATOM     31  C   UNL     1      -8.243  -7.514  -2.434  0.00  0.00    +0.001 A 
ATOM     32  C   UNL     1      -7.226  -8.339  -1.990  0.00  0.00    +0.004 A 
ATOM     33  C   UNL     1      -6.172  -7.812  -1.270  0.00  0.00    +0.046 A 
ATOM     34  C   UNL     1      -6.131  -6.452  -0.997  0.00  0.00    +0.125 A 
BRANCH  34  35
ATOM     35  O   UNL     1      -5.093  -5.930  -0.293  0.00  0.00    -0.495 OA
ATOM     36  C   UNL     1      -4.073  -6.838   0.129  0.00  0.00    +0.277 C 
ENDBRANCH  34  35
ENDBRANCH  28  29
ENDBRANCH  17  28
TORSDOF 6
