REMARK  Name = ZINC13566258
REMARK  8 active torsions:
REMARK  status: ('A' for Active; 'I' for Inactive)
REMARK    1  A    between atoms: C_1  and  C_2
REMARK    2  A    between atoms: C_2  and  O_3
REMARK    3  A    between atoms: O_3  and  C_4
REMARK    4  A    between atoms: C_4  and  C_6
REMARK    5  A    between atoms: C_7  and  C_21
REMARK    6  A    between atoms: C_12  and  C_14
REMARK    7  A    between atoms: C_21  and  S_22
REMARK    8  A    between atoms: S_22  and  C_23
REMARK                            x       y       z     vdW  Elec       q    Type
REMARK                         _______ _______ _______ _____ _____    ______ ____
ROOT
ATOM      1  C   UNL     1      -7.644   5.607   0.855  0.00  0.00    +0.079 C 
ATOM      2  C   UNL     1      -7.305   5.272  -0.409  0.00  0.00    +0.034 C 
ATOM      3  N   UNL     1      -8.257   5.115  -1.376  0.00  0.00    -0.272 N 
ATOM      4  C   UNL     1      -9.568   5.279  -1.161  0.00  0.00    +0.304 C 
ATOM      5  O   UNL     1     -10.340   5.117  -2.086  0.00  0.00    -0.252 OA
ATOM      6  N   UNL     1     -10.060   5.619   0.047  0.00  0.00    -0.288 N 
ATOM      7  C   UNL     1      -9.114   5.813   1.159  0.00  0.00    +0.145 C 
ATOM      8  H   UNL     1      -7.966   4.870  -2.268  0.00  0.00    +0.156 HD
ATOM      9  H   UNL     1     -11.014   5.733   0.180  0.00  0.00    +0.151 HD
ENDROOT
BRANCH   7  10
ATOM     10  C   UNL     1      -9.293   7.215   1.681  0.00  0.00    -0.004 A 
ATOM     11  C   UNL     1      -9.685   8.227   0.825  0.00  0.00    +0.007 A 
ATOM     12  C   UNL     1      -9.848   9.514   1.303  0.00  0.00    +0.000 A 
ATOM     13  C   UNL     1      -9.620   9.789   2.639  0.00  0.00    +0.001 A 
ATOM     14  C   UNL     1      -9.228   8.778   3.496  0.00  0.00    +0.020 A 
ATOM     15  C   UNL     1      -9.069   7.489   3.019  0.00  0.00    +0.046 A 
ATOM     16 CL   UNL     1      -8.585   6.218   4.096  0.00  0.00    -0.083 Cl
ENDBRANCH   7  10
BRANCH   1  17
ATOM     17  C   UNL     1      -6.660   5.765   1.858  0.00  0.00    +0.339 C 
ATOM     18  O   UNL     1      -6.415   4.848   2.620  0.00  0.00    -0.245 OA
BRANCH  17  19
ATOM     19  O   UNL     1      -5.993   6.933   1.972  0.00  0.00    -0.462 OA
BRANCH  19  21
ATOM     20  C   UNL     1      -4.515   8.476   3.100  0.00  0.00    +0.048 C 
ATOM     21  C   UNL     1      -5.078   7.054   3.062  0.00  0.00    +0.229 C 
ENDBRANCH  19  21
ENDBRANCH  17  19
ENDBRANCH   1  17
BRANCH   2  22
ATOM     22  C   UNL     1      -5.854   5.064  -0.756  0.00  0.00    +0.127 C 
BRANCH  22  23
ATOM     23  S   UNL     1      -5.527   3.289  -0.947  0.00  0.00    -0.091 S 
BRANCH  23  24
ATOM     24  C   UNL     1      -3.813   3.212  -1.346  0.00  0.00    +0.160 A 
ATOM     25  N   UNL     1      -2.941   4.193  -1.483  0.00  0.00    -0.133 NA
ATOM     26  N   UNL     1      -1.633   3.907  -1.797  0.00  0.00    -0.125 NA
ATOM     27  C   UNL     1      -1.258   2.655  -1.970  0.00  0.00    +0.180 A 
ATOM     28  S   UNL     1      -2.790   1.785  -1.674  0.00  0.00    -0.025 S 
ATOM     29  N   UNL     1      -0.005   2.147  -2.292  0.00  0.00    -0.336 N 
ATOM     30  H   UNL     1       0.122   1.189  -2.383  0.00  0.00    +0.144 HD
ATOM     31  H   UNL     1       0.743   2.750  -2.429  0.00  0.00    +0.144 HD
ENDBRANCH  23  24
ENDBRANCH  22  23
ENDBRANCH   2  22
TORSDOF 7
