REMARK  Name = ZINC22869971
REMARK  12 active torsions:
REMARK  status: ('A' for Active; 'I' for Inactive)
REMARK    1  A    between atoms: C_1  and  C_2
REMARK    2  A    between atoms: C_2  and  C_3
REMARK    3  A    between atoms: C_6  and  N_9
REMARK    4  A    between atoms: C_11  and  C_16
REMARK    5  A    between atoms: C_16  and  O_18
REMARK    6  A    between atoms: O_18  and  C_19
REMARK    7  A    between atoms: C_19  and  C_20
REMARK    8  A    between atoms: C_21  and  C_29
REMARK    9  A    between atoms: C_22  and  C_28
REMARK   10  A    between atoms: C_29  and  O_31
REMARK   11  A    between atoms: O_31  and  C_32
REMARK   12  A    between atoms: C_32  and  C_33
REMARK                            x       y       z     vdW  Elec       q    Type
REMARK                         _______ _______ _______ _____ _____    ______ ____
ROOT
ATOM      1  O   UNL     1       3.882  -3.156   9.085  0.00  0.00    -0.458 OA
ENDROOT
BRANCH   1   2
ATOM      2  C   UNL     1       3.062  -2.464   8.279  0.00  0.00    +0.313 C 
ATOM      3  O   UNL     1       2.328  -1.623   8.742  0.00  0.00    -0.250 OA
BRANCH   2   6
ATOM      4  N   UNL     1       2.664  -1.489   4.785  0.00  0.00    -0.271 N 
ATOM      5  C   UNL     1       2.042  -1.825   6.071  0.00  0.00    +0.128 C 
ATOM      6  C   UNL     1       3.058  -2.734   6.796  0.00  0.00    +0.124 C 
ATOM      7  C   UNL     1       4.392  -2.296   6.149  0.00  0.00    +0.112 C 
ATOM      8  C   UNL     1       3.984  -1.744   4.801  0.00  0.00    +0.221 C 
ATOM      9  O   UNL     1       4.739  -1.556   3.870  0.00  0.00    -0.275 OA
BRANCH   4  13
ATOM     10  C   UNL     1       0.603   0.039   1.503  0.00  0.00    -0.048 A 
ATOM     11  C   UNL     1       1.982  -0.066   1.465  0.00  0.00    +0.005 A 
ATOM     12  C   UNL     1       2.668  -0.572   2.551  0.00  0.00    +0.024 A 
ATOM     13  C   UNL     1       1.972  -0.975   3.683  0.00  0.00    +0.036 A 
ATOM     14  C   UNL     1       0.588  -0.869   3.719  0.00  0.00    +0.024 A 
ATOM     15  C   UNL     1      -0.092  -0.357   2.631  0.00  0.00    +0.005 A 
BRANCH  10  17
ATOM     16  C   UNL     1      -0.272   2.110   0.457  0.00  0.00    +0.009 C 
ATOM     17  C   UNL     1      -0.142   0.592   0.316  0.00  0.00    +0.032 C 
ENDBRANCH  10  17
ENDBRANCH   4  13
ENDBRANCH   2   6
ENDBRANCH   1   2
BRANCH   1  18
ATOM     18  C   UNL     1       3.833  -2.848  10.480  0.00  0.00    +0.283 C 
BRANCH  18  19
ATOM     19  C   UNL     1       4.815  -3.718  11.221  0.00  0.00    +0.061 C 
ATOM     20  C   UNL     1       5.883  -3.151  11.824  0.00  0.00    +0.077 C 
ATOM     21  C   UNL     1       6.844  -4.063  12.558  0.00  0.00    +0.110 C 
ATOM     22  N   UNL     1       6.533  -5.503  12.555  0.00  0.00    -0.292 N 
ATOM     23  C   UNL     1       5.427  -5.918  11.907  0.00  0.00    +0.304 C 
ATOM     24  O   UNL     1       5.161  -7.105  11.899  0.00  0.00    -0.252 OA
ATOM     25  N   UNL     1       4.607  -5.067  11.278  0.00  0.00    -0.269 N 
ATOM     26  C   UNL     1       8.232  -3.880  11.942  0.00  0.00    +0.033 C 
ATOM     27  H   UNL     1       7.111  -6.137  13.008  0.00  0.00    +0.151 HD
ATOM     28  H   UNL     1       3.825  -5.428  10.834  0.00  0.00    +0.156 HD
BRANCH  20  29
ATOM     29  C   UNL     1       6.096  -1.754  11.770  0.00  0.00    +0.339 C 
ATOM     30  O   UNL     1       5.906  -1.071  12.759  0.00  0.00    -0.245 OA
BRANCH  29  31
ATOM     31  O   UNL     1       6.511  -1.178  10.622  0.00  0.00    -0.462 OA
BRANCH  31  32
ATOM     32  C   UNL     1       6.706   0.237  10.640  0.00  0.00    +0.229 C 
ATOM     33  C   UNL     1       7.172   0.705   9.260  0.00  0.00    +0.048 C 
ENDBRANCH  31  32
ENDBRANCH  29  31
ENDBRANCH  20  29
ENDBRANCH  18  19
ENDBRANCH   1  18
TORSDOF 9
