REMARK  Name = ZINC15066974
REMARK  9 active torsions:
REMARK  status: ('A' for Active; 'I' for Inactive)
REMARK    1  A    between atoms: C_1  and  C_2
REMARK    2  A    between atoms: C_2  and  N_3
REMARK    3  A    between atoms: C_6  and  N_9
REMARK    4  A    between atoms: C_11  and  N_20
REMARK    5  A    between atoms: C_14  and  C_16
REMARK    6  A    between atoms: C_16  and  O_18
REMARK    7  A    between atoms: O_18  and  C_19
REMARK    8  A    between atoms: C_21  and  C_23
REMARK    9  A    between atoms: C_24  and  C_34
REMARK                            x       y       z     vdW  Elec       q    Type
REMARK                         _______ _______ _______ _____ _____    ______ ____
ROOT
ATOM      1  N   UNL     1      -0.954  -2.338   0.590  0.00  0.00    -0.309 N 
ATOM      2  C   UNL     1      -1.042  -0.995   0.662  0.00  0.00    +0.261 C 
ATOM      3  O   UNL     1      -2.116  -0.446   0.500  0.00  0.00    -0.269 OA
ATOM      4  H   UNL     1       0.017  -2.834   0.736  0.00  0.00    +0.149 HD
ENDROOT
BRANCH   2   5
ATOM      5  C   UNL     1       0.157  -0.194   0.936  0.00  0.00    +0.111 A 
ATOM      6  C   UNL     1       0.196   1.184   1.034  0.00  0.00    +0.020 A 
ATOM      7  C   UNL     1       1.592   1.542   1.315  0.00  0.00    +0.010 A 
ATOM      8  C   UNL     1       2.254   2.755   1.516  0.00  0.00    +0.030 A 
ATOM      9  C   UNL     1       3.598   2.763   1.765  0.00  0.00    +0.042 A 
ATOM     10  C   UNL     1       4.311   1.572   1.818  0.00  0.00    +0.022 A 
ATOM     11  C   UNL     1       3.679   0.365   1.622  0.00  0.00    +0.027 A 
ATOM     12  C   UNL     1       2.309   0.333   1.367  0.00  0.00    +0.048 A 
ATOM     13  N   UNL     1       1.425  -0.696   1.137  0.00  0.00    -0.350 N 
ATOM     14  H   UNL     1       1.601  -1.781   1.098  0.00  0.00    +0.166 HD
ATOM     15 CL   UNL     1       4.419   4.272   2.015  0.00  0.00    -0.084 Cl
BRANCH   6  16
ATOM     16  C   UNL     1      -0.943   2.116   0.879  0.00  0.00    -0.015 A 
ATOM     17  C   UNL     1      -0.965   3.026  -0.178  0.00  0.00    +0.008 A 
ATOM     18  C   UNL     1      -2.033   3.889  -0.320  0.00  0.00    +0.001 A 
ATOM     19  C   UNL     1      -3.074   3.861   0.591  0.00  0.00    +0.000 A 
ATOM     20  C   UNL     1      -3.055   2.965   1.645  0.00  0.00    +0.001 A 
ATOM     21  C   UNL     1      -1.996   2.093   1.794  0.00  0.00    +0.008 A 
ENDBRANCH   6  16
ENDBRANCH   2   5
BRANCH   1  24
ATOM     22  N   UNL     1      -2.881  -5.382  -0.109  0.00  0.00    +0.392 N 
ATOM     23  C   UNL     1      -1.938  -4.614   0.732  0.00  0.00    -0.055 C 
ATOM     24  C   UNL     1      -2.151  -3.137   0.317  0.00  0.00    +0.056 C 
ATOM     25  C   UNL     1      -2.392  -3.272  -1.210  0.00  0.00    +0.016 C 
ATOM     26  C   UNL     1      -3.175  -4.597  -1.322  0.00  0.00    +0.045 C 
ATOM     27  H   UNL     1      -3.813  -5.565   0.447  0.00  0.00    -0.080 HD
BRANCH  22  31
ATOM     28  N   UNL     1      -2.348  -9.565  -0.111  0.00  0.00    -0.303 NA
ATOM     29  C   UNL     1      -1.255  -8.762   0.452  0.00  0.00    +0.083 C 
ATOM     30  C   UNL     1      -1.775  -7.367   0.807  0.00  0.00    +0.000 C 
ATOM     31  C   UNL     1      -2.328  -6.698  -0.455  0.00  0.00    -0.065 C 
ATOM     32  C   UNL     1      -3.431  -7.578  -1.048  0.00  0.00    +0.000 C 
ATOM     33  C   UNL     1      -2.863  -8.966  -1.349  0.00  0.00    +0.083 C 
BRANCH  28  35
ATOM     34  C   UNL     1      -2.989 -11.691  -1.145  0.00  0.00    +0.020 C 
ATOM     35  C   UNL     1      -1.921 -10.953  -0.336  0.00  0.00    +0.081 C 
ENDBRANCH  28  35
ENDBRANCH  22  31
BRANCH  26  36
ATOM     36  C   UNL     1      -2.726  -5.356  -2.545  0.00  0.00    +0.293 C 
ATOM     37  O   UNL     1      -1.555  -5.611  -2.701  0.00  0.00    -0.253 OA
BRANCH  36  38
ATOM     38  O   UNL     1      -3.627  -5.748  -3.459  0.00  0.00    -0.469 OA
ATOM     39  C   UNL     1      -3.123  -6.475  -4.611  0.00  0.00    +0.280 C 
ENDBRANCH  36  38
ENDBRANCH  26  36
ENDBRANCH   1  24
TORSDOF 7
