REMARK  Name = ZINC14476259
REMARK  6 active torsions:
REMARK  status: ('A' for Active; 'I' for Inactive)
REMARK    1  A    between atoms: C_1  and  N_2
REMARK    2  A    between atoms: N_2  and  C_3
REMARK    3  A    between atoms: C_9  and  C_11
REMARK    4  A    between atoms: C_24  and  C_27
REMARK    5  A    between atoms: C_29  and  N_34
REMARK    6  A    between atoms: C_32  and  O_33
REMARK                            x       y       z     vdW  Elec       q    Type
REMARK                         _______ _______ _______ _____ _____    ______ ____
ROOT
ATOM      1  C   UNL     1       2.409   0.046   0.094  0.00  0.00    +0.038 A 
ATOM      2  C   UNL     1       2.311   1.386   0.482  0.00  0.00    +0.015 A 
ATOM      3  C   UNL     1       1.105   2.040   0.394  0.00  0.00    +0.024 A 
ATOM      4  C   UNL     1      -0.025   1.380  -0.083  0.00  0.00    +0.031 A 
ATOM      5  C   UNL     1       0.078   0.040  -0.486  0.00  0.00    -0.019 A 
ATOM      6  C   UNL     1       1.280  -0.619  -0.391  0.00  0.00    +0.019 A 
ATOM      7  C   UNL     1      -1.138  -0.606  -1.025  0.00  0.00    +0.049 C 
ATOM      8  C   UNL     1      -1.353  -2.073  -0.943  0.00  0.00    -0.023 C 
ATOM      9  C   UNL     1      -2.644  -2.319  -0.861  0.00  0.00    -0.030 C 
ATOM     10  C   UNL     1      -3.420  -1.001  -0.812  0.00  0.00    +0.033 C 
ATOM     11  C   UNL     1      -2.364  -0.043  -0.245  0.00  0.00    +0.029 C 
ATOM     12  C   UNL     1      -2.465   1.417  -0.650  0.00  0.00    +0.108 C 
ATOM     13  N   UNL     1      -1.240   2.062  -0.129  0.00  0.00    -0.336 N 
ATOM     14  H   UNL     1      -1.276   3.100   0.231  0.00  0.00    +0.147 HD
ENDROOT
BRANCH  12  15
ATOM     15  C   UNL     1      -2.519   1.538  -2.151  0.00  0.00    +0.017 A 
ATOM     16  C   UNL     1      -1.362   1.775  -2.868  0.00  0.00    +0.041 A 
ATOM     17  C   UNL     1      -1.410   1.881  -4.245  0.00  0.00    +0.127 A 
ATOM     18  C   UNL     1      -2.618   1.761  -4.908  0.00  0.00    +0.036 A 
ATOM     19  C   UNL     1      -3.778   1.530  -4.196  0.00  0.00    +0.048 A 
ATOM     20  C   UNL     1      -3.732   1.418  -2.814  0.00  0.00    +0.122 A 
BRANCH  17  21
ATOM     21  N   UNL     1      -0.168   2.129  -5.011  0.00  0.00    +0.056 N 
ATOM     22  O   UNL     1      -0.210   2.228  -6.224  0.00  0.00    -0.126 OA
ATOM     23  O   UNL     1       0.896   2.235  -4.428  0.00  0.00    -0.126 OA
ENDBRANCH  17  21
BRANCH  20  24
ATOM     24  O   UNL     1      -4.872   1.190  -2.111  0.00  0.00    -0.506 OA
ATOM     25  H   UNL     1      -5.833   1.094  -2.637  0.00  0.00    +0.292 HD
ENDBRANCH  20  24
ENDBRANCH  12  15
BRANCH   1  28
ATOM     26  C   UNL     1       4.833   1.432  -0.328  0.00  0.00    +0.138 C 
ATOM     27  N   UNL     1       4.847  -0.014  -0.093  0.00  0.00    -0.271 N 
ATOM     28  C   UNL     1       3.700  -0.661   0.194  0.00  0.00    +0.251 C 
ATOM     29  O   UNL     1       3.728  -1.828   0.535  0.00  0.00    -0.270 OA
BRANCH  27  30
ATOM     30  C   UNL     1       6.050  -0.724  -0.167  0.00  0.00    +0.036 A 
ATOM     31  C   UNL     1       6.050  -2.108  -0.050  0.00  0.00    +0.023 A 
ATOM     32  C   UNL     1       7.239  -2.806  -0.129  0.00  0.00    +0.002 A 
ATOM     33  C   UNL     1       8.430  -2.127  -0.313  0.00  0.00    +0.000 A 
ATOM     34  C   UNL     1       8.434  -0.749  -0.424  0.00  0.00    +0.002 A 
ATOM     35  C   UNL     1       7.247  -0.045  -0.352  0.00  0.00    +0.023 A 
ENDBRANCH  27  30
ENDBRANCH   1  28
TORSDOF 5
