REMARK  Name = ZINC49425964
REMARK  4 active torsions:
REMARK  status: ('A' for Active; 'I' for Inactive)
REMARK    1  A    between atoms: C_1  and  C_2
REMARK    2  A    between atoms: C_8  and  C_10
REMARK    3  A    between atoms: N_19  and  C_20
REMARK    4  A    between atoms: C_20  and  C_21
REMARK                            x       y       z     vdW  Elec       q    Type
REMARK                         _______ _______ _______ _____ _____    ______ ____
ROOT
ATOM      1  C   UNL     1       0.090  -6.325   0.416  0.00  0.00    +0.093 C 
ATOM      2  C   UNL     1       0.099  -7.249  -0.803  0.00  0.00    +0.016 C 
ATOM      3  C   UNL     1       0.089  -8.708  -0.340  0.00  0.00    +0.020 C 
ATOM      4  C   UNL     1       1.349  -8.986   0.486  0.00  0.00    +0.109 C 
ATOM      5  N   UNL     1       1.423  -8.006   1.579  0.00  0.00    -0.285 N 
ATOM      6  C   UNL     1       1.349  -6.575   1.252  0.00  0.00    +0.122 C 
ATOM      7  C   UNL     1       1.556  -8.412   2.857  0.00  0.00    +0.302 C 
ATOM      8  O   UNL     1       1.708  -7.593   3.743  0.00  0.00    -0.253 OA
ATOM      9  N   UNL     1       1.520  -9.726   3.154  0.00  0.00    -0.295 N 
ATOM     10  H   UNL     1       1.472 -10.383   2.442  0.00  0.00    +0.151 HD
ENDROOT
BRANCH   1  18
ATOM     11  C   UNL     1      -0.024   1.503   0.013  0.00  0.00    +0.075 C 
ATOM     12  C   UNL     1      -0.004  -0.004   0.004  0.00  0.00    +0.101 A 
ATOM     13  N   UNL     1       0.003  -0.844  -1.012  0.00  0.00    -0.145 NA
ATOM     14  N   UNL     1       0.022  -2.086  -0.782  0.00  0.00    -0.126 NA
ATOM     15  C   UNL     1       0.036  -2.568   0.445  0.00  0.00    +0.188 A 
ATOM     16  S   UNL     1       0.027  -1.158   1.369  0.00  0.00    -0.036 S 
ATOM     17  N   UNL     1       0.057  -3.893   0.867  0.00  0.00    -0.263 N 
ATOM     18  C   UNL     1       0.067  -4.889  -0.041  0.00  0.00    +0.223 C 
ATOM     19  O   UNL     1       0.058  -4.630  -1.226  0.00  0.00    -0.275 OA
ATOM     20  H   UNL     1       0.064  -4.100   1.815  0.00  0.00    +0.157 HD
ENDBRANCH   1  18
BRANCH   9  21
ATOM     21  C   UNL     1       1.552 -10.162   4.553  0.00  0.00    +0.148 C 
BRANCH  21  22
ATOM     22  C   UNL     1       1.502 -11.667   4.611  0.00  0.00    +0.007 A 
ATOM     23  C   UNL     1       2.525 -12.556   4.613  0.00  0.00    +0.013 A 
ATOM     24  C   UNL     1       2.239 -13.907   4.673  0.00  0.00    +0.008 A 
ATOM     25  C   UNL     1       0.943 -14.303   4.728  0.00  0.00    +0.045 A 
ATOM     26  S   UNL     1       0.079 -12.742   4.702  0.00  0.00    -0.100 S 
ENDBRANCH  21  22
ENDBRANCH   9  21
TORSDOF 3
