REMARK  Name = ZINC39672782
REMARK  7 active torsions:
REMARK  status: ('A' for Active; 'I' for Inactive)
REMARK    1  A    between atoms: C_4  and  C_7
REMARK    2  A    between atoms: C_7  and  C_8
REMARK    3  A    between atoms: C_8  and  C_9
REMARK    4  A    between atoms: C_13  and  C_22
REMARK    5  A    between atoms: N_24  and  C_25
REMARK    6  A    between atoms: C_25  and  C_26
REMARK    7  A    between atoms: C_26  and  N_32
REMARK                            x       y       z     vdW  Elec       q    Type
REMARK                         _______ _______ _______ _____ _____    ______ ____
ROOT
ATOM      1  C   UNL     1       5.124  -1.800   1.179  0.00  0.00    +0.216 C 
ATOM      2  O   UNL     1       5.633  -2.079   0.113  0.00  0.00    -0.276 OA
ATOM      3  N   UNL     1       5.773  -2.076   2.328  0.00  0.00    -0.300 N 
ATOM      4  C   UNL     1       5.315  -1.819   3.713  0.00  0.00    +0.121 C 
ATOM      5  C   UNL     1       5.769  -3.062   4.511  0.00  0.00    +0.100 C 
ATOM      6  C   UNL     1       6.945  -3.638   3.705  0.00  0.00    -0.004 C 
ATOM      7  C   UNL     1       7.102  -2.711   2.491  0.00  0.00    +0.115 C 
ATOM      8  C   UNL     1       6.623  -5.055   3.242  0.00  0.00    -0.010 C 
ATOM      9  C   UNL     1       7.830  -5.628   2.491  0.00  0.00    -0.082 C 
ATOM     10  N   UNL     1       9.000  -5.634   3.377  0.00  0.00    +0.379 N 
ATOM     11  C   UNL     1       9.359  -4.259   3.744  0.00  0.00    -0.082 C 
ATOM     12  C   UNL     1       8.217  -3.628   4.546  0.00  0.00    -0.010 C 
ATOM     13  H   UNL     1       8.786  -6.159   4.212  0.00  0.00    -0.086 HD
ATOM     14  H   UNL     1       9.778  -6.067   2.901  0.00  0.00    -0.086 HD
ENDROOT
BRANCH   5  15
ATOM     15  C   UNL     1       4.649  -4.066   4.601  0.00  0.00    +0.218 C 
ATOM     16  O   UNL     1       3.809  -4.117   3.728  0.00  0.00    -0.275 OA
ATOM     17  N   UNL     1       4.581  -4.908   5.651  0.00  0.00    -0.313 N 
ATOM     18  H   UNL     1       5.253  -4.867   6.350  0.00  0.00    +0.149 HD
BRANCH  17  19
ATOM     19  C   UNL     1       3.492  -5.884   5.738  0.00  0.00    +0.126 C 
BRANCH  19  20
ATOM     20  C   UNL     1       3.572  -6.619   7.078  0.00  0.00    +0.038 C 
ATOM     21  C   UNL     1       2.517  -7.727   7.115  0.00  0.00    +0.024 C 
ATOM     22  C   UNL     1       1.125  -7.112   6.953  0.00  0.00    +0.002 C 
ATOM     23  C   UNL     1       0.868  -6.124   8.092  0.00  0.00    +0.000 C 
ATOM     24  C   UNL     1       1.923  -5.016   8.055  0.00  0.00    +0.002 C 
ATOM     25  C   UNL     1       3.314  -5.631   8.217  0.00  0.00    +0.024 C 
BRANCH  20  26
ATOM     26  N   UNL     1       4.908  -7.209   7.233  0.00  0.00    -0.291 NA
ATOM     27  C   UNL     1       5.217  -8.115   6.117  0.00  0.00    +0.113 C 
ATOM     28  C   UNL     1       6.638  -8.660   6.288  0.00  0.00    +0.175 C 
ATOM     29  O   UNL     1       6.744  -9.309   7.558  0.00  0.00    -0.377 OA
ATOM     30  C   UNL     1       6.450  -8.456   8.667  0.00  0.00    +0.175 C 
ATOM     31  C   UNL     1       5.028  -7.909   8.521  0.00  0.00    +0.113 C 
ENDBRANCH  20  26
ENDBRANCH  19  20
ENDBRANCH  17  19
ENDBRANCH   5  15
BRANCH   1  32
ATOM     32  C   UNL     1       3.768  -1.146   1.217  0.00  0.00    +0.100 C 
BRANCH  32  33
ATOM     33  C   UNL     1       3.257  -0.945  -0.211  0.00  0.00    +0.044 C 
BRANCH  33  37
ATOM     34  C   UNL     1      -0.589   0.911  -0.103  0.00  0.00    +0.000 A 
ATOM     35  C   UNL     1       0.553   1.689  -0.154  0.00  0.00    +0.000 A 
ATOM     36  C   UNL     1       1.797   1.088  -0.188  0.00  0.00    +0.003 A 
ATOM     37  C   UNL     1       1.900  -0.290  -0.172  0.00  0.00    -0.047 A 
ATOM     38  C   UNL     1       0.759  -1.068  -0.121  0.00  0.00    +0.003 A 
ATOM     39  C   UNL     1      -0.486  -0.468  -0.087  0.00  0.00    +0.000 A 
ENDBRANCH  33  37
ENDBRANCH  32  33
ENDBRANCH   1  32
TORSDOF 7
