REMARK  Name = ZINC15250741
REMARK  5 active torsions:
REMARK  status: ('A' for Active; 'I' for Inactive)
REMARK    1  A    between atoms: C_9  and  C_12
REMARK    2  A    between atoms: C_10  and  O_11
REMARK    3  A    between atoms: C_12  and  N_13
REMARK    4  A    between atoms: N_16  and  C_19
REMARK    5  A    between atoms: C_24  and  O_25
REMARK                            x       y       z     vdW  Elec       q    Type
REMARK                         _______ _______ _______ _____ _____    ______ ____
ROOT
ATOM      1  C   UNL     1       5.039  -2.639   0.084  0.00  0.00    +0.123 C 
ENDROOT
BRANCH   1  10
ATOM      2  C   UNL     1      -1.345  -1.742   0.554  0.00  0.00    +0.001 A 
ATOM      3  C   UNL     1      -1.019  -2.996   1.067  0.00  0.00    +0.001 A 
ATOM      4  C   UNL     1       0.271  -3.431   1.086  0.00  0.00    +0.012 A 
ATOM      5  C   UNL     1       1.290  -2.607   0.581  0.00  0.00    +0.025 A 
ATOM      6  C   UNL     1       0.958  -1.332   0.059  0.00  0.00    +0.004 A 
ATOM      7  C   UNL     1      -0.384  -0.917   0.056  0.00  0.00    +0.010 A 
ATOM      8  C   UNL     1       1.978  -0.507  -0.448  0.00  0.00    +0.049 A 
ATOM      9  C   UNL     1       3.270  -0.941  -0.430  0.00  0.00    +0.029 A 
ATOM     10  C   UNL     1       3.600  -2.193   0.082  0.00  0.00    +0.010 A 
ATOM     11  C   UNL     1       2.637  -3.023   0.583  0.00  0.00    +0.129 A 
ATOM     12 CL   UNL     1       1.594   1.058  -1.092  0.00  0.00    -0.083 Cl
BRANCH  11  13
ATOM     13  O   UNL     1       2.975  -4.241   1.079  0.00  0.00    -0.506 OA
ATOM     14  H   UNL     1       2.982  -4.947   0.419  0.00  0.00    +0.292 HD
ENDBRANCH  11  13
ENDBRANCH   1  10
BRANCH   1  15
ATOM     15  N   UNL     1       5.572  -2.568   1.451  0.00  0.00    -0.295 NA
ATOM     16  C   UNL     1       5.761  -1.173   1.870  0.00  0.00    +0.103 C 
ATOM     17  C   UNL     1       6.142  -1.136   3.354  0.00  0.00    +0.120 C 
ATOM     18  N   UNL     1       7.307  -2.010   3.559  0.00  0.00    -0.325 N 
ATOM     19  C   UNL     1       7.245  -3.386   3.042  0.00  0.00    +0.120 C 
ATOM     20  C   UNL     1       6.820  -3.334   1.570  0.00  0.00    +0.103 C 
BRANCH  18  21
ATOM     21  C   UNL     1       8.445  -1.545   4.228  0.00  0.00    +0.072 A 
ATOM     22  C   UNL     1       8.551  -1.691   5.603  0.00  0.00    +0.027 A 
ATOM     23  C   UNL     1       9.676  -1.232   6.262  0.00  0.00    +0.002 A 
ATOM     24  C   UNL     1      10.697  -0.626   5.553  0.00  0.00    +0.004 A 
ATOM     25  C   UNL     1      10.599  -0.478   4.182  0.00  0.00    +0.047 A 
ATOM     26  C   UNL     1       9.477  -0.940   3.514  0.00  0.00    +0.138 A 
BRANCH  26  27
ATOM     27  O   UNL     1       9.381  -0.799   2.164  0.00  0.00    -0.505 OA
ATOM     28  H   UNL     1       8.967   0.029   1.884  0.00  0.00    +0.292 HD
ENDBRANCH  26  27
ENDBRANCH  18  21
ENDBRANCH   1  15
TORSDOF 5
