REMARK  Name = ZINC58344666
REMARK  7 active torsions:
REMARK  status: ('A' for Active; 'I' for Inactive)
REMARK    1  A    between atoms: C_4  and  N_7
REMARK    2  A    between atoms: N_7  and  C_8
REMARK    3  A    between atoms: N_12  and  C_14
REMARK    4  A    between atoms: C_14  and  C_15
REMARK    5  A    between atoms: N_17  and  C_18
REMARK    6  A    between atoms: C_22  and  S_24
REMARK    7  A    between atoms: S_24  and  N_27
REMARK                            x       y       z     vdW  Elec       q    Type
REMARK                         _______ _______ _______ _____ _____    ______ ____
ROOT
ATOM      1  C   UNL     1       7.711  -4.133  -1.564  0.00  0.00    +0.201 C 
ATOM      2  O   UNL     1       7.019  -4.841  -2.265  0.00  0.00    -0.278 OA
ATOM      3  N   UNL     1       9.050  -4.136  -1.717  0.00  0.00    -0.287 N 
ATOM      4  H   UNL     1       9.598  -3.522  -1.203  0.00  0.00    +0.155 HD
ENDROOT
BRANCH   3   5
ATOM      5  C   UNL     1       9.650  -5.024  -2.617  0.00  0.00    +0.035 A 
ATOM      6  C   UNL     1      10.887  -5.582  -2.323  0.00  0.00    +0.023 A 
ATOM      7  C   UNL     1      11.476  -6.458  -3.214  0.00  0.00    +0.004 A 
ATOM      8  C   UNL     1      10.836  -6.779  -4.397  0.00  0.00    +0.029 A 
ATOM      9  C   UNL     1       9.604  -6.224  -4.692  0.00  0.00    +0.114 A 
ATOM     10  C   UNL     1       9.007  -5.353  -3.803  0.00  0.00    +0.052 A 
BRANCH   9  11
ATOM     11  S   UNL     1       8.793  -6.636  -6.201  0.00  0.00    +0.100 S 
ATOM     12  O   UNL     1       7.906  -5.564  -6.491  0.00  0.00    -0.146 OA
ATOM     13  O   UNL     1       9.806  -7.053  -7.106  0.00  0.00    -0.146 OA
BRANCH  11  14
ATOM     14  N   UNL     1       7.849  -7.963  -5.903  0.00  0.00    -0.118 NA
ATOM     15  C   UNL     1       7.138  -8.478  -6.853  0.00  0.00    +0.117 C 
ATOM     16  C   UNL     1       6.233  -9.682  -6.709  0.00  0.00    +0.074 C 
ATOM     17  C   UNL     1       5.321  -9.625  -7.956  0.00  0.00    +0.026 C 
ATOM     18  C   UNL     1       6.192  -8.837  -8.958  0.00  0.00    +0.103 C 
ATOM     19  N   UNL     1       7.086  -8.012  -8.138  0.00  0.00    -0.331 N 
ATOM     20  H   UNL     1       7.577  -7.241  -8.464  0.00  0.00    +0.147 HD
ENDBRANCH  11  14
ENDBRANCH   9  11
ENDBRANCH   3   5
BRANCH   1  21
ATOM     21  C   UNL     1       7.073  -3.252  -0.521  0.00  0.00    +0.019 C 
BRANCH  21  25
ATOM     22  C   UNL     1       3.640  -2.111  -0.054  0.00  0.00    +0.052 C 
ATOM     23  C   UNL     1       3.577  -2.651  -1.501  0.00  0.00    +0.002 C 
ATOM     24  C   UNL     1       5.066  -2.919  -1.835  0.00  0.00    -0.076 C 
ATOM     25  N   UNL     1       5.616  -3.430  -0.554  0.00  0.00    +0.387 N 
ATOM     26  C   UNL     1       4.978  -2.623   0.511  0.00  0.00    -0.056 C 
ATOM     27  H   UNL     1       5.380  -4.405  -0.439  0.00  0.00    -0.081 HD
BRANCH  22  28
ATOM     28  N   UNL     1       3.615  -0.646  -0.056  0.00  0.00    -0.343 N 
ATOM     29  H   UNL     1       4.447  -0.148  -0.066  0.00  0.00    +0.146 HD
BRANCH  28  33
ATOM     30  C   UNL     1      -0.025   1.375  -0.021  0.00  0.00    +0.000 A 
ATOM     31  C   UNL     1       1.161   2.088  -0.035  0.00  0.00    +0.002 A 
ATOM     32  C   UNL     1       2.369   1.421  -0.046  0.00  0.00    +0.023 A 
ATOM     33  C   UNL     1       2.394   0.032  -0.044  0.00  0.00    +0.027 A 
ATOM     34  C   UNL     1       1.202  -0.681  -0.030  0.00  0.00    +0.023 A 
ATOM     35  C   UNL     1      -0.003  -0.007  -0.019  0.00  0.00    +0.002 A 
ENDBRANCH  28  33
ENDBRANCH  22  28
ENDBRANCH  21  25
ENDBRANCH   1  21
TORSDOF 7
