REMARK  Name = ZINC67178952
REMARK  9 active torsions:
REMARK  status: ('A' for Active; 'I' for Inactive)
REMARK    1  A    between atoms: C_1  and  C_2
REMARK    2  A    between atoms: C_2  and  C_3
REMARK    3  A    between atoms: C_3  and  C_5
REMARK    4  A    between atoms: C_3  and  C_6
REMARK    5  A    between atoms: C_6  and  C_8
REMARK    6  A    between atoms: C_6  and  N_26
REMARK    7  A    between atoms: C_13  and  N_16
REMARK    8  A    between atoms: C_17  and  O_19
REMARK    9  A    between atoms: O_19  and  C_20
REMARK                            x       y       z     vdW  Elec       q    Type
REMARK                         _______ _______ _______ _____ _____    ______ ____
ROOT
ATOM      1  C   UNL     1       2.572   1.279   1.170  0.00  0.00    +0.236 C 
ATOM      2  O   UNL     1       3.211   1.745   2.089  0.00  0.00    -0.274 OA
ATOM      3  N   UNL     1       2.090   2.088   0.206  0.00  0.00    -0.300 N 
ATOM      4  C   UNL     1       1.218   1.556  -0.851  0.00  0.00    +0.109 C 
ATOM      5  C   UNL     1       1.807   1.936  -2.213  0.00  0.00    +0.041 C 
ATOM      6  C   UNL     1       2.013   3.451  -2.271  0.00  0.00    +0.079 C 
ATOM      7  C   UNL     1       3.001   3.876  -1.183  0.00  0.00    +0.041 C 
ATOM      8  C   UNL     1       2.421   3.519   0.195  0.00  0.00    +0.109 C 
ENDROOT
BRANCH   6   9
ATOM      9  N   UNL     1       2.545   3.822  -3.585  0.00  0.00    -0.278 N 
ATOM     10  C   UNL     1       2.345   5.064  -4.067  0.00  0.00    +0.406 C 
ATOM     11  O   UNL     1       1.724   5.878  -3.412  0.00  0.00    -0.226 OA
ATOM     12  H   UNL     1       3.041   3.172  -4.108  0.00  0.00    +0.152 HD
BRANCH  10  13
ATOM     13  O   UNL     1       2.834   5.405  -5.275  0.00  0.00    -0.412 OA
BRANCH  13  14
ATOM     14  C   UNL     1       2.703   6.697  -5.675  0.00  0.00    +0.133 A 
ATOM     15  C   UNL     1       1.749   7.037  -6.623  0.00  0.00    +0.046 A 
ATOM     16  C   UNL     1       1.617   8.351  -7.029  0.00  0.00    +0.004 A 
ATOM     17  C   UNL     1       2.436   9.327  -6.491  0.00  0.00    +0.000 A 
ATOM     18  C   UNL     1       3.388   8.991  -5.546  0.00  0.00    +0.004 A 
ATOM     19  C   UNL     1       3.519   7.679  -5.133  0.00  0.00    +0.046 A 
ENDBRANCH  13  14
ENDBRANCH  10  13
ENDBRANCH   6   9
BRANCH   1  20
ATOM     20  C   UNL     1       2.316  -0.205   1.106  0.00  0.00    +0.163 C 
BRANCH  20  21
ATOM     21  N   UNL     1       3.359  -0.913   1.853  0.00  0.00    -0.288 N 
ATOM     22  C   UNL     1       3.656  -2.192   1.549  0.00  0.00    +0.298 C 
ATOM     23  O   UNL     1       3.058  -2.758   0.654  0.00  0.00    -0.253 OA
ATOM     24  N   UNL     1       4.615  -2.843   2.237  0.00  0.00    -0.313 N 
ATOM     25  H   UNL     1       3.835  -0.461   2.567  0.00  0.00    +0.151 HD
ATOM     26  H   UNL     1       5.091  -2.391   2.950  0.00  0.00    +0.146 HD
ATOM     27  H   UNL     1       4.828  -3.763   2.018  0.00  0.00    +0.146 HD
ENDBRANCH  20  21
BRANCH  20  28
ATOM     28  C   UNL     1       0.949  -0.514   1.720  0.00  0.00    +0.015 C 
ATOM     29  C   UNL     1       0.978  -0.195   3.216  0.00  0.00    +0.010 C 
BRANCH  28  31
ATOM     30  C   UNL     1       0.474  -2.289   0.027  0.00  0.00    +0.004 C 
ATOM     31  C   UNL     1       0.625  -1.996   1.521  0.00  0.00    +0.002 C 
ENDBRANCH  28  31
ENDBRANCH  20  28
ENDBRANCH   1  20
TORSDOF 7
