REMARK  Name = ZINC41261554
REMARK  3 active torsions:
REMARK  status: ('A' for Active; 'I' for Inactive)
REMARK    1  A    between atoms: C_6  and  S_7
REMARK    2  A    between atoms: S_7  and  N_10
REMARK    3  A    between atoms: N_10  and  C_11
REMARK                            x       y       z     vdW  Elec       q    Type
REMARK                         _______ _______ _______ _____ _____    ______ ____
ROOT
ATOM      1  N   UNL     1      -1.814  -1.169  -1.595  0.00  0.00    -0.216 N 
ATOM      2  H   UNL     1      -2.202  -0.385  -2.014  0.00  0.00    +0.174 HD
ENDROOT
BRANCH   1   3
ATOM      3  C   UNL     1      -0.983  -2.018  -2.333  0.00  0.00    +0.052 A 
ATOM      4  C   UNL     1       0.394  -1.994  -2.124  0.00  0.00    +0.027 A 
ATOM      5  C   UNL     1       1.221  -2.825  -2.845  0.00  0.00    +0.033 A 
ATOM      6  C   UNL     1       0.678  -3.697  -3.789  0.00  0.00    +0.113 A 
ATOM      7  C   UNL     1      -0.709  -3.721  -3.999  0.00  0.00    +0.161 A 
ATOM      8  C   UNL     1      -1.533  -2.884  -3.265  0.00  0.00    +0.073 A 
ATOM      9  O   UNL     1      -0.933  -4.650  -4.957  0.00  0.00    -0.406 OA
ATOM     10  C   UNL     1       0.251  -5.172  -5.321  0.00  0.00    +0.441 A 
ATOM     11  O   UNL     1       0.418  -6.132  -6.259  0.00  0.00    -0.221 OA
ATOM     12  N   UNL     1       1.216  -4.618  -4.638  0.00  0.00    -0.172 NA
ENDBRANCH   1   3
BRANCH   1  13
ATOM     13  S   UNL     1      -2.137  -1.503  -0.005  0.00  0.00    +0.072 S 
ATOM     14  O   UNL     1      -3.033  -0.497   0.447  0.00  0.00    -0.150 OA
ATOM     15  O   UNL     1      -0.884  -1.744   0.621  0.00  0.00    -0.150 OA
BRANCH  13  21
ATOM     16  C   UNL     1      -2.348  -4.212   0.252  0.00  0.00    +0.030 A 
ATOM     17  C   UNL     1      -3.044  -5.406   0.287  0.00  0.00    +0.017 A 
ATOM     18  C   UNL     1      -4.415  -5.413   0.107  0.00  0.00    +0.018 A 
ATOM     19  C   UNL     1      -5.090  -4.225  -0.107  0.00  0.00    +0.017 A 
ATOM     20  C   UNL     1      -4.394  -3.031  -0.141  0.00  0.00    +0.030 A 
ATOM     21  C   UNL     1      -3.023  -3.025   0.038  0.00  0.00    +0.109 A 
ATOM     22 BR   UNL     1      -5.367  -7.046   0.153  0.00  0.00    -0.050 Br
ENDBRANCH  13  21
ENDBRANCH   1  13
TORSDOF 3
