REMARK  Name = ZINC18182009
REMARK  6 active torsions:
REMARK  status: ('A' for Active; 'I' for Inactive)
REMARK    1  A    between atoms: C_1  and  N_2
REMARK    2  A    between atoms: N_7  and  C_10
REMARK    3  A    between atoms: C_11  and  C_24
REMARK    4  A    between atoms: C_27  and  C_30
REMARK    5  A    between atoms: C_30  and  O_32
REMARK    6  A    between atoms: O_32  and  C_33
REMARK                            x       y       z     vdW  Elec       q    Type
REMARK                         _______ _______ _______ _____ _____    ______ ____
ROOT
ATOM      1  C   UNL     1      -0.018   1.461   0.010  0.00  0.00    +0.155 C 
ATOM      2  N   UNL     1       0.002  -0.004   0.002  0.00  0.00    -0.284 N 
ATOM      3  C   UNL     1      -1.185  -0.703   0.004  0.00  0.00    +0.116 A 
ATOM      4  C   UNL     1      -1.159  -2.063  -0.008  0.00  0.00    +0.067 A 
ATOM      5  C   UNL     1       0.088  -2.720  -0.015  0.00  0.00    +0.262 A 
ATOM      6  O   UNL     1       0.137  -3.938  -0.021  0.00  0.00    -0.267 OA
ATOM      7  N   UNL     1       1.225  -1.999  -0.014  0.00  0.00    -0.264 N 
ATOM      8  C   UNL     1       1.179  -0.654  -0.013  0.00  0.00    +0.333 A 
ATOM      9  O   UNL     1       2.215  -0.018  -0.021  0.00  0.00    -0.246 OA
ATOM     10  C   UNL     1       2.520  -2.682  -0.020  0.00  0.00    +0.157 C 
ATOM     11  C   UNL     1      -2.415  -2.897  -0.020  0.00  0.00    +0.093 C 
ATOM     12  C   UNL     1      -3.597  -2.029   0.321  0.00  0.00    +0.034 C 
ATOM     13  C   UNL     1      -3.530  -0.658   0.327  0.00  0.00    +0.048 C 
ATOM     14  N   UNL     1      -2.365   0.009   0.023  0.00  0.00    -0.299 N 
ATOM     15  C   UNL     1      -4.843  -0.118   0.697  0.00  0.00    +0.007 A 
ATOM     16  C   UNL     1      -5.300   1.183   0.844  0.00  0.00    +0.010 A 
ATOM     17  C   UNL     1      -6.637   1.345   1.216  0.00  0.00    +0.001 A 
ATOM     18  C   UNL     1      -7.470   0.272   1.428  0.00  0.00    +0.001 A 
ATOM     19  C   UNL     1      -7.024  -1.046   1.284  0.00  0.00    +0.012 A 
ATOM     20  C   UNL     1      -5.704  -1.222   0.916  0.00  0.00    +0.031 A 
ATOM     21  C   UNL     1      -4.902  -2.442   0.674  0.00  0.00    +0.193 C 
ATOM     22  O   UNL     1      -5.293  -3.589   0.762  0.00  0.00    -0.287 OA
ATOM     23  H   UNL     1      -2.375   0.959  -0.173  0.00  0.00    +0.154 HD
ENDROOT
BRANCH  11  24
ATOM     24  C   UNL     1      -2.608  -3.494  -1.390  0.00  0.00    -0.035 A 
ATOM     25  C   UNL     1      -2.740  -2.666  -2.490  0.00  0.00    +0.005 A 
ATOM     26  C   UNL     1      -2.917  -3.206  -3.747  0.00  0.00    +0.015 A 
ATOM     27  C   UNL     1      -2.965  -4.592  -3.908  0.00  0.00    +0.059 A 
ATOM     28  C   UNL     1      -2.832  -5.422  -2.793  0.00  0.00    +0.015 A 
ATOM     29  C   UNL     1      -2.649  -4.869  -1.543  0.00  0.00    +0.005 A 
BRANCH  27  30
ATOM     30  C   UNL     1      -3.155  -5.177  -5.251  0.00  0.00    +0.339 C 
ATOM     31  O   UNL     1      -3.271  -4.452  -6.218  0.00  0.00    -0.245 OA
BRANCH  30  32
ATOM     32  O   UNL     1      -3.200  -6.515  -5.402  0.00  0.00    -0.464 OA
ATOM     33  C   UNL     1      -3.387  -7.012  -6.729  0.00  0.00    +0.280 C 
ENDBRANCH  30  32
ENDBRANCH  27  30
ENDBRANCH  11  24
TORSDOF 3
