REMARK  Name = ZINC62702620
REMARK  7 active torsions:
REMARK  status: ('A' for Active; 'I' for Inactive)
REMARK    1  A    between atoms: C_1  and  C_2
REMARK    2  A    between atoms: C_2  and  C_3
REMARK    3  A    between atoms: C_6  and  N_12
REMARK    4  A    between atoms: C_8  and  N_9
REMARK    5  A    between atoms: N_12  and  C_13
REMARK    6  A    between atoms: C_13  and  C_14
REMARK    7  A    between atoms: C_17  and  O_21
REMARK                            x       y       z     vdW  Elec       q    Type
REMARK                         _______ _______ _______ _____ _____    ______ ____
ROOT
ATOM      1  N   UNL     1      -5.309  -1.990   0.038  0.00  0.00    -0.340 N 
ATOM      2  H   UNL     1      -5.818  -2.029  -0.787  0.00  0.00    +0.146 HD
ENDROOT
BRANCH   1   6
ATOM      3  C   UNL     1      -1.416  -0.514   0.015  0.00  0.00    -0.017 A 
ATOM      4  C   UNL     1      -1.982  -0.949   1.200  0.00  0.00    +0.007 A 
ATOM      5  C   UNL     1      -3.273  -1.439   1.211  0.00  0.00    +0.023 A 
ATOM      6  C   UNL     1      -4.003  -1.495   0.030  0.00  0.00    +0.030 A 
ATOM      7  C   UNL     1      -3.432  -1.057  -1.158  0.00  0.00    +0.056 A 
ATOM      8  C   UNL     1      -2.142  -0.563  -1.161  0.00  0.00    +0.131 A 
BRANCH   8   9
ATOM      9  N   UNL     1      -1.534  -0.090  -2.425  0.00  0.00    +0.057 N 
ATOM     10  O   UNL     1      -2.199  -0.042  -3.434  0.00  0.00    -0.126 OA
ATOM     11  O   UNL     1      -0.374   0.246  -2.449  0.00  0.00    -0.126 OA
ENDBRANCH   8   9
BRANCH   3  13
ATOM     12  C   UNL     1      -0.042   1.550  -0.049  0.00  0.00    +0.009 C 
ATOM     13  C   UNL     1      -0.007   0.021   0.007  0.00  0.00    +0.034 C 
ENDBRANCH   3  13
ENDBRANCH   1   6
BRANCH   1  14
ATOM     14  C   UNL     1      -5.910  -2.452   1.292  0.00  0.00    +0.137 C 
BRANCH  14  15
ATOM     15  C   UNL     1      -7.314  -2.934   1.028  0.00  0.00    -0.029 A 
ATOM     16  C   UNL     1      -8.374  -2.049   1.109  0.00  0.00    +0.009 A 
ATOM     17  C   UNL     1      -9.661  -2.488   0.868  0.00  0.00    +0.047 A 
ATOM     18  C   UNL     1      -9.891  -3.817   0.546  0.00  0.00    +0.131 A 
ATOM     19  C   UNL     1      -8.826  -4.704   0.465  0.00  0.00    +0.060 A 
ATOM     20  C   UNL     1      -7.539  -4.258   0.702  0.00  0.00    +0.024 A 
ATOM     21 BR   UNL     1      -9.134  -6.517   0.026  0.00  0.00    -0.047 Br
BRANCH  18  22
ATOM     22  O   UNL     1     -11.157  -4.252   0.309  0.00  0.00    -0.506 OA
ATOM     23  H   UNL     1     -11.429  -4.186  -0.616  0.00  0.00    +0.292 HD
ENDBRANCH  18  22
ENDBRANCH  14  15
ENDBRANCH   1  14
TORSDOF 6
