REMARK  Name = ZINC39671960
REMARK  5 active torsions:
REMARK  status: ('A' for Active; 'I' for Inactive)
REMARK    1  A    between atoms: C_6  and  C_10
REMARK    2  A    between atoms: C_10  and  N_11
REMARK    3  A    between atoms: C_12  and  C_14
REMARK    4  A    between atoms: C_25  and  C_27
REMARK    5  A    between atoms: C_27  and  C_28
REMARK                            x       y       z     vdW  Elec       q    Type
REMARK                         _______ _______ _______ _____ _____    ______ ____
ROOT
ATOM      1  C   UNL     1       4.615  -5.543   2.959  0.00  0.00    +0.100 C 
ATOM      2  C   UNL     1       5.558  -4.616   3.758  0.00  0.00    +0.121 C 
ATOM      3  N   UNL     1       6.341  -5.532   4.621  0.00  0.00    -0.300 N 
ATOM      4  C   UNL     1       6.617  -6.705   3.758  0.00  0.00    +0.115 C 
ATOM      5  C   UNL     1       5.314  -6.913   2.961  0.00  0.00    -0.004 C 
ATOM      6  C   UNL     1       4.435  -7.954   3.649  0.00  0.00    -0.010 C 
ATOM      7  C   UNL     1       5.125  -9.319   3.588  0.00  0.00    -0.082 C 
ATOM      8  N   UNL     1       5.354  -9.691   2.187  0.00  0.00    +0.379 N 
ATOM      9  C   UNL     1       6.275  -8.736   1.558  0.00  0.00    -0.082 C 
ATOM     10  C   UNL     1       5.633  -7.346   1.534  0.00  0.00    -0.010 C 
ATOM     11  C   UNL     1       6.718  -5.340   5.901  0.00  0.00    +0.220 C 
ATOM     12  O   UNL     1       7.363  -6.191   6.477  0.00  0.00    -0.275 OA
ATOM     13  H   UNL     1       5.754 -10.617   2.147  0.00  0.00    -0.086 HD
ATOM     14  H   UNL     1       4.476  -9.686   1.691  0.00  0.00    -0.086 HD
ENDROOT
BRANCH   1  16
ATOM     15  N   UNL     1       3.318  -5.290   0.868  0.00  0.00    -0.309 N 
ATOM     16  C   UNL     1       4.454  -5.038   1.549  0.00  0.00    +0.219 C 
ATOM     17  O   UNL     1       5.347  -4.405   1.025  0.00  0.00    -0.275 OA
ATOM     18  H   UNL     1       2.604  -5.796   1.287  0.00  0.00    +0.149 HD
BRANCH  15  19
ATOM     19  C   UNL     1       3.162  -4.799  -0.503  0.00  0.00    +0.161 C 
BRANCH  19  25
ATOM     20  C   UNL     1      -1.870  -7.106  -2.807  0.00  0.00    +0.005 A 
ATOM     21  C   UNL     1      -2.405  -5.864  -2.426  0.00  0.00    +0.018 A 
ATOM     22  C   UNL     1      -1.623  -4.940  -1.829  0.00  0.00    +0.092 A 
ATOM     23  N   UNL     1      -0.304  -5.197  -1.588  0.00  0.00    -0.306 N 
ATOM     24  C   UNL     1       0.693  -4.457  -1.012  0.00  0.00    +0.117 A 
ATOM     25  C   UNL     1       1.813  -5.212  -1.034  0.00  0.00    +0.077 A 
ATOM     26  N   UNL     1       1.526  -6.385  -1.603  0.00  0.00    -0.231 NA
ATOM     27  C   UNL     1       0.246  -6.400  -1.948  0.00  0.00    +0.138 A 
ATOM     28  C   UNL     1      -0.557  -7.375  -2.572  0.00  0.00    +0.047 A 
ENDBRANCH  19  25
ENDBRANCH  15  19
ENDBRANCH   1  16
BRANCH  11  29
ATOM     29  C   UNL     1       6.338  -4.069   6.616  0.00  0.00    +0.131 C 
BRANCH  29  30
ATOM     30  C   UNL     1       6.877  -4.105   8.023  0.00  0.00    -0.039 A 
ATOM     31  C   UNL     1       6.112  -4.641   9.043  0.00  0.00    +0.005 A 
ATOM     32  C   UNL     1       6.605  -4.673  10.333  0.00  0.00    +0.020 A 
ATOM     33  C   UNL     1       7.865  -4.170  10.605  0.00  0.00    +0.041 A 
ATOM     34  C   UNL     1       8.630  -3.634   9.585  0.00  0.00    +0.020 A 
ATOM     35  C   UNL     1       8.138  -3.607   8.293  0.00  0.00    +0.005 A 
ATOM     36 CL   UNL     1       8.485  -4.210  12.226  0.00  0.00    -0.084 Cl
ENDBRANCH  29  30
ENDBRANCH  11  29
TORSDOF 5
