REMARK  Name = ZINC35596863
REMARK  7 active torsions:
REMARK  status: ('A' for Active; 'I' for Inactive)
REMARK    1  A    between atoms: C_7  and  C_10
REMARK    2  A    between atoms: C_10  and  C_11
REMARK    3  A    between atoms: N_13  and  C_14
REMARK    4  A    between atoms: N_18  and  C_19
REMARK    5  A    between atoms: C_19  and  C_20
REMARK    6  A    between atoms: N_22  and  C_23
REMARK    7  A    between atoms: C_23  and  C_24
REMARK                            x       y       z     vdW  Elec       q    Type
REMARK                         _______ _______ _______ _____ _____    ______ ____
ROOT
ATOM      1  C   UNL     1      -0.776  -5.113  -2.987  0.00  0.00    +0.128 A 
ATOM      2  C   UNL     1      -1.607  -6.148  -3.349  0.00  0.00    +0.026 A 
ATOM      3  C   UNL     1      -1.553  -6.271  -4.727  0.00  0.00    +0.079 A 
ATOM      4  N   UNL     1      -0.723  -5.349  -5.191  0.00  0.00    -0.173 NA
ATOM      5  N   UNL     1      -0.232  -4.611  -4.113  0.00  0.00    -0.241 N 
ATOM      6  C   UNL     1      -2.409  -7.370  -5.353  0.00  0.00    +0.127 C 
ATOM      7  S   UNL     1      -2.818  -8.408  -3.890  0.00  0.00    -0.150 S 
ATOM      8  C   UNL     1      -2.515  -7.126  -2.606  0.00  0.00    +0.110 C 
ENDROOT
BRANCH   1  11
ATOM      9  C   UNL     1      -1.484  -4.826  -0.738  0.00  0.00    +0.224 C 
ATOM     10  O   UNL     1      -2.574  -5.268  -1.035  0.00  0.00    -0.275 OA
ATOM     11  N   UNL     1      -0.543  -4.661  -1.688  0.00  0.00    -0.270 N 
ATOM     12  H   UNL     1       0.297  -4.228  -1.469  0.00  0.00    +0.156 HD
BRANCH   9  13
ATOM     13  C   UNL     1      -1.183  -4.461   0.693  0.00  0.00    +0.155 C 
BRANCH  13  20
ATOM     14  C   UNL     1      -2.602  -8.233   3.071  0.00  0.00    +0.001 A 
ATOM     15  C   UNL     1      -3.806  -8.039   3.734  0.00  0.00    +0.004 A 
ATOM     16  C   UNL     1      -4.463  -6.831   3.655  0.00  0.00    +0.049 A 
ATOM     17  C   UNL     1      -3.917  -5.795   2.906  0.00  0.00    +0.168 A 
ATOM     18  C   UNL     1      -2.698  -5.995   2.237  0.00  0.00    +0.045 A 
ATOM     19  C   UNL     1      -2.048  -7.228   2.330  0.00  0.00    +0.013 A 
ATOM     20  C   UNL     1      -2.393  -4.739   1.547  0.00  0.00    +0.100 A 
ATOM     21  N   UNL     1      -3.356  -3.909   1.808  0.00  0.00    -0.082 NA
ATOM     22  O   UNL     1      -4.311  -4.533   2.643  0.00  0.00    -0.354 OA
ENDBRANCH  13  20
ENDBRANCH   9  13
ENDBRANCH   1  11
BRANCH   5  23
ATOM     23  C   UNL     1       0.711  -3.492  -4.191  0.00  0.00    +0.241 C 
BRANCH  23  24
ATOM     24  C   UNL     1       2.120  -4.024  -4.240  0.00  0.00    +0.235 C 
ATOM     25  O   UNL     1       2.318  -5.221  -4.212  0.00  0.00    -0.274 OA
ATOM     26  N   UNL     1       3.160  -3.171  -4.314  0.00  0.00    -0.307 N 
ATOM     27  H   UNL     1       3.002  -2.214  -4.336  0.00  0.00    +0.149 HD
BRANCH  26  28
ATOM     28  C   UNL     1       4.530  -3.688  -4.361  0.00  0.00    +0.178 C 
BRANCH  28  29
ATOM     29  C   UNL     1       5.499  -2.537  -4.442  0.00  0.00    +0.122 A 
ATOM     30  C   UNL     1       6.060  -1.906  -3.394  0.00  0.00    +0.046 A 
ATOM     31  C   UNL     1       6.897  -0.897  -3.924  0.00  0.00    +0.041 A 
ATOM     32  C   UNL     1       6.798  -0.972  -5.263  0.00  0.00    +0.195 A 
ATOM     33  O   UNL     1       5.955  -1.971  -5.571  0.00  0.00    -0.466 OA
ENDBRANCH  28  29
ENDBRANCH  26  28
ENDBRANCH  23  24
ENDBRANCH   5  23
TORSDOF 7
