REMARK  Name = ZINC13397536
REMARK  5 active torsions:
REMARK  status: ('A' for Active; 'I' for Inactive)
REMARK    1  A    between atoms: C_5  and  C_8
REMARK    2  A    between atoms: C_11  and  C_13
REMARK    3  A    between atoms: C_13  and  S_14
REMARK    4  A    between atoms: S_14  and  C_15
REMARK    5  A    between atoms: N_27  and  C_28
REMARK                            x       y       z     vdW  Elec       q    Type
REMARK                         _______ _______ _______ _____ _____    ______ ____
ROOT
ATOM      1  C   UNL     1       7.156  -1.052   2.338  0.00  0.00    +0.173 A 
ATOM      2  N   UNL     1       7.279   0.251   2.184  0.00  0.00    -0.216 NA
ATOM      3  C   UNL     1       8.463   0.840   2.311  0.00  0.00    +0.117 A 
ATOM      4  C   UNL     1       9.627   0.117   2.610  0.00  0.00    +0.076 A 
ATOM      5  C   UNL     1      10.866   0.904   2.719  0.00  0.00    -0.023 A 
ATOM      6  C   UNL     1      10.763   2.229   2.526  0.00  0.00    -0.004 A 
ATOM      7  S   UNL     1       9.040   2.512   2.188  0.00  0.00    -0.073 S 
ATOM      8  C   UNL     1      12.088   2.929   2.667  0.00  0.00    +0.043 C 
ATOM      9  C   UNL     1      12.987   1.913   3.404  0.00  0.00    +0.010 C 
ATOM     10  C   UNL     1      12.332   0.573   3.012  0.00  0.00    +0.037 C 
ATOM     11  C   UNL     1       9.465  -1.295   2.771  0.00  0.00    +0.263 A 
ATOM     12  O   UNL     1      10.423  -2.002   3.033  0.00  0.00    -0.267 OA
ATOM     13  N   UNL     1       8.237  -1.830   2.636  0.00  0.00    -0.284 N 
ENDROOT
BRANCH  13  14
ATOM     14  C   UNL     1       8.059  -3.274   2.805  0.00  0.00    +0.093 C 
ATOM     15  C   UNL     1       8.485  -3.696   4.226  0.00  0.00    +0.025 C 
ATOM     16  C   UNL     1       9.160  -5.076   4.027  0.00  0.00    +0.002 C 
ATOM     17  C   UNL     1       9.921  -4.894   2.690  0.00  0.00    +0.002 C 
ATOM     18  C   UNL     1       8.972  -4.036   1.828  0.00  0.00    +0.025 C 
ENDBRANCH  13  14
BRANCH   1  19
ATOM     19  S   UNL     1       5.570  -1.800   2.163  0.00  0.00    -0.078 S 
BRANCH  19  20
ATOM     20  C   UNL     1       4.469  -0.411   1.777  0.00  0.00    +0.173 C 
BRANCH  20  27
ATOM     21  C   UNL     1       0.384   1.545  -0.305  0.00  0.00    +0.004 C 
ATOM     22  C   UNL     1       1.846   1.939  -0.076  0.00  0.00    +0.019 C 
ATOM     23  C   UNL     1       2.313   1.389   1.274  0.00  0.00    +0.108 C 
ATOM     24  N   UNL     1       2.067  -0.059   1.307  0.00  0.00    -0.287 N 
ATOM     25  C   UNL     1       0.714  -0.552   1.012  0.00  0.00    +0.189 C 
ATOM     26  C   UNL     1       0.264   0.020  -0.337  0.00  0.00    +0.034 C 
ATOM     27  C   UNL     1       3.062  -0.919   1.601  0.00  0.00    +0.227 C 
ATOM     28  O   UNL     1       2.824  -2.102   1.723  0.00  0.00    -0.275 OA
BRANCH  25  29
ATOM     29  C   UNL     1       0.728  -2.057   0.946  0.00  0.00    +0.376 C 
ATOM     30  O   UNL     1       0.060  -2.708   1.731  0.00  0.00    -0.244 OA
ATOM     31  O   UNL     1       1.407  -2.624   0.106  0.00  0.00    -0.244 OA
ENDBRANCH  25  29
ENDBRANCH  20  27
ENDBRANCH  19  20
ENDBRANCH   1  19
TORSDOF 5
