REMARK  Name = ZINC36026582
REMARK  8 active torsions:
REMARK  status: ('A' for Active; 'I' for Inactive)
REMARK    1  A    between atoms: C_1  and  C_2
REMARK    2  A    between atoms: C_2  and  C_3
REMARK    3  A    between atoms: C_3  and  C_5
REMARK    4  A    between atoms: C_3  and  C_6
REMARK    5  A    between atoms: C_6  and  N_7
REMARK    6  A    between atoms: C_10  and  C_28
REMARK    7  A    between atoms: C_19  and  C_21
REMARK    8  A    between atoms: C_28  and  C_29
REMARK                            x       y       z     vdW  Elec       q    Type
REMARK                         _______ _______ _______ _____ _____    ______ ____
ROOT
ATOM      1  N   UNL     1       1.023  -2.425  -1.940  0.00  0.00    -0.313 N 
ATOM      2  C   UNL     1       0.240  -2.676  -3.010  0.00  0.00    +0.201 C 
ATOM      3  O   UNL     1      -0.959  -2.499  -3.068  0.00  0.00    -0.277 OA
ATOM      4  C   UNL     1       1.109  -3.216  -4.126  0.00  0.00    +0.023 C 
ATOM      5  N   UNL     1       2.494  -2.861  -3.731  0.00  0.00    +0.401 N 
ATOM      6  C   UNL     1       2.411  -2.768  -2.260  0.00  0.00    +0.006 C 
ATOM      7  C   UNL     1       2.779  -4.115  -1.641  0.00  0.00    +0.025 C 
ATOM      8  C   UNL     1       2.656  -4.024  -0.116  0.00  0.00    +0.108 C 
ATOM      9  N   UNL     1       3.465  -2.892   0.356  0.00  0.00    -0.297 N 
ATOM     10  C   UNL     1       3.237  -1.566  -0.233  0.00  0.00    +0.108 C 
ATOM     11  C   UNL     1       3.354  -1.677  -1.757  0.00  0.00    +0.025 C 
ATOM     12  C   UNL     1       4.398  -3.067   1.313  0.00  0.00    +0.248 C 
ATOM     13  O   UNL     1       5.003  -2.109   1.754  0.00  0.00    -0.270 OA
ATOM     14  H   UNL     1       3.139  -3.585  -4.009  0.00  0.00    -0.082 HD
ATOM     15  H   UNL     1       2.760  -1.972  -4.126  0.00  0.00    -0.082 HD
ENDROOT
BRANCH  12  16
ATOM     16  C   UNL     1       4.686  -4.423   1.826  0.00  0.00    +0.055 A 
ATOM     17  C   UNL     1       3.655  -5.211   2.341  0.00  0.00    +0.014 A 
ATOM     18  C   UNL     1       3.930  -6.475   2.818  0.00  0.00    +0.001 A 
ATOM     19  C   UNL     1       5.224  -6.964   2.787  0.00  0.00    +0.001 A 
ATOM     20  C   UNL     1       6.251  -6.190   2.279  0.00  0.00    +0.021 A 
ATOM     21  C   UNL     1       5.989  -4.924   1.792  0.00  0.00    +0.053 A 
ATOM     22 CL   UNL     1       7.277  -3.956   1.147  0.00  0.00    -0.083 Cl
ENDBRANCH  12  16
BRANCH   1  23
ATOM     23  C   UNL     1       0.558  -1.888  -0.659  0.00  0.00    +0.109 C 
BRANCH  23  24
ATOM     24  C   UNL     1       0.587  -0.359  -0.708  0.00  0.00    +0.003 C 
ATOM     25  C   UNL     1      -0.434   0.138  -1.733  0.00  0.00    +0.009 C 
BRANCH  24  27
ATOM     26  C   UNL     1       0.387   1.724   0.658  0.00  0.00    +0.004 C 
ATOM     27  C   UNL     1       0.237   0.201   0.673  0.00  0.00    +0.001 C 
ENDBRANCH  24  27
ENDBRANCH  23  24
ENDBRANCH   1  23
BRANCH   4  28
ATOM     28  C   UNL     1       0.744  -2.550  -5.454  0.00  0.00    +0.028 C 
BRANCH  28  29
ATOM     29  C   UNL     1       1.559  -3.163  -6.564  0.00  0.00    -0.048 A 
ATOM     30  C   UNL     1       2.791  -2.628  -6.893  0.00  0.00    +0.003 A 
ATOM     31  C   UNL     1       3.539  -3.191  -7.910  0.00  0.00    +0.000 A 
ATOM     32  C   UNL     1       3.056  -4.288  -8.598  0.00  0.00    +0.000 A 
ATOM     33  C   UNL     1       1.825  -4.823  -8.268  0.00  0.00    +0.000 A 
ATOM     34  C   UNL     1       1.078  -4.264  -7.248  0.00  0.00    +0.003 A 
ENDBRANCH  28  29
ENDBRANCH   4  28
TORSDOF 6
