REMARK  Name = ZINC39658215
REMARK  8 active torsions:
REMARK  status: ('A' for Active; 'I' for Inactive)
REMARK    1  A    between atoms: C_1  and  O_2
REMARK    2  A    between atoms: O_2  and  C_3
REMARK    3  A    between atoms: C_6  and  C_9
REMARK    4  A    between atoms: C_9  and  C_10
REMARK    5  A    between atoms: C_10  and  C_11
REMARK    6  A    between atoms: C_15  and  C_24
REMARK    7  A    between atoms: N_26  and  C_27
REMARK    8  A    between atoms: C_30  and  C_33
REMARK                            x       y       z     vdW  Elec       q    Type
REMARK                         _______ _______ _______ _____ _____    ______ ____
ROOT
ATOM      1  C   UNL     1      -6.920  -3.607  -1.362  0.00  0.00    +0.216 C 
ATOM      2  O   UNL     1      -7.446  -3.946  -0.323  0.00  0.00    -0.276 OA
ATOM      3  N   UNL     1      -7.483  -3.934  -2.542  0.00  0.00    -0.300 N 
ATOM      4  C   UNL     1      -6.990  -3.618  -3.903  0.00  0.00    +0.121 C 
ATOM      5  C   UNL     1      -7.279  -4.891  -4.729  0.00  0.00    +0.100 C 
ATOM      6  C   UNL     1      -8.427  -5.591  -3.982  0.00  0.00    -0.004 C 
ATOM      7  C   UNL     1      -8.733  -4.698  -2.771  0.00  0.00    +0.115 C 
ATOM      8  C   UNL     1      -7.986  -6.974  -3.512  0.00  0.00    -0.010 C 
ATOM      9  C   UNL     1      -9.161  -7.673  -2.822  0.00  0.00    -0.082 C 
ATOM     10  N   UNL     1     -10.283  -7.788  -3.761  0.00  0.00    +0.379 N 
ATOM     11  C   UNL     1     -10.761  -6.452  -4.137  0.00  0.00    -0.082 C 
ATOM     12  C   UNL     1      -9.654  -5.701  -4.882  0.00  0.00    -0.010 C 
ATOM     13  H   UNL     1      -9.979  -8.279  -4.588  0.00  0.00    -0.086 HD
ATOM     14  H   UNL     1     -11.034  -8.302  -3.325  0.00  0.00    -0.086 HD
ENDROOT
BRANCH   5  15
ATOM     15  C   UNL     1      -7.706  -4.525  -6.126  0.00  0.00    +0.218 C 
ATOM     16  O   UNL     1      -8.308  -3.491  -6.325  0.00  0.00    -0.275 OA
ATOM     17  N   UNL     1      -7.419  -5.345  -7.156  0.00  0.00    -0.312 N 
ATOM     18  H   UNL     1      -6.937  -6.172  -6.997  0.00  0.00    +0.149 HD
BRANCH  17  19
ATOM     19  C   UNL     1      -7.834  -4.989  -8.515  0.00  0.00    +0.073 C 
ATOM     20  C   UNL     1      -9.276  -5.446  -8.744  0.00  0.00    +0.023 C 
ATOM     21  C   UNL     1      -9.710  -5.074 -10.163  0.00  0.00    +0.016 C 
ATOM     22  C   UNL     1      -8.790  -5.761 -11.175  0.00  0.00    +0.102 C 
ATOM     23  C   UNL     1      -7.348  -5.304 -10.945  0.00  0.00    +0.016 C 
ATOM     24  C   UNL     1      -6.914  -5.676  -9.526  0.00  0.00    +0.023 C 
BRANCH  22  25
ATOM     25  C   UNL     1      -9.217  -5.394 -12.572  0.00  0.00    +0.359 C 
ATOM     26  O   UNL     1      -8.392  -5.343 -13.468  0.00  0.00    -0.246 OA
ATOM     27  O   UNL     1     -10.388  -5.149 -12.807  0.00  0.00    -0.246 OA
ENDBRANCH  22  25
ENDBRANCH  17  19
ENDBRANCH   5  15
BRANCH   1  28
ATOM     28  C   UNL     1      -5.636  -2.818  -1.333  0.00  0.00    +0.100 C 
BRANCH  28  29
ATOM     29  C   UNL     1      -5.214  -2.582   0.119  0.00  0.00    +0.044 C 
BRANCH  29  33
ATOM     30  C   UNL     1      -1.573  -0.347   0.200  0.00  0.00    +0.120 A 
ATOM     31  C   UNL     1      -2.793   0.313   0.203  0.00  0.00    +0.046 A 
ATOM     32  C   UNL     1      -3.969  -0.412   0.176  0.00  0.00    +0.007 A 
ATOM     33  C   UNL     1      -3.930  -1.794   0.147  0.00  0.00    -0.047 A 
ATOM     34  C   UNL     1      -2.715  -2.454   0.145  0.00  0.00    +0.007 A 
ATOM     35  C   UNL     1      -1.537  -1.733   0.165  0.00  0.00    +0.046 A 
BRANCH  30  37
ATOM     36  C   UNL     1      -0.529   1.788   0.261  0.00  0.00    +0.277 C 
ATOM     37  O   UNL     1      -0.415   0.364   0.226  0.00  0.00    -0.495 OA
ENDBRANCH  30  37
ENDBRANCH  29  33
ENDBRANCH  28  29
ENDBRANCH   1  28
TORSDOF 7
