REMARK  Name = ZINC36017300
REMARK  16 active torsions:
REMARK  status: ('A' for Active; 'I' for Inactive)
REMARK    1  A    between atoms: C_1  and  C_2
REMARK    2  A    between atoms: C_2  and  N_3
REMARK    3  A    between atoms: N_9  and  C_14
REMARK    4  A    between atoms: C_11  and  C_13
REMARK    5  A    between atoms: C_14  and  C_15
REMARK    6  A    between atoms: C_16  and  C_35
REMARK    7  A    between atoms: C_17  and  C_25
REMARK    8  A    between atoms: N_22  and  C_23
REMARK    9  A    between atoms: C_23  and  C_24
REMARK   10  A    between atoms: C_29  and  O_33
REMARK   11  A    between atoms: C_30  and  O_31
REMARK   12  A    between atoms: O_31  and  C_32
REMARK   13  A    between atoms: O_33  and  C_34
REMARK   14  A    between atoms: C_35  and  O_37
REMARK   15  A    between atoms: O_37  and  C_38
REMARK   16  A    between atoms: C_38  and  C_39
REMARK                            x       y       z     vdW  Elec       q    Type
REMARK                         _______ _______ _______ _____ _____    ______ ____
ROOT
ATOM      1  C   UNL     1       5.485  -2.743   6.018  0.00  0.00    +0.041 C 
ATOM      2  C   UNL     1       6.044  -3.179   7.167  0.00  0.00    +0.080 C 
ATOM      3  C   UNL     1       6.220  -2.178   8.291  0.00  0.00    +0.147 C 
ATOM      4  N   UNL     1       5.763  -0.801   8.036  0.00  0.00    -0.288 N 
ATOM      5  C   UNL     1       5.224  -0.517   6.834  0.00  0.00    +0.307 C 
ATOM      6  O   UNL     1       4.844   0.616   6.613  0.00  0.00    -0.252 OA
ATOM      7  N   UNL     1       5.098  -1.441   5.873  0.00  0.00    -0.258 N 
ATOM      8  H   UNL     1       5.849  -0.116   8.716  0.00  0.00    +0.151 HD
ENDROOT
BRANCH   3   9
ATOM      9  C   UNL     1       5.477  -2.697   9.496  0.00  0.00    +0.023 A 
ATOM     10  C   UNL     1       4.101  -2.586   9.560  0.00  0.00    +0.009 A 
ATOM     11  C   UNL     1       3.417  -3.060  10.663  0.00  0.00    +0.004 A 
ATOM     12  C   UNL     1       4.106  -3.648  11.708  0.00  0.00    +0.049 A 
ATOM     13  C   UNL     1       5.486  -3.762  11.650  0.00  0.00    +0.162 A 
ATOM     14  C   UNL     1       6.174  -3.289  10.536  0.00  0.00    +0.167 A 
BRANCH  14  15
ATOM     15  O   UNL     1       7.527  -3.404  10.472  0.00  0.00    -0.491 OA
ATOM     16  C   UNL     1       8.296  -2.324  11.006  0.00  0.00    +0.277 C 
ENDBRANCH  14  15
BRANCH  13  17
ATOM     17  O   UNL     1       6.165  -4.339  12.677  0.00  0.00    -0.491 OA
ATOM     18  C   UNL     1       5.393  -4.807  13.784  0.00  0.00    +0.277 C 
ENDBRANCH  13  17
ENDBRANCH   3   9
BRANCH   7  19
ATOM     19  C   UNL     1       4.504  -1.035   4.597  0.00  0.00    +0.111 C 
ATOM     20  C   UNL     1       2.982  -1.166   4.677  0.00  0.00    +0.025 C 
ENDBRANCH   7  19
BRANCH   2  21
ATOM     21  C   UNL     1       6.451  -4.526   7.317  0.00  0.00    +0.339 C 
ATOM     22  O   UNL     1       6.416  -5.281   6.364  0.00  0.00    -0.245 OA
BRANCH  21  23
ATOM     23  O   UNL     1       6.879  -4.972   8.517  0.00  0.00    -0.462 OA
BRANCH  23  24
ATOM     24  C   UNL     1       7.274  -6.342   8.596  0.00  0.00    +0.229 C 
ATOM     25  C   UNL     1       7.725  -6.662  10.023  0.00  0.00    +0.048 C 
ENDBRANCH  23  24
ENDBRANCH  21  23
ENDBRANCH   2  21
BRANCH   1  26
ATOM     26  C   UNL     1       5.293  -3.705   4.875  0.00  0.00    +0.136 C 
BRANCH  26  33
ATOM     27  N   UNL     1      10.451  -5.548   2.141  0.00  0.00    -0.299 N 
ATOM     28  C   UNL     1       9.344  -5.073   1.535  0.00  0.00    +0.303 C 
ATOM     29  O   UNL     1       9.118  -5.355   0.374  0.00  0.00    -0.253 OA
ATOM     30  N   UNL     1       8.487  -4.287   2.216  0.00  0.00    -0.280 N 
ATOM     31  C   UNL     1       8.820  -3.798   3.563  0.00  0.00    +0.125 C 
ATOM     32  C   UNL     1       7.649  -4.117   4.499  0.00  0.00    +0.104 C 
ATOM     33  N   UNL     1       6.409  -3.573   3.929  0.00  0.00    -0.294 NA
ATOM     34  C   UNL     1       6.089  -4.209   2.644  0.00  0.00    +0.107 C 
ATOM     35  C   UNL     1       7.198  -3.889   1.630  0.00  0.00    +0.088 C 
ATOM     36  C   UNL     1       6.957  -4.673   0.338  0.00  0.00    +0.029 C 
ATOM     37  H   UNL     1      10.671  -5.261   3.041  0.00  0.00    +0.150 HD
BRANCH  27  39
ATOM     38  C   UNL     1      12.496  -6.873   2.343  0.00  0.00    +0.024 C 
ATOM     39  C   UNL     1      11.320  -6.496   1.440  0.00  0.00    +0.102 C 
ENDBRANCH  27  39
ENDBRANCH  26  33
ENDBRANCH   1  26
TORSDOF 10
