REMARK  Name = ZINC39696208
REMARK  10 active torsions:
REMARK  status: ('A' for Active; 'I' for Inactive)
REMARK    1  A    between atoms: C_1  and  C_2
REMARK    2  A    between atoms: C_2  and  C_3
REMARK    3  A    between atoms: C_6  and  C_9
REMARK    4  A    between atoms: C_9  and  C_11
REMARK    5  A    between atoms: C_9  and  N_12
REMARK    6  A    between atoms: C_13  and  C_15
REMARK    7  A    between atoms: C_26  and  C_28
REMARK    8  A    between atoms: C_30  and  C_35
REMARK    9  A    between atoms: N_32  and  C_33
REMARK   10  A    between atoms: C_33  and  C_34
REMARK                            x       y       z     vdW  Elec       q    Type
REMARK                         _______ _______ _______ _____ _____    ______ ____
ROOT
ATOM      1  C   UNL     1      -6.764  -5.177  -2.087  0.00  0.00    +0.100 C 
ATOM      2  C   UNL     1      -5.542  -6.122  -2.100  0.00  0.00    +0.121 C 
ATOM      3  N   UNL     1      -5.888  -7.194  -1.137  0.00  0.00    -0.295 N 
ATOM      4  C   UNL     1      -7.330  -7.449  -1.371  0.00  0.00    +0.115 C 
ATOM      5  C   UNL     1      -7.936  -6.052  -1.611  0.00  0.00    -0.004 C 
ATOM      6  C   UNL     1      -9.014  -6.122  -2.688  0.00  0.00    -0.010 C 
ATOM      7  C   UNL     1     -10.194  -6.949  -2.170  0.00  0.00    -0.082 C 
ATOM      8  N   UNL     1     -10.730  -6.330  -0.952  0.00  0.00    +0.379 N 
ATOM      9  C   UNL     1      -9.716  -6.351   0.109  0.00  0.00    -0.082 C 
ATOM     10  C   UNL     1      -8.516  -5.498  -0.313  0.00  0.00    -0.010 C 
ATOM     11  C   UNL     1      -5.075  -7.801  -0.249  0.00  0.00    +0.266 C 
ATOM     12  O   UNL     1      -5.489  -8.731   0.417  0.00  0.00    -0.268 OA
ATOM     13  H   UNL     1     -10.991  -5.375  -1.148  0.00  0.00    -0.086 HD
ATOM     14  H   UNL     1     -11.545  -6.842  -0.646  0.00  0.00    -0.086 HD
ENDROOT
BRANCH  11  15
ATOM     15  C   UNL     1      -3.689  -7.338  -0.086  0.00  0.00    +0.138 A 
ATOM     16  C   UNL     1      -3.221  -6.426   0.845  0.00  0.00    +0.071 A 
ATOM     17  C   UNL     1      -1.849  -6.319   0.600  0.00  0.00    +0.075 A 
ATOM     18  N   UNL     1      -1.556  -7.113  -0.397  0.00  0.00    -0.175 NA
ATOM     19  N   UNL     1      -2.602  -7.728  -0.818  0.00  0.00    -0.258 N 
ATOM     20  C   UNL     1      -0.879  -5.444   1.352  0.00  0.00    +0.069 C 
ATOM     21 BR   UNL     1      -4.225  -5.517   2.165  0.00  0.00    -0.046 Br
BRANCH  19  22
ATOM     22  C   UNL     1      -2.628  -8.694  -1.919  0.00  0.00    +0.141 C 
ATOM     23  C   UNL     1      -2.735  -7.949  -3.250  0.00  0.00    +0.029 C 
ENDBRANCH  19  22
ENDBRANCH  11  15
BRANCH   1  25
ATOM     24  N   UNL     1      -7.236  -2.894  -1.259  0.00  0.00    -0.308 N 
ATOM     25  C   UNL     1      -6.536  -4.038  -1.126  0.00  0.00    +0.219 C 
ATOM     26  O   UNL     1      -5.723  -4.151  -0.233  0.00  0.00    -0.275 OA
ATOM     27  H   UNL     1      -7.833  -2.776  -2.014  0.00  0.00    +0.149 HD
BRANCH  24  28
ATOM     28  C   UNL     1      -7.094  -1.829  -0.263  0.00  0.00    +0.100 C 
ATOM     29  C   UNL     1      -8.039  -2.098   0.910  0.00  0.00    +0.033 C 
BRANCH  28  33
ATOM     30  C   UNL     1      -8.072   1.927  -2.048  0.00  0.00    -0.048 A 
ATOM     31  C   UNL     1      -7.010   1.836  -1.167  0.00  0.00    +0.004 A 
ATOM     32  C   UNL     1      -6.694   0.621  -0.590  0.00  0.00    +0.006 A 
ATOM     33  C   UNL     1      -7.439  -0.504  -0.892  0.00  0.00    -0.027 A 
ATOM     34  C   UNL     1      -8.502  -0.412  -1.772  0.00  0.00    +0.006 A 
ATOM     35  C   UNL     1      -8.821   0.804  -2.346  0.00  0.00    +0.004 A 
BRANCH  30  37
ATOM     36  C   UNL     1      -9.415   3.995  -1.788  0.00  0.00    +0.009 C 
ATOM     37  C   UNL     1      -8.417   3.252  -2.678  0.00  0.00    +0.032 C 
ENDBRANCH  30  37
ENDBRANCH  28  33
ENDBRANCH  24  28
ENDBRANCH   1  25
TORSDOF 6
