REMARK  Name = ZINC39573300
REMARK  8 active torsions:
REMARK  status: ('A' for Active; 'I' for Inactive)
REMARK    1  A    between atoms: C_1  and  C_2
REMARK    2  A    between atoms: C_2  and  C_4
REMARK    3  A    between atoms: C_2  and  S_16
REMARK    4  A    between atoms: N_9  and  C_10
REMARK    5  A    between atoms: S_16  and  C_17
REMARK    6  A    between atoms: C_20  and  C_28
REMARK    7  A    between atoms: N_21  and  C_22
REMARK    8  A    between atoms: C_28  and  N_29
REMARK                            x       y       z     vdW  Elec       q    Type
REMARK                         _______ _______ _______ _____ _____    ______ ____
ROOT
ATOM      1  C   UNL     1      -2.365  -0.093  -1.525  0.00  0.00    +0.197 A 
ATOM      2  N   UNL     1      -1.736   0.598  -2.448  0.00  0.00    -0.122 NA
ATOM      3  N   UNL     1      -2.522   0.817  -3.442  0.00  0.00    -0.135 NA
ATOM      4  C   UNL     1      -3.689   0.285  -3.216  0.00  0.00    +0.122 A 
ATOM      5  N   UNL     1      -3.631  -0.321  -1.989  0.00  0.00    -0.276 N 
ENDROOT
BRANCH   5   6
ATOM      6  C   UNL     1      -4.657  -1.024  -1.341  0.00  0.00    +0.050 A 
ATOM      7  C   UNL     1      -5.133  -2.212  -1.879  0.00  0.00    +0.026 A 
ATOM      8  C   UNL     1      -6.143  -2.903  -1.239  0.00  0.00    +0.002 A 
ATOM      9  C   UNL     1      -6.681  -2.412  -0.064  0.00  0.00    +0.000 A 
ATOM     10  C   UNL     1      -6.209  -1.229   0.475  0.00  0.00    +0.002 A 
ATOM     11  C   UNL     1      -5.195  -0.537  -0.158  0.00  0.00    +0.026 A 
ENDBRANCH   5   6
BRANCH   1  12
ATOM     12  S   UNL     1      -1.700  -0.632   0.015  0.00  0.00    -0.073 S 
BRANCH  12  14
ATOM     13  C   UNL     1      -0.019   1.526   0.010  0.00  0.00    +0.029 C 
ATOM     14  C   UNL     1       0.002  -0.004   0.002  0.00  0.00    +0.137 C 
BRANCH  14  15
ATOM     15  C   UNL     1       0.731  -0.503   1.223  0.00  0.00    +0.233 C 
ATOM     16  O   UNL     1       0.105  -0.891   2.186  0.00  0.00    -0.274 OA
ATOM     17  N   UNL     1       2.079  -0.519   1.244  0.00  0.00    -0.239 N 
ATOM     18  C   UNL     1       2.730  -0.965   2.336  0.00  0.00    +0.306 C 
ATOM     19  O   UNL     1       2.103  -1.354   3.301  0.00  0.00    -0.252 OA
ATOM     20  N   UNL     1       4.078  -0.981   2.357  0.00  0.00    -0.296 N 
ATOM     21  H   UNL     1       2.579  -0.208   0.473  0.00  0.00    +0.159 HD
ATOM     22  H   UNL     1       4.579  -0.670   1.586  0.00  0.00    +0.151 HD
BRANCH  20  23
ATOM     23  C   UNL     1       4.786  -1.466   3.544  0.00  0.00    +0.074 C 
ATOM     24  C   UNL     1       4.916  -2.989   3.473  0.00  0.00    +0.022 C 
ATOM     25  C   UNL     1       5.656  -3.495   4.713  0.00  0.00    +0.002 C 
ATOM     26  C   UNL     1       7.050  -2.867   4.767  0.00  0.00    +0.000 C 
ATOM     27  C   UNL     1       6.920  -1.344   4.838  0.00  0.00    +0.002 C 
ATOM     28  C   UNL     1       6.180  -0.837   3.598  0.00  0.00    +0.022 C 
ENDBRANCH  20  23
ENDBRANCH  14  15
ENDBRANCH  12  14
ENDBRANCH   1  12
BRANCH   4  29
ATOM     29  C   UNL     1      -4.881   0.323  -4.138  0.00  0.00    -0.001 C 
BRANCH  29  30
ATOM     30  N   UNL     1      -4.847  -0.843  -5.032  0.00  0.00    +0.384 N 
ATOM     31  C   UNL     1      -3.669  -0.755  -5.903  0.00  0.00    -0.078 C 
ATOM     32  C   UNL     1      -3.583  -2.006  -6.779  0.00  0.00    -0.019 C 
ATOM     33  C   UNL     1      -4.848  -2.109  -7.637  0.00  0.00    -0.004 C 
ATOM     34  C   UNL     1      -6.074  -2.125  -6.721  0.00  0.00    -0.019 C 
ATOM     35  C   UNL     1      -6.067  -0.869  -5.846  0.00  0.00    -0.078 C 
ATOM     36  H   UNL     1      -4.793  -1.686  -4.481  0.00  0.00    -0.081 HD
ENDBRANCH  29  30
ENDBRANCH   4  29
TORSDOF 7
