REMARK  Name = ZINC67540226
REMARK  6 active torsions:
REMARK  status: ('A' for Active; 'I' for Inactive)
REMARK    1  A    between atoms: C_1  and  C_2
REMARK    2  A    between atoms: C_2  and  N_3
REMARK    3  A    between atoms: C_7  and  C_8
REMARK    4  A    between atoms: C_8  and  N_9
REMARK    5  A    between atoms: C_18  and  C_20
REMARK    6  A    between atoms: C_25  and  C_26
REMARK                            x       y       z     vdW  Elec       q    Type
REMARK                         _______ _______ _______ _____ _____    ______ ____
ROOT
ATOM      1  N   UNL     1       3.304   1.001  -1.215  0.00  0.00    -0.283 NA
ATOM      2  C   UNL     1       2.004   1.584  -0.856  0.00  0.00    +0.092 C 
ATOM      3  C   UNL     1       2.157   3.098  -0.653  0.00  0.00    +0.070 C 
ATOM      4  C   UNL     1       3.338   3.325   0.255  0.00  0.00    +0.039 A 
ATOM      5  C   UNL     1       4.267   2.379   0.521  0.00  0.00    +0.058 A 
ATOM      6  N   UNL     1       5.164   2.907   1.355  0.00  0.00    -0.348 N 
ATOM      7  C   UNL     1       4.830   4.145   1.616  0.00  0.00    +0.171 A 
ATOM      8  N   UNL     1       3.692   4.441   0.944  0.00  0.00    -0.349 N 
ATOM      9  H   UNL     1       3.221   5.288   0.953  0.00  0.00    +0.166 HD
ATOM     10  C   UNL     1       4.227   0.991  -0.067  0.00  0.00    +0.140 C 
ATOM     11  H   UNL     1       5.940   2.447   1.711  0.00  0.00    +0.166 HD
ENDROOT
BRANCH  10  12
ATOM     12  C   UNL     1       5.606   0.593  -0.527  0.00  0.00    +0.021 A 
ATOM     13  C   UNL     1       6.189   0.951  -1.692  0.00  0.00    +0.111 A 
ATOM     14  N   UNL     1       7.419   0.394  -1.730  0.00  0.00    -0.284 N 
ATOM     15  H   UNL     1       8.062   0.484  -2.450  0.00  0.00    +0.188 HD
ATOM     16  N   UNL     1       7.605  -0.333  -0.547  0.00  0.00    -0.174 NA
ATOM     17  C   UNL     1       6.517  -0.211   0.184  0.00  0.00    +0.098 A 
BRANCH  17  18
ATOM     18  C   UNL     1       6.290  -0.818   1.519  0.00  0.00    +0.002 A 
ATOM     19  C   UNL     1       5.679  -0.077   2.529  0.00  0.00    +0.010 A 
ATOM     20  C   UNL     1       5.470  -0.645   3.769  0.00  0.00    +0.001 A 
ATOM     21  C   UNL     1       5.866  -1.949   4.010  0.00  0.00    +0.000 A 
ATOM     22  C   UNL     1       6.473  -2.689   3.012  0.00  0.00    +0.001 A 
ATOM     23  C   UNL     1       6.682  -2.132   1.766  0.00  0.00    +0.010 A 
ENDBRANCH  17  18
ENDBRANCH  10  12
BRANCH   1  24
ATOM     24  C   UNL     1       3.141  -0.348  -1.772  0.00  0.00    +0.157 C 
BRANCH  24  29
ATOM     25  N   UNL     1       1.839  -1.232  -3.770  0.00  0.00    -0.335 N 
ATOM     26  C   UNL     1       1.458  -0.744  -4.990  0.00  0.00    +0.104 A 
ATOM     27  C   UNL     1       1.935   0.513  -5.074  0.00  0.00    +0.101 A 
ATOM     28  N   UNL     1       2.590   0.785  -3.935  0.00  0.00    -0.349 N 
ATOM     29  C   UNL     1       2.532  -0.254  -3.147  0.00  0.00    +0.101 A 
ATOM     30  H   UNL     1       3.033   1.622  -3.728  0.00  0.00    +0.166 HD
BRANCH  25  32
ATOM     31  C   UNL     1       0.361  -2.477  -2.271  0.00  0.00    +0.027 C 
ATOM     32  C   UNL     1       1.545  -2.564  -3.236  0.00  0.00    +0.119 C 
ENDBRANCH  25  32
ENDBRANCH  24  29
ENDBRANCH   1  24
TORSDOF 5
