REMARK  Name = ZINC22575973
REMARK  5 active torsions:
REMARK  status: ('A' for Active; 'I' for Inactive)
REMARK    1  A    between atoms: C_8  and  N_17
REMARK    2  A    between atoms: N_20  and  C_23
REMARK    3  A    between atoms: C_23  and  C_24
REMARK    4  A    between atoms: C_24  and  C_25
REMARK    5  A    between atoms: C_25  and  N_26
REMARK                            x       y       z     vdW  Elec       q    Type
REMARK                         _______ _______ _______ _____ _____    ______ ____
ROOT
ATOM      1  N   UNL     1      -0.168   3.916  -0.916  0.00  0.00    -0.299 NA
ATOM      2  C   UNL     1      -0.625   5.306  -0.781  0.00  0.00    +0.066 C 
ATOM      3  C   UNL     1      -1.660   5.608  -1.867  0.00  0.00    -0.063 C 
ATOM      4  N   UNL     1      -2.786   4.673  -1.741  0.00  0.00    +0.381 N 
ATOM      5  C   UNL     1      -2.329   3.282  -1.876  0.00  0.00    -0.063 C 
ATOM      6  C   UNL     1      -1.294   2.980  -0.790  0.00  0.00    +0.066 C 
ATOM      7  H   UNL     1      -3.216   4.793  -0.736  0.00  0.00    -0.082 HD
ENDROOT
BRANCH   1  15
ATOM      8  C   UNL     1       1.565   1.649   4.137  0.00  0.00    +0.000 A 
ATOM      9  C   UNL     1       2.783   2.213   4.473  0.00  0.00    +0.001 A 
ATOM     10  C   UNL     1       3.201   3.372   3.845  0.00  0.00    +0.015 A 
ATOM     11  C   UNL     1       2.386   3.948   2.877  0.00  0.00    +0.016 A 
ATOM     12  C   UNL     1       1.195   3.383   2.524  0.00  0.00    -0.032 A 
ATOM     13  C   UNL     1       0.768   2.228   3.167  0.00  0.00    +0.005 A 
ATOM     14  C   UNL     1       0.366   3.956   1.422  0.00  0.00    +0.060 C 
ATOM     15  C   UNL     1       0.883   3.610   0.063  0.00  0.00    +0.092 C 
ATOM     16  C   UNL     1       2.143   4.307  -0.371  0.00  0.00    -0.016 A 
ATOM     17  C   UNL     1       2.412   4.120  -1.736  0.00  0.00    +0.006 A 
ATOM     18  C   UNL     1       3.533   4.633  -2.338  0.00  0.00    +0.000 A 
ATOM     19  C   UNL     1       4.434   5.365  -1.584  0.00  0.00    +0.001 A 
ATOM     20  C   UNL     1       4.177   5.568  -0.252  0.00  0.00    +0.015 A 
ATOM     21  C   UNL     1       3.028   5.047   0.370  0.00  0.00    +0.017 A 
ATOM     22  S   UNL     1       2.868   5.437   2.075  0.00  0.00    -0.089 S 
ENDBRANCH   1  15
BRANCH   4  23
ATOM     23  C   UNL     1      -3.837   4.979  -2.720  0.00  0.00    -0.077 C 
BRANCH  23  24
ATOM     24  C   UNL     1      -4.459   6.338  -2.392  0.00  0.00    +0.003 C 
BRANCH  24  25
ATOM     25  C   UNL     1      -5.554   6.657  -3.412  0.00  0.00    +0.125 C 
BRANCH  25  26
ATOM     26  N   UNL     1      -6.149   7.958  -3.098  0.00  0.00    -0.292 N 
ATOM     27  C   UNL     1      -7.247   8.174  -2.268  0.00  0.00    +0.070 A 
ATOM     28  C   UNL     1      -8.065   7.328  -1.534  0.00  0.00    +0.028 A 
ATOM     29  C   UNL     1      -9.101   7.853  -0.786  0.00  0.00    +0.002 A 
ATOM     30  C   UNL     1      -9.327   9.218  -0.768  0.00  0.00    +0.002 A 
ATOM     31  C   UNL     1      -8.513  10.069  -1.489  0.00  0.00    +0.028 A 
ATOM     32  C   UNL     1      -7.473   9.551  -2.246  0.00  0.00    +0.067 A 
ATOM     33  N   UNL     1      -6.511  10.130  -3.071  0.00  0.00    -0.306 N 
ATOM     34  H   UNL     1      -6.493  11.220  -3.215  0.00  0.00    +0.170 HD
ATOM     35  C   UNL     1      -5.733   9.149  -3.567  0.00  0.00    +0.328 A 
ATOM     36  O   UNL     1      -4.795   9.315  -4.325  0.00  0.00    -0.247 OA
ENDBRANCH  25  26
ENDBRANCH  24  25
ENDBRANCH  23  24
ENDBRANCH   4  23
TORSDOF 5
