REMARK  Name = ZINC20220474
REMARK  11 active torsions:
REMARK  status: ('A' for Active; 'I' for Inactive)
REMARK    1  A    between atoms: C_1  and  O_2
REMARK    2  A    between atoms: O_2  and  C_3
REMARK    3  A    between atoms: C_3  and  C_5
REMARK    4  A    between atoms: C_5  and  C_6
REMARK    5  A    between atoms: C_7  and  C_27
REMARK    6  A    between atoms: C_16  and  N_22
REMARK    7  A    between atoms: C_17  and  C_18
REMARK    8  A    between atoms: C_18  and  O_20
REMARK    9  A    between atoms: O_20  and  C_21
REMARK   10  A    between atoms: C_27  and  O_29
REMARK   11  A    between atoms: O_29  and  C_30
REMARK                            x       y       z     vdW  Elec       q    Type
REMARK                         _______ _______ _______ _____ _____    ______ ____
ROOT
ATOM      1  C   UNL     1      -1.027   1.148  -1.640  0.00  0.00    +0.131 C 
ATOM      2  C   UNL     1      -0.568   2.319  -2.112  0.00  0.00    +0.101 C 
ATOM      3  C   UNL     1      -1.526   2.719  -3.214  0.00  0.00    +0.164 C 
ATOM      4  C   UNL     1      -2.199   4.014  -2.864  0.00  0.00    +0.001 A 
ATOM      5  C   UNL     1      -3.169   4.038  -1.878  0.00  0.00    +0.022 A 
ATOM      6  C   UNL     1      -3.794   5.225  -1.544  0.00  0.00    +0.018 A 
ATOM      7  C   UNL     1      -3.452   6.397  -2.195  0.00  0.00    +0.017 A 
ATOM      8  C   UNL     1      -2.487   6.381  -3.181  0.00  0.00    +0.024 A 
ATOM      9  C   UNL     1      -1.859   5.189  -3.520  0.00  0.00    +0.037 A 
ATOM     10  N   UNL     1      -0.884   5.179  -4.522  0.00  0.00    -0.302 N 
ATOM     11  C   UNL     1      -0.521   4.001  -5.119  0.00  0.00    +0.097 C 
ATOM     12  C   UNL     1      -0.813   2.797  -4.528  0.00  0.00    +0.098 C 
ATOM     13 BR   UNL     1      -5.119   5.247  -0.194  0.00  0.00    -0.050 Br
ATOM     14  C   UNL     1      -2.535   1.591  -3.226  0.00  0.00    +0.332 C 
ATOM     15  O   UNL     1      -3.497   1.480  -3.948  0.00  0.00    -0.249 OA
ATOM     16  O   UNL     1      -2.138   0.738  -2.266  0.00  0.00    -0.428 OA
ATOM     17  H   UNL     1      -0.406   6.119  -4.834  0.00  0.00    +0.153 HD
ENDROOT
BRANCH  11  18
ATOM     18  N   UNL     1       0.142   4.025  -6.319  0.00  0.00    -0.346 N 
ATOM     19  H   UNL     1       0.436   3.082  -6.803  0.00  0.00    +0.143 HD
ATOM     20  H   UNL     1       0.379   4.986  -6.797  0.00  0.00    +0.143 HD
ENDBRANCH  11  18
BRANCH  12  21
ATOM     21  C   UNL     1      -0.434   1.612  -5.170  0.00  0.00    +0.340 C 
ATOM     22  O   UNL     1       0.042   1.651  -6.291  0.00  0.00    -0.245 OA
BRANCH  21  23
ATOM     23  O   UNL     1      -0.596   0.424  -4.547  0.00  0.00    -0.465 OA
ATOM     24  C   UNL     1      -0.188  -0.744  -5.261  0.00  0.00    +0.280 C 
ENDBRANCH  21  23
ENDBRANCH  12  21
BRANCH   2  25
ATOM     25  C   UNL     1       0.575   3.032  -1.671  0.00  0.00    +0.340 C 
ATOM     26  O   UNL     1       1.260   2.586  -0.770  0.00  0.00    -0.245 OA
BRANCH  25  27
ATOM     27  O   UNL     1       0.905   4.204  -2.251  0.00  0.00    -0.465 OA
ATOM     28  C   UNL     1       2.070   4.868  -1.757  0.00  0.00    +0.280 C 
ENDBRANCH  25  27
ENDBRANCH   2  25
BRANCH   1  29
ATOM     29  C   UNL     1      -0.366   0.381  -0.524  0.00  0.00    +0.195 C 
BRANCH  29  30
ATOM     30  C   UNL     1      -1.023   0.734   0.786  0.00  0.00    +0.314 C 
ATOM     31  O   UNL     1      -1.934   1.527   0.810  0.00  0.00    -0.250 OA
BRANCH  30  33
ATOM     32  C   UNL     1      -1.275   0.554   3.149  0.00  0.00    +0.280 C 
ATOM     33  O   UNL     1      -0.596   0.167   1.925  0.00  0.00    -0.468 OA
ENDBRANCH  30  33
ENDBRANCH  29  30
ENDBRANCH   1  29
TORSDOF 8
