REMARK  Name = ZINC39665246
REMARK  12 active torsions:
REMARK  status: ('A' for Active; 'I' for Inactive)
REMARK    1  A    between atoms: C_1  and  C_2
REMARK    2  A    between atoms: C_7  and  N_12
REMARK    3  A    between atoms: C_9  and  C_11
REMARK    4  A    between atoms: C_13  and  C_15
REMARK    5  A    between atoms: C_15  and  S_16
REMARK    6  A    between atoms: S_16  and  C_17
REMARK    7  A    between atoms: C_20  and  C_30
REMARK    8  A    between atoms: N_21  and  C_22
REMARK    9  A    between atoms: C_22  and  C_24
REMARK   10  A    between atoms: C_22  and  C_27
REMARK   11  A    between atoms: C_24  and  C_25
REMARK   12  A    between atoms: C_24  and  C_26
REMARK                            x       y       z     vdW  Elec       q    Type
REMARK                         _______ _______ _______ _____ _____    ______ ____
ROOT
ATOM      1  C   UNL     1       2.296  -6.363   5.962  0.00  0.00    +0.193 A 
ATOM      2  N   UNL     1       3.189  -5.614   6.568  0.00  0.00    -0.122 NA
ATOM      3  N   UNL     1       3.679  -6.239   7.578  0.00  0.00    -0.128 NA
ATOM      4  C   UNL     1       3.130  -7.429   7.679  0.00  0.00    +0.172 A 
ATOM      5  N   UNL     1       2.222  -7.543   6.650  0.00  0.00    -0.287 N 
ENDROOT
BRANCH   4   6
ATOM      6  C   UNL     1       3.424  -8.445   8.703  0.00  0.00    +0.056 A 
ATOM      7  C   UNL     1       4.082  -8.302   9.898  0.00  0.00    +0.019 A 
ATOM      8  C   UNL     1       4.239  -9.409  10.702  0.00  0.00    +0.008 A 
ATOM      9  C   UNL     1       3.741 -10.604  10.289  0.00  0.00    +0.046 A 
ATOM     10  S   UNL     1       3.012 -10.182   8.715  0.00  0.00    -0.094 S 
ENDBRANCH   4   6
BRANCH   1  11
ATOM     11  S   UNL     1       1.363  -5.927   4.532  0.00  0.00    -0.077 S 
BRANCH  11  12
ATOM     12  C   UNL     1       1.936  -4.254   4.128  0.00  0.00    +0.173 C 
BRANCH  12  14
ATOM     13  N   UNL     1       1.471  -2.526   2.420  0.00  0.00    -0.312 N 
ATOM     14  C   UNL     1       1.207  -3.754   2.907  0.00  0.00    +0.224 C 
ATOM     15  O   UNL     1       0.382  -4.458   2.364  0.00  0.00    -0.275 OA
ATOM     16  H   UNL     1       2.131  -1.963   2.855  0.00  0.00    +0.149 HD
BRANCH  13  22
ATOM     17  C   UNL     1      -0.019   1.526   0.010  0.00  0.00    +0.008 C 
ATOM     18  C   UNL     1       0.002  -0.004   0.002  0.00  0.00    -0.009 C 
ATOM     19  C   UNL     1       0.718  -0.497  -1.257  0.00  0.00    +0.003 C 
ATOM     20  C   UNL     1       0.739  -2.027  -1.265  0.00  0.00    +0.002 C 
ATOM     21  C   UNL     1       1.479  -2.534  -0.026  0.00  0.00    +0.022 C 
ATOM     22  C   UNL     1       0.763  -2.041   1.233  0.00  0.00    +0.076 C 
ATOM     23  C   UNL     1       0.742  -0.511   1.242  0.00  0.00    +0.009 C 
ATOM     24  C   UNL     1       0.026  -0.018   2.500  0.00  0.00    +0.009 C 
ENDBRANCH  13  22
ENDBRANCH  12  14
ENDBRANCH  11  12
ENDBRANCH   1  11
BRANCH   5  25
ATOM     25  C   UNL     1       1.359  -8.688   6.352  0.00  0.00    +0.206 C 
BRANCH  25  26
ATOM     26  C   UNL     1      -0.106  -8.252   6.412  0.00  0.00    +0.017 C 
ATOM     27  C   UNL     1      -1.007  -9.449   6.101  0.00  0.00    +0.010 C 
ATOM     28  C   UNL     1      -0.425  -7.724   7.812  0.00  0.00    +0.010 C 
ENDBRANCH  25  26
BRANCH  25  29
ATOM     29  C   UNL     1       1.673  -9.209   4.973  0.00  0.00    +0.379 C 
ATOM     30  O   UNL     1       2.795  -9.610   4.713  0.00  0.00    -0.244 OA
ATOM     31  O   UNL     1       0.805  -9.229   4.117  0.00  0.00    -0.244 OA
ENDBRANCH  25  29
ENDBRANCH   5  25
TORSDOF 8
