REMARK  Name = ZINC09044503
REMARK  4 active torsions:
REMARK  status: ('A' for Active; 'I' for Inactive)
REMARK    1  A    between atoms: C_1  and  N_45
REMARK    2  A    between atoms: C_9  and  O_26
REMARK    3  A    between atoms: C_11  and  C_14
REMARK    4  A    between atoms: C_17  and  C_19
REMARK                            x       y       z     vdW  Elec       q    Type
REMARK                         _______ _______ _______ _____ _____    ______ ____
ROOT
ATOM      1  C   UNL     1       5.496  -5.042   8.282  0.00  0.00    -0.096 C 
ATOM      2  C   UNL     1       6.605  -3.892   6.461  0.00  0.00    -0.074 C 
ATOM      3  C   UNL     1       7.176  -4.099   5.056  0.00  0.00    +0.018 C 
ATOM      4  C   UNL     1       6.022  -4.429   4.116  0.00  0.00    -0.027 A 
ATOM      5  C   UNL     1       4.834  -4.840   4.623  0.00  0.00    -0.021 A 
ATOM      6  S   UNL     1       3.802  -5.102   3.207  0.00  0.00    -0.080 S 
ATOM      7  C   UNL     1       4.917  -4.676   1.981  0.00  0.00    +0.080 A 
ATOM      8  C   UNL     1       6.089  -4.335   2.671  0.00  0.00    +0.067 A 
ATOM      9  C   UNL     1       7.260  -3.920   1.854  0.00  0.00    +0.220 C 
ATOM     10  N   UNL     1       7.058  -3.668   0.590  0.00  0.00    -0.220 NA
ATOM     11  C   UNL     1       5.757  -3.700  -0.067  0.00  0.00    +0.260 C 
ATOM     12  N   UNL     1       4.830  -4.624   0.613  0.00  0.00    -0.311 N 
ATOM     13  C   UNL     1       4.500  -5.024   6.069  0.00  0.00    -0.036 C 
ATOM     14  H   UNL     1       4.193  -5.165   0.120  0.00  0.00    +0.149 HD
ATOM     15  N   UNL     1       5.773  -5.056   6.829  0.00  0.00    +0.381 N 
ATOM     16  H   UNL     1       6.281  -5.917   6.595  0.00  0.00    -0.082 HD
ENDROOT
BRANCH  11  17
ATOM     17  C   UNL     1       5.166  -2.314  -0.056  0.00  0.00    +0.148 A 
ATOM     18  C   UNL     1       5.865  -1.162  -0.057  0.00  0.00    +0.049 A 
ATOM     19  C   UNL     1       4.927  -0.110  -0.044  0.00  0.00    +0.050 A 
ATOM     20  C   UNL     1       3.695  -0.684  -0.035  0.00  0.00    +0.135 A 
ATOM     21  O   UNL     1       3.856  -2.022  -0.037  0.00  0.00    -0.456 OA
BRANCH  20  22
ATOM     22  C   UNL     1       2.404   0.034  -0.020  0.00  0.00    +0.017 A 
ATOM     23  C   UNL     1       1.204  -0.680  -0.013  0.00  0.00    +0.012 A 
ATOM     24  C   UNL     1       0.002  -0.004   0.002  0.00  0.00    +0.016 A 
ATOM     25  C   UNL     1      -0.017   1.380   0.010  0.00  0.00    +0.018 A 
ATOM     26  C   UNL     1       1.169   2.095   0.002  0.00  0.00    +0.016 A 
ATOM     27  C   UNL     1       2.378   1.430  -0.013  0.00  0.00    +0.012 A 
ATOM     28 BR   UNL     1      -1.669   2.299   0.022  0.00  0.00    -0.050 Br
ENDBRANCH  20  22
ENDBRANCH  11  17
BRANCH   9  29
ATOM     29  O   UNL     1       8.491  -3.808   2.403  0.00  0.00    -0.492 OA
ATOM     30  H   UNL     1       9.176  -3.531   1.779  0.00  0.00    +0.294 HD
ENDBRANCH   9  29
TORSDOF 3
