REMARK  Name = ZINC39658537
REMARK  9 active torsions:
REMARK  status: ('A' for Active; 'I' for Inactive)
REMARK    1  A    between atoms: C_4  and  C_7
REMARK    2  A    between atoms: C_7  and  S_8
REMARK    3  A    between atoms: S_8  and  C_9
REMARK    4  A    between atoms: C_9  and  C_10
REMARK    5  A    between atoms: C_10  and  N_11
REMARK    6  A    between atoms: C_12  and  C_14
REMARK    7  A    between atoms: C_25  and  C_27
REMARK    8  A    between atoms: C_27  and  O_28
REMARK    9  A    between atoms: O_28  and  C_29
REMARK                            x       y       z     vdW  Elec       q    Type
REMARK                         _______ _______ _______ _____ _____    ______ ____
ROOT
ATOM      1  C   UNL     1       9.681  -4.043   3.622  0.00  0.00    +0.100 C 
ATOM      2  C   UNL     1       9.442  -5.448   3.025  0.00  0.00    +0.121 C 
ATOM      3  N   UNL     1      10.420  -6.321   3.717  0.00  0.00    -0.297 N 
ATOM      4  C   UNL     1      10.421  -5.836   5.118  0.00  0.00    +0.115 C 
ATOM      5  C   UNL     1      10.323  -4.302   4.996  0.00  0.00    -0.004 C 
ATOM      6  C   UNL     1       9.440  -3.740   6.106  0.00  0.00    -0.010 C 
ATOM      7  C   UNL     1      10.126  -3.957   7.457  0.00  0.00    -0.082 C 
ATOM      8  N   UNL     1      11.433  -3.288   7.458  0.00  0.00    +0.379 N 
ATOM      9  C   UNL     1      12.308  -3.897   6.449  0.00  0.00    -0.082 C 
ATOM     10  C   UNL     1      11.714  -3.678   5.055  0.00  0.00    -0.010 C 
ATOM     11  C   UNL     1      11.146  -7.327   3.191  0.00  0.00    +0.253 C 
ATOM     12  O   UNL     1      11.911  -7.954   3.893  0.00  0.00    -0.272 OA
ATOM     13  H   UNL     1      11.308  -2.309   7.246  0.00  0.00    -0.086 HD
ATOM     14  H   UNL     1      11.856  -3.380   8.369  0.00  0.00    -0.086 HD
ENDROOT
BRANCH   1  16
ATOM     15  N   UNL     1       8.343  -1.966   3.724  0.00  0.00    -0.314 N 
ATOM     16  C   UNL     1       8.374  -3.312   3.783  0.00  0.00    +0.218 C 
ATOM     17  O   UNL     1       7.349  -3.934   3.967  0.00  0.00    -0.275 OA
ATOM     18  H   UNL     1       9.162  -1.468   3.577  0.00  0.00    +0.149 HD
BRANCH  15  19
ATOM     19  C   UNL     1       7.072  -1.254   3.880  0.00  0.00    +0.115 C 
BRANCH  19  20
ATOM     20  C   UNL     1       7.314   0.252   3.772  0.00  0.00    +0.088 C 
BRANCH  20  21
ATOM     21  S   UNL     1       5.739   1.133   3.966  0.00  0.00    -0.155 S 
BRANCH  21  22
ATOM     22  C   UNL     1       6.194   2.883   3.814  0.00  0.00    +0.104 C 
BRANCH  22  26
ATOM     23  C   UNL     1       2.699   5.304   4.222  0.00  0.00    +0.000 A 
ATOM     24  C   UNL     1       3.441   4.968   5.339  0.00  0.00    +0.000 A 
ATOM     25  C   UNL     1       4.572   4.184   5.207  0.00  0.00    +0.004 A 
ATOM     26  C   UNL     1       4.960   3.736   3.958  0.00  0.00    -0.038 A 
ATOM     27  C   UNL     1       4.218   4.072   2.842  0.00  0.00    +0.004 A 
ATOM     28  C   UNL     1       3.087   4.857   2.974  0.00  0.00    +0.000 A 
ENDBRANCH  22  26
ENDBRANCH  21  22
ENDBRANCH  20  21
ENDBRANCH  19  20
ENDBRANCH  15  19
ENDBRANCH   1  16
BRANCH  11  29
ATOM     29  C   UNL     1      11.006  -7.673   1.731  0.00  0.00    +0.324 C 
BRANCH  29  30
ATOM     30  O   UNL     1      11.872  -8.766   1.416  0.00  0.00    -0.483 OA
BRANCH  30  31
ATOM     31  C   UNL     1      11.868  -9.206   0.130  0.00  0.00    +0.123 A 
ATOM     32  C   UNL     1      11.051  -8.594  -0.811  0.00  0.00    +0.046 A 
ATOM     33  C   UNL     1      11.049  -9.041  -2.118  0.00  0.00    +0.005 A 
ATOM     34  C   UNL     1      11.858 -10.099  -2.489  0.00  0.00    +0.020 A 
ATOM     35  C   UNL     1      12.673 -10.711  -1.554  0.00  0.00    +0.044 A 
ATOM     36  C   UNL     1      12.683 -10.262  -0.246  0.00  0.00    +0.065 A 
ATOM     37 CL   UNL     1      13.688 -12.039  -2.023  0.00  0.00    -0.083 Cl
ENDBRANCH  30  31
ENDBRANCH  29  30
ENDBRANCH  11  29
TORSDOF 9
