REMARK  Name = ZINC19731509
REMARK  7 active torsions:
REMARK  status: ('A' for Active; 'I' for Inactive)
REMARK    1  A    between atoms: C_4  and  C_7
REMARK    2  A    between atoms: C_7  and  C_8
REMARK    3  A    between atoms: N_11  and  C_14
REMARK    4  A    between atoms: C_14  and  C_15
REMARK    5  A    between atoms: C_15  and  C_17
REMARK    6  A    between atoms: C_15  and  O_24
REMARK    7  A    between atoms: C_21  and  N_23
REMARK                            x       y       z     vdW  Elec       q    Type
REMARK                         _______ _______ _______ _____ _____    ______ ____
ROOT
ATOM      1  C   UNL     1      -1.606   9.847   2.058  0.00  0.00    -0.010 C 
ATOM      2  C   UNL     1      -0.575   9.260   3.027  0.00  0.00    -0.015 C 
ATOM      3  C   UNL     1      -0.610   7.733   2.938  0.00  0.00    -0.078 C 
ATOM      4  N   UNL     1      -0.310   7.314   1.563  0.00  0.00    +0.382 N 
ATOM      5  C   UNL     1      -1.313   7.826   0.621  0.00  0.00    -0.078 C 
ATOM      6  C   UNL     1      -1.299   9.356   0.640  0.00  0.00    -0.015 C 
ATOM      7  H   UNL     1       0.662   7.747   1.286  0.00  0.00    -0.082 HD
ENDROOT
BRANCH   1   8
ATOM      8  C   UNL     1      -1.534  11.375   2.099  0.00  0.00    +0.038 C 
BRANCH   8  12
ATOM      9  C   UNL     1      -4.639  13.011  -0.337  0.00  0.00    +0.000 A 
ATOM     10  C   UNL     1      -4.873  12.755   1.001  0.00  0.00    +0.000 A 
ATOM     11  C   UNL     1      -3.868  12.226   1.790  0.00  0.00    +0.003 A 
ATOM     12  C   UNL     1      -2.630  11.952   1.239  0.00  0.00    -0.047 A 
ATOM     13  C   UNL     1      -2.394  12.212  -0.098  0.00  0.00    +0.003 A 
ATOM     14  C   UNL     1      -3.401  12.738  -0.887  0.00  0.00    +0.000 A 
ENDBRANCH   8  12
ENDBRANCH   1   8
BRANCH   4  15
ATOM     15  C   UNL     1      -0.199   5.852   1.471  0.00  0.00    -0.042 C 
BRANCH  15  16
ATOM     16  C   UNL     1       1.020   5.382   2.267  0.00  0.00    +0.128 C 
BRANCH  16  17
ATOM     17  C   UNL     1       1.143   3.884   2.159  0.00  0.00    -0.019 A 
ATOM     18  C   UNL     1       1.798   3.321   1.079  0.00  0.00    +0.006 A 
ATOM     19  C   UNL     1       1.917   1.947   0.979  0.00  0.00    +0.002 A 
ATOM     20  C   UNL     1       1.375   1.132   1.953  0.00  0.00    +0.023 A 
ATOM     21  C   UNL     1       0.717   1.695   3.040  0.00  0.00    +0.025 A 
ATOM     22  C   UNL     1       0.603   3.076   3.140  0.00  0.00    +0.028 A 
BRANCH  21  23
ATOM     23  N   UNL     1       0.171   0.874   4.029  0.00  0.00    -0.358 N 
ATOM     24  H   UNL     1      -0.349   1.321   4.889  0.00  0.00    +0.142 HD
ATOM     25  H   UNL     1       0.262  -0.220   3.949  0.00  0.00    +0.142 HD
ENDBRANCH  21  23
ENDBRANCH  16  17
BRANCH  16  26
ATOM     26  O   UNL     1       2.199   5.996   1.741  0.00  0.00    -0.389 OA
ATOM     27  H   UNL     1       3.179   5.777   2.188  0.00  0.00    +0.210 HD
ENDBRANCH  16  26
ENDBRANCH  15  16
ENDBRANCH   4  15
TORSDOF 7
