REMARK  Name = ZINC19581514
REMARK  8 active torsions:
REMARK  status: ('A' for Active; 'I' for Inactive)
REMARK    1  A    between atoms: C_1  and  N_2
REMARK    2  A    between atoms: N_2  and  C_3
REMARK    3  A    between atoms: N_2  and  C_4
REMARK    4  A    between atoms: C_4  and  C_6
REMARK    5  A    between atoms: C_4  and  C_13
REMARK    6  A    between atoms: C_24  and  C_26
REMARK    7  A    between atoms: C_29  and  O_32
REMARK    8  A    between atoms: O_32  and  C_33
REMARK                            x       y       z     vdW  Elec       q    Type
REMARK                         _______ _______ _______ _____ _____    ______ ____
ROOT
ATOM      1  C   UNL     1       0.656  -5.272  -2.235  0.00  0.00    +0.238 C 
ATOM      2  O   UNL     1      -0.438  -5.065  -2.717  0.00  0.00    -0.273 OA
ATOM      3  N   UNL     1       0.890  -4.974  -0.942  0.00  0.00    -0.287 N 
ATOM      4  C   UNL     1       2.238  -5.112  -0.370  0.00  0.00    +0.115 C 
ATOM      5  C   UNL     1       2.215  -6.196   0.715  0.00  0.00    +0.074 C 
ATOM      6  C   UNL     1       1.002  -5.988   1.584  0.00  0.00    +0.040 A 
ATOM      7  C   UNL     1      -0.072  -5.243   1.244  0.00  0.00    +0.062 A 
ATOM      8  N   UNL     1      -0.948  -5.294   2.250  0.00  0.00    -0.348 N 
ATOM      9  C   UNL     1      -0.458  -6.041   3.206  0.00  0.00    +0.171 A 
ATOM     10  N   UNL     1       0.760  -6.491   2.826  0.00  0.00    -0.349 N 
ATOM     11  H   UNL     1      -1.902  -4.753   2.176  0.00  0.00    +0.167 HD
ATOM     12  C   UNL     1      -0.198  -4.503  -0.067  0.00  0.00    +0.155 C 
ATOM     13  H   UNL     1       1.507  -7.134   3.315  0.00  0.00    +0.166 HD
ENDROOT
BRANCH  12  14
ATOM     14  C   UNL     1      -0.064  -3.021   0.167  0.00  0.00    -0.021 A 
ATOM     15  C   UNL     1      -1.049  -2.159  -0.279  0.00  0.00    +0.009 A 
ATOM     16  C   UNL     1      -0.928  -0.800  -0.066  0.00  0.00    +0.046 A 
ATOM     17  C   UNL     1       0.184  -0.299   0.595  0.00  0.00    +0.120 A 
ATOM     18  C   UNL     1       1.174  -1.164   1.036  0.00  0.00    +0.046 A 
ATOM     19  C   UNL     1       1.046  -2.523   0.826  0.00  0.00    +0.009 A 
BRANCH  17  20
ATOM     20  O   UNL     1       0.305   1.038   0.805  0.00  0.00    -0.495 OA
ATOM     21  C   UNL     1       1.476   1.483   1.493  0.00  0.00    +0.277 C 
ENDBRANCH  17  20
ENDBRANCH  12  14
BRANCH   1  22
ATOM     22  C   UNL     1       1.752  -5.864  -3.083  0.00  0.00    +0.173 C 
BRANCH  22  23
ATOM     23  C   UNL     1       2.544  -4.755  -3.726  0.00  0.00    -0.021 A 
ATOM     24  C   UNL     1       2.076  -4.149  -4.877  0.00  0.00    +0.007 A 
ATOM     25  C   UNL     1       2.799  -3.127  -5.463  0.00  0.00    +0.020 A 
ATOM     26  C   UNL     1       3.998  -2.719  -4.905  0.00  0.00    +0.041 A 
ATOM     27  C   UNL     1       4.468  -3.330  -3.756  0.00  0.00    +0.020 A 
ATOM     28  C   UNL     1       3.742  -4.347  -3.167  0.00  0.00    +0.007 A 
ATOM     29 CL   UNL     1       4.910  -1.441  -5.645  0.00  0.00    -0.084 Cl
ENDBRANCH  22  23
BRANCH  22  31
ATOM     30  C   UNL     1       2.203  -7.307  -4.974  0.00  0.00    +0.105 C 
ATOM     31  N   UNL     1       1.161  -6.712  -4.127  0.00  0.00    -0.294 NA
ATOM     32  C   UNL     1       0.304  -7.750  -3.539  0.00  0.00    +0.105 C 
ENDBRANCH  22  31
ENDBRANCH   1  22
TORSDOF 5
