REMARK  Name = ZINC10627198
REMARK  7 active torsions:
REMARK  status: ('A' for Active; 'I' for Inactive)
REMARK    1  A    between atoms: C_4  and  O_25
REMARK    2  A    between atoms: C_5  and  C_7
REMARK    3  A    between atoms: N_9  and  N_10
REMARK    4  A    between atoms: C_11  and  C_13
REMARK    5  A    between atoms: C_13  and  C_14
REMARK    6  A    between atoms: C_14  and  N_15
REMARK    7  A    between atoms: C_16  and  C_18
REMARK                            x       y       z     vdW  Elec       q    Type
REMARK                         _______ _______ _______ _____ _____    ______ ____
ROOT
ATOM      1  N   UNL     1       0.121  -4.255  -0.024  0.00  0.00    -0.234 N 
ATOM      2  C   UNL     1      -1.033  -4.951  -0.017  0.00  0.00    +0.231 C 
ATOM      3  O   UNL     1      -2.095  -4.364  -0.003  0.00  0.00    -0.274 OA
ATOM      4  H   UNL     1       0.970  -4.725  -0.036  0.00  0.00    +0.173 HD
ENDROOT
BRANCH   1   7
ATOM      5  C   UNL     1       1.250  -2.159  -0.023  0.00  0.00    +0.264 C 
ATOM      6  O   UNL     1       2.314  -2.748  -0.037  0.00  0.00    -0.269 OA
ATOM      7  N   UNL     1       0.095  -2.855  -0.016  0.00  0.00    -0.230 N 
ATOM      8  H   UNL     1      -0.754  -2.385  -0.004  0.00  0.00    +0.173 HD
BRANCH   5  13
ATOM      9  C   UNL     1      -0.017   1.374   0.010  0.00  0.00    +0.001 A 
ATOM     10  C   UNL     1       1.170   2.089   0.002  0.00  0.00    +0.004 A 
ATOM     11  C   UNL     1       2.383   1.429  -0.013  0.00  0.00    +0.046 A 
ATOM     12  C   UNL     1       2.420   0.043  -0.021  0.00  0.00    +0.129 A 
ATOM     13  C   UNL     1       1.222  -0.684  -0.014  0.00  0.00    +0.079 A 
ATOM     14  C   UNL     1       0.002  -0.004   0.002  0.00  0.00    +0.017 A 
BRANCH  12  15
ATOM     15  O   UNL     1       3.611  -0.606  -0.037  0.00  0.00    -0.506 OA
ATOM     16  H   UNL     1       3.966  -0.799   0.842  0.00  0.00    +0.292 HD
ENDBRANCH  12  15
ENDBRANCH   5  13
ENDBRANCH   1   7
BRANCH   2  17
ATOM     17  C   UNL     1      -1.006  -6.457  -0.026  0.00  0.00    +0.116 C 
BRANCH  17  18
ATOM     18  C   UNL     1      -2.438  -6.994  -0.015  0.00  0.00    +0.114 C 
BRANCH  18  19
ATOM     19  N   UNL     1      -2.411  -8.459  -0.025  0.00  0.00    -0.311 N 
ATOM     20  C   UNL     1      -3.566  -9.154  -0.017  0.00  0.00    +0.245 C 
ATOM     21  O   UNL     1      -4.629  -8.566  -0.003  0.00  0.00    -0.270 OA
ATOM     22  H   UNL     1      -1.562  -8.928  -0.036  0.00  0.00    +0.149 HD
BRANCH  20  23
ATOM     23  C   UNL     1      -3.538 -10.632  -0.026  0.00  0.00    +0.055 A 
ATOM     24  C   UNL     1      -2.318 -11.311  -0.037  0.00  0.00    +0.014 A 
ATOM     25  C   UNL     1      -2.300 -12.689  -0.045  0.00  0.00    +0.001 A 
ATOM     26  C   UNL     1      -3.487 -13.401  -0.043  0.00  0.00    +0.001 A 
ATOM     27  C   UNL     1      -4.699 -12.737  -0.033  0.00  0.00    +0.021 A 
ATOM     28  C   UNL     1      -4.733 -11.356  -0.019  0.00  0.00    +0.053 A 
ATOM     29 CL   UNL     1      -6.256 -10.522   0.001  0.00  0.00    -0.083 Cl
ENDBRANCH  20  23
ENDBRANCH  18  19
ENDBRANCH  17  18
ENDBRANCH   2  17
TORSDOF 7
