REMARK  Name = ZINC04395573
REMARK  5 active torsions:
REMARK  status: ('A' for Active; 'I' for Inactive)
REMARK    1  A    between atoms: C_1  and  C_2
REMARK    2  A    between atoms: C_4  and  C_8
REMARK    3  A    between atoms: N_5  and  C_7
REMARK    4  A    between atoms: C_8  and  C_9
REMARK    5  A    between atoms: C_12  and  N_19
REMARK                            x       y       z     vdW  Elec       q    Type
REMARK                         _______ _______ _______ _____ _____    ______ ____
ROOT
ATOM      1  C   UNL     1       2.050   2.986   2.433  0.00  0.00    +0.076 A 
ATOM      2  C   UNL     1       2.241   4.093   3.365  0.00  0.00    +0.025 A 
ATOM      3  C   UNL     1       1.882   4.315   4.699  0.00  0.00    +0.044 A 
ATOM      4  C   UNL     1       2.219   5.492   5.302  0.00  0.00    +0.127 A 
ATOM      5  C   UNL     1       2.915   6.471   4.604  0.00  0.00    +0.035 A 
ATOM      6  C   UNL     1       3.276   6.278   3.301  0.00  0.00    +0.030 A 
ATOM      7  C   UNL     1       2.946   5.087   2.659  0.00  0.00    +0.066 A 
ATOM      8  N   UNL     1       3.157   4.599   1.396  0.00  0.00    -0.277 N 
ATOM      9  H   UNL     1       3.632   5.081   0.660  0.00  0.00    +0.189 HD
ATOM     10  N   UNL     1       2.602   3.319   1.302  0.00  0.00    -0.177 NA
ENDROOT
BRANCH   4  11
ATOM     11  N   UNL     1       1.840   5.727   6.714  0.00  0.00    +0.056 N 
ATOM     12  O   UNL     1       1.230   4.872   7.331  0.00  0.00    -0.126 OA
ATOM     13  O   UNL     1       2.138   6.775   7.258  0.00  0.00    -0.126 OA
ENDBRANCH   4  11
BRANCH   1  14
ATOM     14  C   UNL     1       1.345   1.688   2.730  0.00  0.00    +0.114 C 
BRANCH  14  18
ATOM     15  C   UNL     1      -3.650   2.605   3.116  0.00  0.00    +0.069 C 
ATOM     16  C   UNL     1      -2.305   2.220   2.556  0.00  0.00    +0.078 A 
ATOM     17  C   UNL     1      -1.091   2.236   3.252  0.00  0.00    +0.085 A 
ATOM     18  C   UNL     1      -0.119   1.824   2.404  0.00  0.00    +0.063 A 
ATOM     19  N   UNL     1      -0.698   1.558   1.213  0.00  0.00    -0.269 N 
ATOM     20  N   UNL     1      -2.070   1.819   1.333  0.00  0.00    -0.175 NA
ATOM     21  C   UNL     1      -0.013   1.086   0.008  0.00  0.00    +0.172 C 
ATOM     22 CL   UNL     1      -0.871   2.700   4.910  0.00  0.00    -0.080 Cl
ENDBRANCH  14  18
ENDBRANCH   1  14
TORSDOF 3
