REMARK  Name = ZINC32828075
REMARK  4 active torsions:
REMARK  status: ('A' for Active; 'I' for Inactive)
REMARK    1  A    between atoms: C_8  and  C_13
REMARK    2  A    between atoms: N_15  and  C_16
REMARK    3  A    between atoms: C_16  and  C_17
REMARK    4  A    between atoms: C_17  and  N_18
REMARK                            x       y       z     vdW  Elec       q    Type
REMARK                         _______ _______ _______ _____ _____    ______ ____
ROOT
ATOM      1  C   UNL     1       4.859   0.829  -0.040  0.00  0.00    +0.249 C 
ATOM      2  O   UNL     1       4.879  -0.383   0.059  0.00  0.00    -0.270 OA
ATOM      3  N   UNL     1       3.682   1.486  -0.040  0.00  0.00    -0.310 N 
ATOM      4  H   UNL     1       3.666   2.586  -0.044  0.00  0.00    +0.149 HD
ENDROOT
BRANCH   1  12
ATOM      5  C   UNL     1      10.904   1.732  -0.621  0.00  0.00    +0.001 A 
ATOM      6  C   UNL     1      10.861   3.121  -0.611  0.00  0.00    +0.002 A 
ATOM      7  C   UNL     1       9.661   3.786  -0.492  0.00  0.00    +0.026 A 
ATOM      8  C   UNL     1       8.475   3.064  -0.381  0.00  0.00    +0.049 A 
ATOM      9  C   UNL     1       8.520   1.657  -0.392  0.00  0.00    -0.001 A 
ATOM     10  C   UNL     1       9.756   1.003  -0.514  0.00  0.00    +0.010 A 
ATOM     11  C   UNL     1       7.324   0.909  -0.279  0.00  0.00    +0.028 A 
ATOM     12  C   UNL     1       6.120   1.579  -0.159  0.00  0.00    +0.101 A 
ATOM     13  C   UNL     1       6.115   3.046  -0.158  0.00  0.00    +0.261 A 
ATOM     14  O   UNL     1       5.061   3.649  -0.059  0.00  0.00    -0.267 OA
ATOM     15  N   UNL     1       7.271   3.727  -0.261  0.00  0.00    -0.321 N 
ATOM     16  H   UNL     1       7.247   4.826  -0.249  0.00  0.00    +0.169 HD
ENDBRANCH   1  12
BRANCH   3  17
ATOM     17  C   UNL     1       2.424   0.735  -0.035  0.00  0.00    +0.123 C 
BRANCH  17  18
ATOM     18  C   UNL     1       1.246   1.712  -0.036  0.00  0.00    +0.122 C 
BRANCH  18  19
ATOM     19  N   UNL     1      -0.011   0.961  -0.031  0.00  0.00    -0.322 N 
ATOM     20  C   UNL     1      -1.216   1.634  -0.037  0.00  0.00    +0.159 A 
ATOM     21  N   UNL     1      -2.434   1.142  -0.038  0.00  0.00    -0.225 NA
ATOM     22  C   UNL     1      -3.534   1.927  -0.043  0.00  0.00    +0.080 A 
ATOM     23  C   UNL     1      -4.891   1.529  -0.045  0.00  0.00    +0.029 A 
ATOM     24  C   UNL     1      -5.894   2.463  -0.050  0.00  0.00    +0.002 A 
ATOM     25  C   UNL     1      -5.620   3.822  -0.053  0.00  0.00    +0.001 A 
ATOM     26  C   UNL     1      -4.303   4.247  -0.052  0.00  0.00    +0.017 A 
ATOM     27  C   UNL     1      -3.292   3.319  -0.047  0.00  0.00    +0.041 A 
ATOM     28  S   UNL     1      -1.517   3.395  -0.036  0.00  0.00    -0.052 S 
ATOM     29  H   UNL     1       0.005  -0.139  -0.022  0.00  0.00    +0.148 HD
ENDBRANCH  18  19
ENDBRANCH  17  18
ENDBRANCH   3  17
TORSDOF 4
