REMARK  Name = ZINC12625729
REMARK  4 active torsions:
REMARK  status: ('A' for Active; 'I' for Inactive)
REMARK    1  A    between atoms: C_1  and  N_2
REMARK    2  A    between atoms: N_4  and  N_19
REMARK    3  A    between atoms: C_5  and  C_8
REMARK    4  A    between atoms: C_20  and  C_21
REMARK                            x       y       z     vdW  Elec       q    Type
REMARK                         _______ _______ _______ _____ _____    ______ ____
ROOT
ATOM      1  C   UNL     1      -4.604  -2.204  -0.213  0.00  0.00    +0.173 C 
ATOM      2  N   UNL     1      -4.174  -0.804  -0.220  0.00  0.00    -0.263 NA
ATOM      3  C   UNL     1      -5.065   0.155  -0.185  0.00  0.00    +0.189 A 
ATOM      4  N   UNL     1      -4.875   1.522  -0.184  0.00  0.00    -0.208 N 
ATOM      5  C   UNL     1      -5.977   2.334  -0.148  0.00  0.00    +0.082 A 
ATOM      6  C   UNL     1      -7.209   1.787  -0.110  0.00  0.00    +0.077 A 
ATOM      7  S   UNL     1      -6.846   0.039  -0.123  0.00  0.00    -0.056 S 
ENDROOT
BRANCH   5   8
ATOM      8  C   UNL     1      -5.816   3.805  -0.151  0.00  0.00    +0.003 A 
ATOM      9  C   UNL     1      -6.788   4.613  -0.744  0.00  0.00    +0.014 A 
ATOM     10  C   UNL     1      -6.641   5.985  -0.746  0.00  0.00    +0.048 A 
ATOM     11  C   UNL     1      -5.526   6.564  -0.161  0.00  0.00    +0.142 A 
ATOM     12  C   UNL     1      -4.551   5.762   0.431  0.00  0.00    +0.076 A 
ATOM     13  C   UNL     1      -4.696   4.387   0.443  0.00  0.00    +0.037 A 
ATOM     14  N   UNL     1      -3.429   6.367   1.017  0.00  0.00    -0.280 N 
ATOM     15  C   UNL     1      -3.460   7.692   1.278  0.00  0.00    +0.255 C 
ATOM     16  O   UNL     1      -2.491   8.242   1.756  0.00  0.00    -0.272 OA
ATOM     17  C   UNL     1      -4.706   8.484   0.973  0.00  0.00    +0.325 C 
ATOM     18  O   UNL     1      -5.372   7.916  -0.158  0.00  0.00    -0.481 OA
ATOM     19  H   UNL     1      -2.642   5.842   1.231  0.00  0.00    +0.155 HD
ENDBRANCH   5   8
BRANCH   4  20
ATOM     20  N   UNL     1      -3.585   2.066  -0.224  0.00  0.00    -0.171 NA
ATOM     21  C   UNL     1      -2.572   1.370   0.202  0.00  0.00    +0.148 C 
BRANCH  21  22
ATOM     22  C   UNL     1      -1.209   1.887   0.044  0.00  0.00    +0.032 A 
ATOM     23  C   UNL     1      -0.008   1.312   0.423  0.00  0.00    +0.017 A 
ATOM     24  C   UNL     1       1.156   1.997   0.161  0.00  0.00    +0.008 A 
ATOM     25  C   UNL     1       1.092   3.207  -0.452  0.00  0.00    +0.046 A 
ATOM     26  S   UNL     1      -0.665   3.424  -0.684  0.00  0.00    -0.096 S 
ENDBRANCH  21  22
ENDBRANCH   4  20
TORSDOF 3
