REMARK  Name = ZINC00864190
REMARK  11 active torsions:
REMARK  status: ('A' for Active; 'I' for Inactive)
REMARK    1  A    between atoms: C_1  and  C_2
REMARK    2  A    between atoms: C_5  and  S_8
REMARK    3  A    between atoms: S_8  and  N_11
REMARK    4  A    between atoms: N_11  and  C_12
REMARK    5  A    between atoms: N_11  and  C_26
REMARK    6  A    between atoms: C_12  and  C_13
REMARK    7  A    between atoms: C_13  and  C_15
REMARK    8  A    between atoms: C_13  and  O_25
REMARK    9  A    between atoms: C_15  and  N_16
REMARK   10  A    between atoms: C_19  and  C_23
REMARK   11  A    between atoms: C_19  and  C_24
REMARK                            x       y       z     vdW  Elec       q    Type
REMARK                         _______ _______ _______ _____ _____    ______ ____
ROOT
ATOM      1  N   UNL     1       1.644  -4.999  -0.172  0.00  0.00    -0.200 N 
ENDROOT
BRANCH   1   2
ATOM      2  C   UNL     1       2.229  -5.090  -1.437  0.00  0.00    +0.051 A 
ATOM      3  C   UNL     1       3.239  -6.014  -1.672  0.00  0.00    +0.025 A 
ATOM      4  C   UNL     1       3.815  -6.102  -2.924  0.00  0.00    +0.002 A 
ATOM      5  C   UNL     1       3.388  -5.271  -3.943  0.00  0.00    +0.000 A 
ATOM      6  C   UNL     1       2.382  -4.350  -3.713  0.00  0.00    +0.002 A 
ATOM      7  C   UNL     1       1.798  -4.261  -2.465  0.00  0.00    +0.025 A 
ENDBRANCH   1   2
BRANCH   1   8
ATOM      8  S   UNL     1       0.098  -4.428  -0.014  0.00  0.00    +0.075 S 
ATOM      9  O   UNL     1      -0.412  -4.967   1.198  0.00  0.00    -0.150 OA
ATOM     10  O   UNL     1      -0.541  -4.634  -1.267  0.00  0.00    -0.150 OA
BRANCH   8  15
ATOM     11  C   UNL     1       0.466   1.542   0.774  0.00  0.00    +0.044 C 
ATOM     12  C   UNL     1       0.374   0.051   0.577  0.00  0.00    -0.050 A 
ATOM     13  C   UNL     1       0.128  -0.466  -0.681  0.00  0.00    +0.005 A 
ATOM     14  C   UNL     1       0.043  -1.834  -0.861  0.00  0.00    +0.029 A 
ATOM     15  C   UNL     1       0.206  -2.685   0.216  0.00  0.00    +0.109 A 
ATOM     16  C   UNL     1       0.454  -2.168   1.474  0.00  0.00    +0.029 A 
ATOM     17  C   UNL     1       0.543  -0.800   1.654  0.00  0.00    +0.005 A 
ENDBRANCH   8  15
ENDBRANCH   1   8
BRANCH   1  18
ATOM     18  C   UNL     1       2.399  -5.408   1.015  0.00  0.00    +0.164 C 
BRANCH  18  19
ATOM     19  C   UNL     1       2.252  -6.917   1.218  0.00  0.00    +0.151 C 
BRANCH  19  20
ATOM     20  O   UNL     1       0.872  -7.242   1.395  0.00  0.00    -0.389 OA
ATOM     21  H   UNL     1       0.462  -6.811   2.157  0.00  0.00    +0.210 HD
ENDBRANCH  19  20
BRANCH  19  22
ATOM     22  C   UNL     1       3.041  -7.344   2.458  0.00  0.00    +0.151 C 
BRANCH  22  23
ATOM     23  N   UNL     1       2.999  -8.803   2.584  0.00  0.00    -0.222 N 
ATOM     24  C   UNL     1       2.049  -9.478   3.261  0.00  0.00    +0.246 C 
ATOM     25  O   UNL     1       1.103  -9.010   3.857  0.00  0.00    -0.273 OA
ATOM     26  C   UNL     1       2.409 -10.944   3.120  0.00  0.00    +0.107 C 
ATOM     27  N   UNL     1       3.635 -10.923   2.304  0.00  0.00    -0.285 N 
ATOM     28  C   UNL     1       3.897  -9.630   2.037  0.00  0.00    +0.309 C 
ATOM     29  O   UNL     1       4.846  -9.257   1.375  0.00  0.00    -0.252 OA
ATOM     30  C   UNL     1       2.685 -11.564   4.491  0.00  0.00    +0.041 C 
ATOM     31  C   UNL     1       1.294 -11.704   2.399  0.00  0.00    +0.041 C 
ATOM     32  H   UNL     1       4.151 -11.691   2.013  0.00  0.00    +0.151 HD
ENDBRANCH  22  23
ENDBRANCH  19  22
ENDBRANCH  18  19
ENDBRANCH   1  18
TORSDOF 8
