REMARK  Name = ZINC15826380
REMARK  5 active torsions:
REMARK  status: ('A' for Active; 'I' for Inactive)
REMARK    1  A    between atoms: C_1  and  C_2
REMARK    2  A    between atoms: C_9  and  N_14
REMARK    3  A    between atoms: C_10  and  C_11
REMARK    4  A    between atoms: C_15  and  C_17
REMARK    5  A    between atoms: C_17  and  C_22
REMARK                            x       y       z     vdW  Elec       q    Type
REMARK                         _______ _______ _______ _____ _____    ______ ____
ROOT
ATOM      1  C   UNL     1       0.109   1.503   0.164  0.00  0.00    +0.008 C 
ATOM      2  C   UNL     1       0.124  -0.027   0.143  0.00  0.00    -0.009 C 
ATOM      3  C   UNL     1       0.901  -0.549   1.355  0.00  0.00    +0.008 C 
ATOM      4  C   UNL     1       0.714  -2.062   1.479  0.00  0.00    +0.037 C 
ATOM      5  C   UNL     1       1.056  -2.710   0.143  0.00  0.00    -0.023 A 
ATOM      6  C   UNL     1       1.091  -1.982  -0.994  0.00  0.00    -0.004 A 
ATOM      7  S   UNL     1       1.524  -3.141  -2.260  0.00  0.00    -0.077 S 
ATOM      8  C   UNL     1       1.658  -4.574  -1.294  0.00  0.00    +0.084 A 
ATOM      9  C   UNL     1       1.364  -4.121  -0.016  0.00  0.00    +0.068 A 
ATOM     10  C   UNL     1       0.818  -0.517  -1.137  0.00  0.00    +0.046 C 
ENDROOT
BRANCH   9  11
ATOM     11  C   UNL     1       1.365  -5.033   1.132  0.00  0.00    +0.244 C 
ATOM     12  O   UNL     1       0.344  -5.616   1.447  0.00  0.00    -0.270 OA
ATOM     13  N   UNL     1       2.497  -5.226   1.839  0.00  0.00    -0.325 N 
ATOM     14  H   UNL     1       3.310  -4.761   1.588  0.00  0.00    +0.145 HD
ATOM     15  H   UNL     1       2.497  -5.829   2.598  0.00  0.00    +0.145 HD
ENDBRANCH   9  11
BRANCH   8  16
ATOM     16  N   UNL     1       1.980  -5.860  -1.701  0.00  0.00    -0.279 N 
ATOM     17  C   UNL     1       2.236  -6.112  -3.000  0.00  0.00    +0.228 C 
ATOM     18  O   UNL     1       2.092  -5.237  -3.827  0.00  0.00    -0.274 OA
ATOM     19  H   UNL     1       2.020  -6.578  -1.050  0.00  0.00    +0.155 HD
BRANCH  17  20
ATOM     20  C   UNL     1       2.703  -7.480  -3.424  0.00  0.00    +0.072 C 
ATOM     21  C   UNL     1       3.970  -7.871  -2.642  0.00  0.00    +0.021 C 
ATOM     22  C   UNL     1       5.085  -8.081  -3.689  0.00  0.00    +0.001 C 
ATOM     23  C   UNL     1       4.624  -7.244  -4.909  0.00  0.00    +0.001 C 
ATOM     24  C   UNL     1       3.091  -7.467  -4.917  0.00  0.00    +0.021 C 
BRANCH  20  25
ATOM     25  C   UNL     1       1.614  -8.494  -3.182  0.00  0.00    -0.032 A 
ATOM     26  C   UNL     1       1.864  -9.838  -3.386  0.00  0.00    +0.004 A 
ATOM     27  C   UNL     1       0.867 -10.769  -3.161  0.00  0.00    +0.000 A 
ATOM     28  C   UNL     1      -0.383 -10.354  -2.740  0.00  0.00    +0.000 A 
ATOM     29  C   UNL     1      -0.634  -9.009  -2.540  0.00  0.00    +0.000 A 
ATOM     30  C   UNL     1       0.364  -8.079  -2.762  0.00  0.00    +0.004 A 
ENDBRANCH  20  25
ENDBRANCH  17  20
ENDBRANCH   8  16
TORSDOF 4
