REMARK  Name = ZINC67459358
REMARK  8 active torsions:
REMARK  status: ('A' for Active; 'I' for Inactive)
REMARK    1  A    between atoms: C_1  and  C_2
REMARK    2  A    between atoms: C_5  and  C_7
REMARK    3  A    between atoms: C_7  and  C_9
REMARK    4  A    between atoms: C_7  and  N_10
REMARK    5  A    between atoms: N_13  and  C_14
REMARK    6  A    between atoms: C_14  and  C_15
REMARK    7  A    between atoms: C_15  and  C_17
REMARK    8  A    between atoms: C_15  and  O_27
REMARK                            x       y       z     vdW  Elec       q    Type
REMARK                         _______ _______ _______ _____ _____    ______ ____
ROOT
ATOM      1  N   UNL     1       2.819  -2.969   0.861  0.00  0.00    -0.290 N 
ATOM      2  C   UNL     1       3.507  -3.989   1.413  0.00  0.00    +0.300 C 
ATOM      3  O   UNL     1       3.185  -5.137   1.177  0.00  0.00    -0.253 OA
ATOM      4  N   UNL     1       4.551  -3.735   2.226  0.00  0.00    -0.297 N 
ATOM      5  H   UNL     1       3.076  -2.053   1.050  0.00  0.00    +0.151 HD
ATOM      6  H   UNL     1       4.808  -2.819   2.414  0.00  0.00    +0.150 HD
ENDROOT
BRANCH   1   7
ATOM      7  C   UNL     1       1.684  -3.245  -0.023  0.00  0.00    +0.137 C 
ATOM      8  C   UNL     1       2.192  -3.480  -1.447  0.00  0.00    +0.036 C 
BRANCH   7  13
ATOM      9  C   UNL     1      -0.018   1.503   0.010  0.00  0.00    +0.086 C 
ATOM     10  C   UNL     1       0.002  -0.004   0.002  0.00  0.00    +0.102 A 
ATOM     11  C   UNL     1      -1.078  -0.805   0.003  0.00  0.00    +0.045 A 
ATOM     12  C   UNL     1      -0.601  -2.136  -0.007  0.00  0.00    +0.047 A 
ATOM     13  C   UNL     1       0.742  -2.069  -0.013  0.00  0.00    +0.125 A 
ATOM     14  O   UNL     1       1.102  -0.775  -0.013  0.00  0.00    -0.463 OA
ENDBRANCH   7  13
ENDBRANCH   1   7
BRANCH   4  15
ATOM     15  C   UNL     1       5.299  -4.843   2.826  0.00  0.00    +0.141 C 
BRANCH  15  16
ATOM     16  C   UNL     1       6.425  -4.286   3.699  0.00  0.00    +0.162 C 
BRANCH  16  17
ATOM     17  C   UNL     1       7.269  -5.422   4.216  0.00  0.00    -0.017 A 
ATOM     18  C   UNL     1       6.824  -6.165   5.309  0.00  0.00    +0.007 A 
ATOM     19  C   UNL     1       7.562  -7.197   5.801  0.00  0.00    +0.009 A 
ATOM     20  C   UNL     1       8.791  -7.521   5.202  0.00  0.00    -0.018 A 
ATOM     21  C   UNL     1       9.580  -8.580   5.682  0.00  0.00    +0.008 A 
ATOM     22  C   UNL     1      10.765  -8.866   5.076  0.00  0.00    +0.001 A 
ATOM     23  C   UNL     1      11.209  -8.123   3.984  0.00  0.00    +0.001 A 
ATOM     24  C   UNL     1      10.472  -7.091   3.492  0.00  0.00    +0.008 A 
ATOM     25  C   UNL     1       9.243  -6.766   4.091  0.00  0.00    -0.018 A 
ATOM     26  C   UNL     1       8.451  -5.711   3.607  0.00  0.00    +0.014 A 
ENDBRANCH  16  17
BRANCH  16  27
ATOM     27  O   UNL     1       5.863  -3.569   4.800  0.00  0.00    -0.386 OA
ATOM     28  H   UNL     1       5.298  -4.106   5.372  0.00  0.00    +0.210 HD
ENDBRANCH  16  27
ENDBRANCH  15  16
ENDBRANCH   4  15
TORSDOF 6
