REMARK  Name = ZINC23983657
REMARK  7 active torsions:
REMARK  status: ('A' for Active; 'I' for Inactive)
REMARK    1  A    between atoms: C_1  and  C_2
REMARK    2  A    between atoms: C_2  and  C_4
REMARK    3  A    between atoms: C_2  and  N_17
REMARK    4  A    between atoms: N_17  and  C_18
REMARK    5  A    between atoms: C_18  and  C_19
REMARK    6  A    between atoms: N_21  and  C_31
REMARK    7  A    between atoms: C_23  and  C_24
REMARK                            x       y       z     vdW  Elec       q    Type
REMARK                         _______ _______ _______ _____ _____    ______ ____
ROOT
ATOM      1  N   UNL     1      -3.200  -0.033   0.631  0.00  0.00    +0.389 N 
ATOM      2  H   UNL     1      -3.479  -0.909   0.026  0.00  0.00    -0.084 HD
ATOM      3  H   UNL     1      -2.877   0.782  -0.032  0.00  0.00    -0.084 HD
ENDROOT
BRANCH   1   5
ATOM      4  C   UNL     1      -4.216   1.893   1.751  0.00  0.00    -0.004 C 
ATOM      5  C   UNL     1      -4.360   0.406   1.418  0.00  0.00    +0.014 C 
BRANCH   5   6
ATOM      6  C   UNL     1      -5.620   0.190   0.620  0.00  0.00    +0.206 C 
ATOM      7  O   UNL     1      -5.558  -0.284  -0.494  0.00  0.00    -0.277 OA
ATOM      8  N   UNL     1      -6.816   0.523   1.145  0.00  0.00    -0.262 N 
ATOM      9  C   UNL     1      -6.919   1.094   2.497  0.00  0.00    +0.209 C 
ATOM     10  C   UNL     1      -8.088   0.473   3.209  0.00  0.00    +0.235 C 
ATOM     11  O   UNL     1      -8.067   0.372   4.418  0.00  0.00    -0.274 OA
ATOM     12  N   UNL     1      -9.156   0.024   2.523  0.00  0.00    -0.283 N 
ATOM     13  C   UNL     1      -9.184   0.084   1.125  0.00  0.00    +0.055 A 
ATOM     14  C   UNL     1      -8.003   0.332   0.422  0.00  0.00    +0.058 A 
ATOM     15  C   UNL     1      -8.015   0.386  -0.960  0.00  0.00    +0.025 A 
ATOM     16  C   UNL     1      -9.203   0.197  -1.644  0.00  0.00    +0.002 A 
ATOM     17  C   UNL     1     -10.374  -0.045  -0.950  0.00  0.00    +0.002 A 
ATOM     18  C   UNL     1     -10.369  -0.103   0.432  0.00  0.00    +0.025 A 
ATOM     19  H   UNL     1     -10.019  -0.395   3.061  0.00  0.00    +0.155 HD
ENDBRANCH   5   6
ENDBRANCH   1   5
BRANCH   1  20
ATOM     20  C   UNL     1      -2.080  -0.403   1.506  0.00  0.00    -0.042 C 
BRANCH  20  21
ATOM     21  C   UNL     1      -0.911  -0.848   0.665  0.00  0.00    -0.019 A 
ATOM     22  C   UNL     1      -0.556  -2.126   0.410  0.00  0.00    +0.116 A 
ATOM     23  N   UNL     1       0.549  -2.102  -0.379  0.00  0.00    -0.239 N 
ATOM     24  N   UNL     1       0.880  -0.762  -0.621  0.00  0.00    -0.166 NA
ATOM     25  C   UNL     1       0.002  -0.004   0.002  0.00  0.00    +0.094 A 
BRANCH  25  26
ATOM     26  C   UNL     1      -0.018   1.480   0.010  0.00  0.00    +0.002 A 
ATOM     27  C   UNL     1      -1.233   2.162   0.020  0.00  0.00    +0.013 A 
ATOM     28  C   UNL     1      -1.247   3.542   0.032  0.00  0.00    +0.039 A 
ATOM     29  C   UNL     1      -0.056   4.249   0.024  0.00  0.00    +0.123 A 
ATOM     30  C   UNL     1       1.155   3.574   0.010  0.00  0.00    +0.039 A 
ATOM     31  C   UNL     1       1.178   2.195   0.003  0.00  0.00    +0.013 A 
ATOM     32  F   UNL     1      -0.074   5.599   0.031  0.00  0.00    -0.205 F 
ENDBRANCH  25  26
BRANCH  23  33
ATOM     33  C   UNL     1       1.238  -3.220  -0.866  0.00  0.00    +0.065 A 
ATOM     34  C   UNL     1       0.804  -4.499  -0.543  0.00  0.00    +0.028 A 
ATOM     35  C   UNL     1       1.483  -5.600  -1.028  0.00  0.00    +0.002 A 
ATOM     36  C   UNL     1       2.599  -5.430  -1.827  0.00  0.00    +0.000 A 
ATOM     37  C   UNL     1       3.036  -4.157  -2.146  0.00  0.00    +0.002 A 
ATOM     38  C   UNL     1       2.359  -3.053  -1.668  0.00  0.00    +0.028 A 
ENDBRANCH  23  33
ENDBRANCH  20  21
ENDBRANCH   1  20
TORSDOF 6
