REMARK  Name = ZINC39674462
REMARK  10 active torsions:
REMARK  status: ('A' for Active; 'I' for Inactive)
REMARK    1  A    between atoms: C_1  and  C_2
REMARK    2  A    between atoms: C_2  and  N_3
REMARK    3  A    between atoms: C_4  and  C_11
REMARK    4  A    between atoms: C_7  and  C_9
REMARK    5  A    between atoms: C_15  and  C_24
REMARK    6  A    between atoms: N_26  and  C_27
REMARK    7  A    between atoms: C_27  and  C_29
REMARK    8  A    between atoms: C_27  and  C_30
REMARK    9  A    between atoms: C_31  and  C_37
REMARK   10  A    between atoms: C_34  and  C_36
REMARK                            x       y       z     vdW  Elec       q    Type
REMARK                         _______ _______ _______ _____ _____    ______ ____
ROOT
ATOM      1  C   UNL     1      -2.427  -2.878  -3.320  0.00  0.00    +0.239 C 
ATOM      2  O   UNL     1      -3.024  -2.232  -4.156  0.00  0.00    -0.273 OA
ATOM      3  N   UNL     1      -2.480  -4.224  -3.346  0.00  0.00    -0.299 N 
ATOM      4  C   UNL     1      -1.913  -5.175  -2.361  0.00  0.00    +0.121 C 
ATOM      5  C   UNL     1      -2.975  -6.290  -2.238  0.00  0.00    +0.100 C 
ATOM      6  C   UNL     1      -3.762  -6.230  -3.558  0.00  0.00    -0.004 C 
ATOM      7  C   UNL     1      -3.124  -5.089  -4.364  0.00  0.00    +0.115 C 
ATOM      8  C   UNL     1      -5.230  -5.918  -3.285  0.00  0.00    -0.010 C 
ATOM      9  C   UNL     1      -6.002  -5.920  -4.607  0.00  0.00    -0.082 C 
ATOM     10  N   UNL     1      -5.871  -7.233  -5.250  0.00  0.00    +0.379 N 
ATOM     11  C   UNL     1      -4.466  -7.486  -5.593  0.00  0.00    -0.082 C 
ATOM     12  C   UNL     1      -3.630  -7.549  -4.313  0.00  0.00    -0.010 C 
ATOM     13  H   UNL     1      -6.195  -7.950  -4.618  0.00  0.00    -0.086 HD
ATOM     14  H   UNL     1      -6.430  -7.252  -6.090  0.00  0.00    -0.086 HD
ENDROOT
BRANCH   1  16
ATOM     15  N   UNL     1      -1.114  -0.887  -2.758  0.00  0.00    -0.213 NA
ATOM     16  C   UNL     1      -1.628  -2.176  -2.253  0.00  0.00    +0.200 C 
ATOM     17  C   UNL     1      -2.515  -1.794  -1.088  0.00  0.00    +0.041 C 
ATOM     18  C   UNL     1      -2.474  -0.480  -0.992  0.00  0.00    +0.028 C 
ATOM     19  N   UNL     1      -1.659   0.078  -1.960  0.00  0.00    -0.280 N 
ATOM     20  C   UNL     1      -3.223   0.317   0.045  0.00  0.00    +0.062 C 
ATOM     21 BR   UNL     1      -3.495  -2.974   0.017  0.00  0.00    -0.051 Br
ATOM     22  H   UNL     1      -1.496   1.029  -2.059  0.00  0.00    +0.166 HD
BRANCH  15  24
ATOM     23  C   UNL     1       0.851   0.473  -3.295  0.00  0.00    +0.022 C 
ATOM     24  C   UNL     1       0.354  -0.848  -2.704  0.00  0.00    +0.103 C 
ENDBRANCH  15  24
ENDBRANCH   1  16
BRANCH   5  25
ATOM     25  C   UNL     1      -2.310  -7.633  -2.081  0.00  0.00    +0.219 C 
ATOM     26  O   UNL     1      -1.195  -7.813  -2.523  0.00  0.00    -0.275 OA
ATOM     27  N   UNL     1      -2.955  -8.635  -1.450  0.00  0.00    -0.309 N 
ATOM     28  H   UNL     1      -3.847  -8.491  -1.097  0.00  0.00    +0.149 HD
BRANCH  27  29
ATOM     29  C   UNL     1      -2.308  -9.941  -1.298  0.00  0.00    +0.100 C 
ATOM     30  C   UNL     1      -1.319  -9.887  -0.131  0.00  0.00    +0.033 C 
BRANCH  29  31
ATOM     31  C   UNL     1      -3.354 -10.990  -1.022  0.00  0.00    -0.001 C 
ATOM     32  C   UNL     1      -3.611 -12.099  -1.719  0.00  0.00    +0.063 C 
ATOM     33  N   UNL     1      -4.626 -12.793  -1.160  0.00  0.00    -0.159 NA
ATOM     34  N   UNL     1      -5.101 -12.278  -0.144  0.00  0.00    -0.180 NA
ATOM     35  C   UNL     1      -4.357 -11.034   0.118  0.00  0.00    +0.154 C 
ATOM     36  C   UNL     1      -5.293  -9.825   0.063  0.00  0.00    +0.039 C 
ATOM     37  C   UNL     1      -2.869 -12.519  -2.961  0.00  0.00    +0.067 C 
ENDBRANCH  29  31
ENDBRANCH  27  29
ENDBRANCH   5  25
TORSDOF 5
