REMARK  Name = ZINC04729227
REMARK  10 active torsions:
REMARK  status: ('A' for Active; 'I' for Inactive)
REMARK    1  A    between atoms: C_1  and  C_2
REMARK    2  A    between atoms: C_2  and  O_3
REMARK    3  A    between atoms: O_3  and  C_4
REMARK    4  A    between atoms: C_8  and  C_11
REMARK    5  A    between atoms: C_9  and  O_10
REMARK    6  A    between atoms: C_14  and  C_26
REMARK    7  A    between atoms: C_16  and  C_18
REMARK    8  A    between atoms: C_23  and  O_24
REMARK    9  A    between atoms: O_24  and  C_25
REMARK   10  A    between atoms: C_29  and  C_32
REMARK                            x       y       z     vdW  Elec       q    Type
REMARK                         _______ _______ _______ _____ _____    ______ ____
ROOT
ATOM      1  C   UNL     1      -1.039   4.223   4.847  0.00  0.00    -0.028 C 
ATOM      2  C   UNL     1      -1.315   5.276   3.770  0.00  0.00    +0.044 C 
ATOM      3  C   UNL     1      -1.615   4.592   2.465  0.00  0.00    +0.040 C 
ATOM      4  N   UNL     1      -1.914   3.351   2.380  0.00  0.00    -0.298 NA
ATOM      5  C   UNL     1      -1.989   2.447   3.520  0.00  0.00    +0.084 C 
ATOM      6  N   UNL     1      -2.102   3.201   4.778  0.00  0.00    +0.401 N 
ATOM      7  H   UNL     1      -3.019   3.661   4.818  0.00  0.00    -0.081 HD
ATOM      8  H   UNL     1      -2.007   2.557   5.571  0.00  0.00    -0.081 HD
ENDROOT
BRANCH   3   9
ATOM      9  C   UNL     1      -1.565   5.391   1.224  0.00  0.00    -0.004 A 
ATOM     10  C   UNL     1      -1.249   6.750   1.278  0.00  0.00    +0.010 A 
ATOM     11  C   UNL     1      -1.199   7.489   0.114  0.00  0.00    +0.004 A 
ATOM     12  C   UNL     1      -1.471   6.888  -1.103  0.00  0.00    -0.050 A 
ATOM     13  C   UNL     1      -1.790   5.543  -1.162  0.00  0.00    +0.004 A 
ATOM     14  C   UNL     1      -1.838   4.791  -0.007  0.00  0.00    +0.010 A 
ATOM     15  C   UNL     1      -1.419   7.704  -2.369  0.00  0.00    +0.044 C 
ENDBRANCH   3   9
BRANCH   1  20
ATOM     16  C   UNL     1       0.047   6.163   7.911  0.00  0.00    +0.162 A 
ATOM     17  C   UNL     1      -1.081   6.063   8.709  0.00  0.00    +0.049 A 
ATOM     18  C   UNL     1      -2.188   5.370   8.257  0.00  0.00    +0.004 A 
ATOM     19  C   UNL     1      -2.175   4.780   7.007  0.00  0.00    +0.006 A 
ATOM     20  C   UNL     1      -1.051   4.872   6.207  0.00  0.00    -0.016 A 
ATOM     21  C   UNL     1       0.062   5.565   6.654  0.00  0.00    +0.160 A 
BRANCH  21  22
ATOM     22  O   UNL     1       1.166   5.661   5.867  0.00  0.00    -0.503 OA
ATOM     23  H   UNL     1       1.167   6.431   5.282  0.00  0.00    +0.292 HD
ENDBRANCH  21  22
BRANCH  16  24
ATOM     24  O   UNL     1       1.137   6.846   8.354  0.00  0.00    -0.489 OA
BRANCH  24  26
ATOM     25  C   UNL     1       2.362   8.153   9.976  0.00  0.00    +0.048 C 
ATOM     26  C   UNL     1       1.050   7.434   9.653  0.00  0.00    +0.226 C 
ENDBRANCH  24  26
ENDBRANCH  16  24
ENDBRANCH   1  20
BRANCH   5  27
ATOM     27  C   UNL     1      -0.747   1.594   3.561  0.00  0.00    +0.001 A 
ATOM     28  C   UNL     1      -0.203   1.222   4.776  0.00  0.00    +0.007 A 
ATOM     29  C   UNL     1       0.936   0.440   4.814  0.00  0.00    +0.000 A 
ATOM     30  C   UNL     1       1.534   0.027   3.637  0.00  0.00    +0.004 A 
ATOM     31  C   UNL     1       0.991   0.392   2.421  0.00  0.00    +0.046 A 
ATOM     32  C   UNL     1      -0.149   1.182   2.380  0.00  0.00    +0.123 A 
BRANCH  32  33
ATOM     33  O   UNL     1      -0.682   1.547   1.184  0.00  0.00    -0.495 OA
ATOM     34  C   UNL     1      -0.013   1.086   0.008  0.00  0.00    +0.277 C 
ENDBRANCH  32  33
ENDBRANCH   5  27
TORSDOF 7
