REMARK  Name = ZINC12376352
REMARK  6 active torsions:
REMARK  status: ('A' for Active; 'I' for Inactive)
REMARK    1  A    between atoms: C_4  and  C_7
REMARK    2  A    between atoms: C_7  and  C_8
REMARK    3  A    between atoms: C_8  and  N_9
REMARK    4  A    between atoms: C_17  and  C_21
REMARK    5  A    between atoms: C_17  and  N_25
REMARK    6  A    between atoms: C_26  and  C_28
REMARK                            x       y       z     vdW  Elec       q    Type
REMARK                         _______ _______ _______ _____ _____    ______ ____
ROOT
ATOM      1  N   UNL     1       4.526  -2.079   1.815  0.00  0.00    -0.281 N 
ATOM      2  C   UNL     1       4.912  -3.393   1.659  0.00  0.00    +0.120 A 
ATOM      3  C   UNL     1       6.236  -3.661   1.471  0.00  0.00    +0.096 A 
ATOM      4  C   UNL     1       7.169  -2.616   1.439  0.00  0.00    +0.262 A 
ATOM      5  N   UNL     1       6.743  -1.345   1.597  0.00  0.00    -0.275 N 
ATOM      6  C   UNL     1       5.434  -1.089   1.777  0.00  0.00    +0.331 A 
ATOM      7  O   UNL     1       5.066   0.062   1.913  0.00  0.00    -0.246 OA
ATOM      8  O   UNL     1       8.353  -2.853   1.272  0.00  0.00    -0.267 OA
ATOM      9  C   UNL     1       6.359  -5.160   1.333  0.00  0.00    +0.240 C 
ATOM     10  C   UNL     1       4.930  -5.646   1.472  0.00  0.00    +0.256 C 
ATOM     11  O   UNL     1       4.546  -6.795   1.427  0.00  0.00    -0.272 OA
ATOM     12  N   UNL     1       4.172  -4.550   1.657  0.00  0.00    -0.269 N 
ATOM     13  H   UNL     1       7.381  -0.615   1.577  0.00  0.00    +0.173 HD
ATOM     14  H   UNL     1       3.210  -4.574   1.775  0.00  0.00    +0.156 HD
ENDROOT
BRANCH   9  15
ATOM     15  C   UNL     1       6.922  -5.530  -0.040  0.00  0.00    +0.424 C 
ATOM     16  F   UNL     1       8.235  -5.060  -0.148  0.00  0.00    -0.167 F 
ATOM     17  F   UNL     1       6.912  -6.922  -0.189  0.00  0.00    -0.167 F 
ATOM     18  F   UNL     1       6.135  -4.949  -1.040  0.00  0.00    -0.167 F 
ENDBRANCH   9  15
BRANCH   9  19
ATOM     19  N   UNL     1       7.197  -5.709   2.401  0.00  0.00    -0.287 N 
ATOM     20  C   UNL     1       6.888  -5.470   3.691  0.00  0.00    +0.245 C 
ATOM     21  O   UNL     1       5.865  -4.876   3.971  0.00  0.00    -0.270 OA
ATOM     22  H   UNL     1       7.974  -6.246   2.180  0.00  0.00    +0.151 HD
BRANCH  20  23
ATOM     23  C   UNL     1       7.793  -5.929   4.766  0.00  0.00    +0.037 A 
ATOM     24  C   UNL     1       8.972  -6.606   4.448  0.00  0.00    +0.013 A 
ATOM     25  C   UNL     1       9.812  -7.032   5.456  0.00  0.00    +0.001 A 
ATOM     26  C   UNL     1       9.489  -6.789   6.779  0.00  0.00    +0.000 A 
ATOM     27  C   UNL     1       8.322  -6.119   7.101  0.00  0.00    +0.001 A 
ATOM     28  C   UNL     1       7.476  -5.683   6.103  0.00  0.00    +0.013 A 
ENDBRANCH  20  23
ENDBRANCH   9  19
BRANCH   1  29
ATOM     29  C   UNL     1       3.111  -1.758   2.018  0.00  0.00    +0.133 C 
BRANCH  29  30
ATOM     30  C   UNL     1       2.438  -1.535   0.662  0.00  0.00    +0.057 C 
BRANCH  30  34
ATOM     31  C   UNL     1      -1.688  -0.599   1.252  0.00  0.00    +0.000 A 
ATOM     32  C   UNL     1      -0.748   0.414   1.213  0.00  0.00    +0.000 A 
ATOM     33  C   UNL     1       0.588   0.111   1.022  0.00  0.00    +0.004 A 
ATOM     34  C   UNL     1       0.983  -1.205   0.871  0.00  0.00    -0.046 A 
ATOM     35  C   UNL     1       0.043  -2.218   0.910  0.00  0.00    +0.004 A 
ATOM     36  C   UNL     1      -1.292  -1.915   1.100  0.00  0.00    +0.000 A 
ENDBRANCH  30  34
ENDBRANCH  29  30
ENDBRANCH   1  29
TORSDOF 6
