REMARK  Name = ZINC05042257
REMARK  7 active torsions:
REMARK  status: ('A' for Active; 'I' for Inactive)
REMARK    1  A    between atoms: C_1  and  O_2
REMARK    2  A    between atoms: O_2  and  C_3
REMARK    3  A    between atoms: C_7  and  C_9
REMARK    4  A    between atoms: C_11  and  N_27
REMARK    5  A    between atoms: C_13  and  C_21
REMARK    6  A    between atoms: C_16  and  N_20
REMARK    7  A    between atoms: C_17  and  C_18
REMARK                            x       y       z     vdW  Elec       q    Type
REMARK                         _______ _______ _______ _____ _____    ______ ____
ROOT
ATOM      1  C   UNL     1      -2.540  -4.171   0.015  0.00  0.00    +0.093 C 
ATOM      2  C   UNL     1      -3.119  -4.638   1.344  0.00  0.00    +0.199 C 
ATOM      3  C   UNL     1      -4.549  -4.101   1.496  0.00  0.00    +0.113 C 
ATOM      4  S   UNL     1      -5.599  -5.003   0.315  0.00  0.00    -0.099 S 
ATOM      5  C   UNL     1      -4.637  -4.979  -1.162  0.00  0.00    +0.073 C 
ATOM      6  C   UNL     1      -3.340  -4.617  -1.160  0.00  0.00    +0.066 C 
ENDROOT
BRANCH   1  11
ATOM      7  C   UNL     1      -1.232  -0.636   0.291  0.00  0.00    +0.120 A 
ATOM      8  C   UNL     1      -2.375   0.101   0.018  0.00  0.00    +0.045 A 
ATOM      9  C   UNL     1      -3.564  -0.546  -0.254  0.00  0.00    +0.004 A 
ATOM     10  C   UNL     1      -3.616  -1.928  -0.255  0.00  0.00    +0.004 A 
ATOM     11  C   UNL     1      -2.479  -2.665   0.017  0.00  0.00    -0.034 A 
ATOM     12  C   UNL     1      -1.285  -2.022   0.284  0.00  0.00    +0.050 A 
BRANCH   7  14
ATOM     13  C   UNL     1      -0.079   1.427   0.548  0.00  0.00    +0.277 C 
ATOM     14  O   UNL     1      -0.060  -0.002   0.558  0.00  0.00    -0.495 OA
ENDBRANCH   7  14
ENDBRANCH   1  11
BRANCH   3  15
ATOM     15  C   UNL     1      -5.038  -4.337   2.902  0.00  0.00    -0.032 A 
ATOM     16  C   UNL     1      -5.111  -5.624   3.401  0.00  0.00    +0.005 A 
ATOM     17  C   UNL     1      -5.559  -5.840   4.691  0.00  0.00    +0.000 A 
ATOM     18  C   UNL     1      -5.934  -4.770   5.481  0.00  0.00    +0.000 A 
ATOM     19  C   UNL     1      -5.860  -3.483   4.982  0.00  0.00    +0.000 A 
ATOM     20  C   UNL     1      -5.407  -3.266   3.694  0.00  0.00    +0.005 A 
ENDBRANCH   3  15
BRANCH   5  21
ATOM     21  N   UNL     1      -5.229  -5.340  -2.350  0.00  0.00    -0.352 N 
ATOM     22  H   UNL     1      -6.162  -5.603  -2.366  0.00  0.00    +0.143 HD
ATOM     23  H   UNL     1      -4.712  -5.332  -3.171  0.00  0.00    +0.143 HD
ENDBRANCH   5  21
BRANCH   2  24
ATOM     24  N   UNL     1      -2.289  -4.136   2.442  0.00  0.00    +0.028 N 
ATOM     25  O   UNL     1      -2.139  -2.946   2.591  0.00  0.00    -0.131 OA
ATOM     26  O   UNL     1      -1.754  -4.912   3.199  0.00  0.00    -0.131 OA
ENDBRANCH   2  24
BRANCH   6  27
ATOM     27  C   UNL     1      -2.660  -4.667  -2.419  0.00  0.00    +0.098 C 
ATOM     28  N   UNL     1      -2.121  -4.706  -3.418  0.00  0.00    -0.191 NA
ENDBRANCH   6  27
TORSDOF 6
