REMARK  Name = ZINC16575571
REMARK  7 active torsions:
REMARK  status: ('A' for Active; 'I' for Inactive)
REMARK    1  A    between atoms: C_1  and  C_2
REMARK    2  A    between atoms: C_2  and  C_3
REMARK    3  A    between atoms: C_2  and  O_4
REMARK    4  A    between atoms: O_4  and  C_5
REMARK    5  A    between atoms: C_6  and  C_13
REMARK    6  A    between atoms: N_14  and  N_15
REMARK    7  A    between atoms: C_16  and  C_18
REMARK                            x       y       z     vdW  Elec       q    Type
REMARK                         _______ _______ _______ _____ _____    ______ ____
ROOT
ATOM      1  C   UNL     1      -2.101   5.904   0.809  0.00  0.00    +0.142 C 
ATOM      2  N   UNL     1      -2.240   4.622   0.659  0.00  0.00    -0.187 NA
ENDROOT
BRANCH   1   4
ATOM      3  C   UNL     1      -4.388   6.304  -0.096  0.00  0.00    +0.143 A 
ATOM      4  C   UNL     1      -3.171   6.817   0.373  0.00  0.00    +0.038 A 
ATOM      5  C   UNL     1      -2.976   8.200   0.419  0.00  0.00    +0.028 A 
ATOM      6  C   UNL     1      -3.982   9.050   0.009  0.00  0.00    +0.020 A 
ATOM      7  C   UNL     1      -5.186   8.539  -0.449  0.00  0.00    +0.034 A 
ATOM      8  C   UNL     1      -5.390   7.172  -0.499  0.00  0.00    +0.061 A 
ATOM      9 BR   UNL     1      -7.038   6.487  -1.125  0.00  0.00    -0.046 Br
ATOM     10 BR   UNL     1      -3.718  10.922   0.072  0.00  0.00    -0.050 Br
BRANCH   3  11
ATOM     11  O   UNL     1      -4.586   4.962  -0.151  0.00  0.00    -0.488 OA
BRANCH  11  13
ATOM     12  C   UNL     1      -5.987   3.063   0.375  0.00  0.00    +0.051 C 
ATOM     13  C   UNL     1      -5.396   4.383   0.875  0.00  0.00    +0.167 C 
ATOM     14  C   UNL     1      -4.538   4.120   2.114  0.00  0.00    +0.051 C 
ENDBRANCH  11  13
ENDBRANCH   3  11
ENDBRANCH   1   4
BRANCH   2  15
ATOM     15  N   UNL     1      -1.262   3.748   1.152  0.00  0.00    -0.202 N 
ATOM     16  C   UNL     1      -1.353   2.426   0.904  0.00  0.00    +0.288 C 
ATOM     17  O   UNL     1      -2.325   1.982   0.324  0.00  0.00    -0.267 OA
ATOM     18  H   UNL     1      -0.520   4.094   1.671  0.00  0.00    +0.178 HD
BRANCH  16  19
ATOM     19  C   UNL     1      -0.269   1.516   1.337  0.00  0.00    +0.211 A 
ATOM     20  C   UNL     1      -0.168   0.048   1.168  0.00  0.00    +0.193 A 
ATOM     21  N   UNL     1       0.988  -0.225   1.728  0.00  0.00    -0.033 NA
ATOM     22  O   UNL     1       1.486   0.795   2.142  0.00  0.00    -0.240 OA
ATOM     23  N   UNL     1       0.851   1.808   1.964  0.00  0.00    -0.042 NA
ATOM     24  N   UNL     1      -1.069  -0.821   0.567  0.00  0.00    -0.339 N 
ATOM     25  H   UNL     1      -1.894  -0.479   0.189  0.00  0.00    +0.144 HD
ATOM     26  H   UNL     1      -0.873  -1.770   0.526  0.00  0.00    +0.144 HD
ENDBRANCH  16  19
ENDBRANCH   2  15
TORSDOF 5
