REMARK  Name = ZINC08961990
REMARK  8 active torsions:
REMARK  status: ('A' for Active; 'I' for Inactive)
REMARK    1  A    between atoms: C_1  and  C_2
REMARK    2  A    between atoms: C_2  and  C_3
REMARK    3  A    between atoms: C_3  and  C_4
REMARK    4  A    between atoms: N_6  and  C_7
REMARK    5  A    between atoms: C_10  and  S_13
REMARK    6  A    between atoms: S_13  and  N_16
REMARK    7  A    between atoms: N_16  and  C_17
REMARK    8  A    between atoms: C_27  and  C_30
REMARK                            x       y       z     vdW  Elec       q    Type
REMARK                         _______ _______ _______ _____ _____    ______ ____
ROOT
ATOM      1  S   UNL     1      -5.439   3.313   0.416  0.00  0.00    +0.072 S 
ATOM      2  O   UNL     1      -5.379   4.587  -0.210  0.00  0.00    -0.150 OA
ATOM      3  O   UNL     1      -6.350   2.304   0.002  0.00  0.00    -0.150 OA
ENDROOT
BRANCH   1   7
ATOM      4  C   UNL     1      -1.292   1.520   0.104  0.00  0.00    +0.033 A 
ATOM      5  C   UNL     1      -1.460   2.897   0.055  0.00  0.00    +0.025 A 
ATOM      6  C   UNL     1      -2.727   3.441   0.145  0.00  0.00    +0.030 A 
ATOM      7  C   UNL     1      -3.826   2.615   0.295  0.00  0.00    +0.109 A 
ATOM      8  C   UNL     1      -3.662   1.243   0.349  0.00  0.00    +0.030 A 
ATOM      9  C   UNL     1      -2.398   0.693   0.255  0.00  0.00    +0.025 A 
BRANCH   4  12
ATOM     10  C   UNL     1       0.924   1.561  -0.759  0.00  0.00    +0.217 C 
ATOM     11  O   UNL     1       0.631   2.523  -1.436  0.00  0.00    -0.275 OA
ATOM     12  N   UNL     1      -0.011   0.966   0.007  0.00  0.00    -0.285 N 
ATOM     13  H   UNL     1       0.203   0.151   0.488  0.00  0.00    +0.155 HD
BRANCH  10  14
ATOM     14  C   UNL     1       2.335   1.031  -0.773  0.00  0.00    +0.096 C 
BRANCH  14  16
ATOM     15  C   UNL     1       4.621   1.343  -1.732  0.00  0.00    +0.004 C 
ATOM     16  C   UNL     1       3.189   1.881  -1.717  0.00  0.00    +0.006 C 
ENDBRANCH  14  16
ENDBRANCH  10  14
ENDBRANCH   4  12
ENDBRANCH   1   7
BRANCH   1  17
ATOM     17  N   UNL     1      -5.735   3.588   2.022  0.00  0.00    -0.216 N 
ATOM     18  H   UNL     1      -6.439   3.099   2.476  0.00  0.00    +0.174 HD
BRANCH  17  19
ATOM     19  C   UNL     1      -4.968   4.526   2.724  0.00  0.00    +0.049 A 
ATOM     20  C   UNL     1      -4.701   5.767   2.156  0.00  0.00    +0.028 A 
ATOM     21  C   UNL     1      -3.948   6.701   2.840  0.00  0.00    +0.048 A 
ATOM     22  C   UNL     1      -3.454   6.406   4.099  0.00  0.00    +0.133 A 
ATOM     23  C   UNL     1      -3.717   5.153   4.676  0.00  0.00    +0.080 A 
ATOM     24  C   UNL     1      -4.483   4.217   3.984  0.00  0.00    +0.041 A 
ATOM     25  C   UNL     1      -3.174   4.854   6.014  0.00  0.00    +0.248 C 
ATOM     26  O   UNL     1      -2.594   3.806   6.227  0.00  0.00    -0.270 OA
ATOM     27  N   UNL     1      -3.333   5.766   7.002  0.00  0.00    -0.308 N 
ATOM     28  C   UNL     1      -4.128   6.971   6.752  0.00  0.00    +0.148 C 
ATOM     29  C   UNL     1      -3.353   7.959   5.890  0.00  0.00    +0.187 C 
ATOM     30  O   UNL     1      -2.720   7.314   4.792  0.00  0.00    -0.487 OA
ATOM     31  C   UNL     1      -2.286   8.641   6.749  0.00  0.00    +0.053 C 
ATOM     32  H   UNL     1      -2.924   5.623   7.870  0.00  0.00    +0.149 HD
ENDBRANCH  17  19
ENDBRANCH   1  17
TORSDOF 6
