REMARK  Name = ZINC39683614
REMARK  8 active torsions:
REMARK  status: ('A' for Active; 'I' for Inactive)
REMARK    1  A    between atoms: C_1  and  C_2
REMARK    2  A    between atoms: C_2  and  C_3
REMARK    3  A    between atoms: C_3  and  C_4
REMARK    4  A    between atoms: C_4  and  N_5
REMARK    5  A    between atoms: C_8  and  C_11
REMARK    6  A    between atoms: C_11  and  N_12
REMARK    7  A    between atoms: C_13  and  C_15
REMARK    8  A    between atoms: C_26  and  C_28
REMARK                            x       y       z     vdW  Elec       q    Type
REMARK                         _______ _______ _______ _____ _____    ______ ____
ROOT
ATOM      1  C   UNL     1       4.662  -8.016  -6.462  0.00  0.00    +0.100 C 
ATOM      2  C   UNL     1       3.235  -8.593  -6.328  0.00  0.00    +0.121 C 
ATOM      3  N   UNL     1       2.770  -8.770  -7.724  0.00  0.00    -0.300 N 
ATOM      4  C   UNL     1       3.965  -9.263  -8.450  0.00  0.00    +0.115 C 
ATOM      5  C   UNL     1       5.139  -8.461  -7.854  0.00  0.00    -0.004 C 
ATOM      6  C   UNL     1       6.375  -9.347  -7.732  0.00  0.00    -0.010 C 
ATOM      7  C   UNL     1       6.865  -9.729  -9.131  0.00  0.00    -0.082 C 
ATOM      8  N   UNL     1       7.183  -8.513  -9.889  0.00  0.00    +0.379 N 
ATOM      9  C   UNL     1       5.968  -7.712 -10.083  0.00  0.00    -0.082 C 
ATOM     10  C   UNL     1       5.440  -7.244  -8.724  0.00  0.00    -0.010 C 
ATOM     11  C   UNL     1       1.539  -8.536  -8.220  0.00  0.00    +0.219 C 
ATOM     12  O   UNL     1       1.312  -8.732  -9.396  0.00  0.00    -0.275 OA
ATOM     13  H   UNL     1       7.864  -7.970  -9.381  0.00  0.00    -0.086 HD
ATOM     14  H   UNL     1       7.562  -8.768 -10.789  0.00  0.00    -0.086 HD
ENDROOT
BRANCH  11  15
ATOM     15  C   UNL     1       0.445  -8.032  -7.316  0.00  0.00    +0.079 C 
ATOM     16  C   UNL     1       0.195  -9.049  -6.197  0.00  0.00    +0.041 C 
ATOM     17  C   UNL     1      -0.971  -8.566  -5.330  0.00  0.00    +0.160 C 
ATOM     18  O   UNL     1      -2.129  -8.387  -6.147  0.00  0.00    -0.380 OA
ATOM     19  C   UNL     1      -1.970  -7.414  -7.181  0.00  0.00    +0.160 C 
ATOM     20  C   UNL     1      -0.845  -7.850  -8.123  0.00  0.00    +0.041 C 
ENDBRANCH  11  15
BRANCH   1  22
ATOM     21  N   UNL     1       5.701  -5.841  -5.905  0.00  0.00    -0.315 N 
ATOM     22  C   UNL     1       4.630  -6.512  -6.374  0.00  0.00    +0.218 C 
ATOM     23  O   UNL     1       3.641  -5.904  -6.726  0.00  0.00    -0.275 OA
ATOM     24  H   UNL     1       6.492  -6.327  -5.624  0.00  0.00    +0.149 HD
BRANCH  21  25
ATOM     25  C   UNL     1       5.670  -4.379  -5.820  0.00  0.00    +0.107 C 
BRANCH  25  29
ATOM     26  N   UNL     1       8.399  -2.308  -3.263  0.00  0.00    +0.380 N 
ATOM     27  C   UNL     1       8.317  -1.840  -4.652  0.00  0.00    -0.079 C 
ATOM     28  C   UNL     1       7.018  -2.341  -5.286  0.00  0.00    -0.014 C 
ATOM     29  C   UNL     1       7.000  -3.873  -5.260  0.00  0.00    +0.003 C 
ATOM     30  C   UNL     1       7.162  -4.350  -3.813  0.00  0.00    -0.014 C 
ATOM     31  C   UNL     1       8.455  -3.774  -3.233  0.00  0.00    -0.079 C 
ATOM     32  H   UNL     1       7.586  -1.993  -2.755  0.00  0.00    -0.082 HD
BRANCH  26  33
ATOM     33  C   UNL     1       9.609  -1.760  -2.634  0.00  0.00    -0.079 C 
BRANCH  33  34
ATOM     34  C   UNL     1       9.495  -0.237  -2.551  0.00  0.00    -0.019 C 
BRANCH  34  36
ATOM     35  C   UNL     1      10.642   1.857  -1.814  0.00  0.00    +0.004 C 
ATOM     36  C   UNL     1      10.755   0.334  -1.897  0.00  0.00    -0.005 C 
ENDBRANCH  34  36
ENDBRANCH  33  34
ENDBRANCH  26  33
ENDBRANCH  25  29
ENDBRANCH  21  25
ENDBRANCH   1  22
TORSDOF 7
