REMARK  Name = ZINC45896315
REMARK  9 active torsions:
REMARK  status: ('A' for Active; 'I' for Inactive)
REMARK    1  A    between atoms: C_1  and  C_2
REMARK    2  A    between atoms: C_2  and  C_3
REMARK    3  A    between atoms: C_3  and  N_4
REMARK    4  A    between atoms: C_13  and  O_14
REMARK    5  A    between atoms: C_15  and  N_16
REMARK    6  A    between atoms: N_19  and  C_20
REMARK    7  A    between atoms: C_24  and  C_25
REMARK    8  A    between atoms: C_25  and  O_27
REMARK    9  A    between atoms: O_27  and  C_28
REMARK                            x       y       z     vdW  Elec       q    Type
REMARK                         _______ _______ _______ _____ _____    ______ ____
ROOT
ATOM      1  N   UNL     1      -2.073  -2.232   0.018  0.00  0.00    -0.382 N 
ATOM      2  C   UNL     1      -2.072  -2.779   1.215  0.00  0.00    +0.075 A 
ATOM      3  C   UNL     1      -1.890  -4.237   1.396  0.00  0.00    +0.042 A 
ATOM      4  C   UNL     1      -1.710  -5.085   0.308  0.00  0.00    +0.013 A 
ATOM      5  C   UNL     1      -1.542  -6.437   0.518  0.00  0.00    +0.001 A 
ATOM      6  C   UNL     1      -1.552  -6.950   1.806  0.00  0.00    +0.004 A 
ATOM      7  C   UNL     1      -1.729  -6.118   2.892  0.00  0.00    +0.047 A 
ATOM      8  C   UNL     1      -1.900  -4.753   2.700  0.00  0.00    +0.141 A 
ATOM      9  O   UNL     1      -2.075  -3.922   3.750  0.00  0.00    -0.424 OA
ATOM     10  C   UNL     1      -2.242  -2.599   3.603  0.00  0.00    +0.309 A 
ATOM     11  C   UNL     1      -2.243  -1.992   2.391  0.00  0.00    +0.140 A 
ATOM     12  H   UNL     1      -1.824  -2.760  -0.757  0.00  0.00    +0.160 HD
ENDROOT
BRANCH  11  13
ATOM     13  N   UNL     1      -2.416  -0.596   2.294  0.00  0.00    -0.262 N 
ATOM     14  C   UNL     1      -1.375   0.190   1.955  0.00  0.00    +0.308 C 
ATOM     15  O   UNL     1      -0.271  -0.296   1.798  0.00  0.00    -0.252 OA
ATOM     16  N   UNL     1      -1.557   1.515   1.790  0.00  0.00    -0.268 N 
ATOM     17  H   UNL     1      -3.284  -0.202   2.472  0.00  0.00    +0.157 HD
ATOM     18  H   UNL     1      -2.417   1.915   1.994  0.00  0.00    +0.156 HD
BRANCH  16  19
ATOM     19  C   UNL     1      -0.510   2.310   1.325  0.00  0.00    +0.056 A 
ATOM     20  C   UNL     1       0.669   1.773   0.848  0.00  0.00    +0.032 A 
ATOM     21  C   UNL     1       1.643   2.606   0.412  0.00  0.00    +0.048 A 
ATOM     22  S   UNL     1       1.006   4.144   0.628  0.00  0.00    -0.088 S 
ATOM     23  C   UNL     1      -0.584   3.703   1.303  0.00  0.00    +0.117 A 
BRANCH  23  24
ATOM     24  C   UNL     1      -1.644   4.546   1.712  0.00  0.00    +0.347 C 
ATOM     25  O   UNL     1      -2.669   4.063   2.155  0.00  0.00    -0.244 OA
BRANCH  24  26
ATOM     26  O   UNL     1      -1.519   5.886   1.610  0.00  0.00    -0.464 OA
ATOM     27  C   UNL     1      -2.629   6.676   2.041  0.00  0.00    +0.280 C 
ENDBRANCH  24  26
ENDBRANCH  23  24
ENDBRANCH  16  19
ENDBRANCH  11  13
BRANCH  10  28
ATOM     28  O   UNL     1      -2.410  -1.838   4.710  0.00  0.00    -0.479 OA
ATOM     29  H   UNL     1      -2.394  -2.339   5.537  0.00  0.00    +0.295 HD
ENDBRANCH  10  28
BRANCH   1  30
ATOM     30  C   UNL     1      -2.448  -0.825  -0.144  0.00  0.00    +0.112 C 
BRANCH  30  32
ATOM     31  C   UNL     1      -3.350   0.875  -1.738  0.00  0.00    +0.005 C 
ATOM     32  C   UNL     1      -2.958  -0.594  -1.569  0.00  0.00    +0.017 C 
ENDBRANCH  30  32
ENDBRANCH   1  30
TORSDOF 7
