REMARK  Name = ZINC21611305
REMARK  12 active torsions:
REMARK  status: ('A' for Active; 'I' for Inactive)
REMARK    1  A    between atoms: C_1  and  C_2
REMARK    2  A    between atoms: C_2  and  N_3
REMARK    3  A    between atoms: C_7  and  C_9
REMARK    4  A    between atoms: C_9  and  C_11
REMARK    5  A    between atoms: C_9  and  O_12
REMARK    6  A    between atoms: O_12  and  C_13
REMARK    7  A    between atoms: C_13  and  C_15
REMARK    8  A    between atoms: N_18  and  S_21
REMARK    9  A    between atoms: S_21  and  C_24
REMARK   10  A    between atoms: C_27  and  C_30
REMARK   11  A    between atoms: C_30  and  C_31
REMARK   12  A    between atoms: C_30  and  C_32
REMARK                            x       y       z     vdW  Elec       q    Type
REMARK                         _______ _______ _______ _____ _____    ______ ____
ROOT
ATOM      1  C   UNL     1       1.151   6.116   3.788  0.00  0.00    +0.100 C 
ATOM      2  C   UNL     1       2.396   5.969   2.909  0.00  0.00    +0.032 C 
ATOM      3  C   UNL     1       2.423   4.564   2.300  0.00  0.00    +0.110 C 
ATOM      4  N   UNL     1       1.155   4.329   1.596  0.00  0.00    -0.177 NA
ATOM      5  C   UNL     1      -0.105   4.535   2.322  0.00  0.00    +0.110 C 
ATOM      6  C   UNL     1      -0.104   5.936   2.932  0.00  0.00    +0.032 C 
ENDROOT
BRANCH   4   7
ATOM      7  S   UNL     1       1.147   3.847   0.011  0.00  0.00    +0.061 S 
ATOM      8  O   UNL     1       2.382   4.273  -0.549  0.00  0.00    -0.153 OA
ATOM      9  O   UNL     1      -0.109   4.239  -0.526  0.00  0.00    -0.153 OA
BRANCH   7  10
ATOM     10  C   UNL     1       1.171   2.086   0.002  0.00  0.00    +0.105 A 
ATOM     11  C   UNL     1      -0.017   1.378   0.010  0.00  0.00    +0.029 A 
ATOM     12  C   UNL     1       0.002  -0.004   0.002  0.00  0.00    +0.006 A 
ATOM     13  C   UNL     1       1.208  -0.679  -0.013  0.00  0.00    -0.045 A 
ATOM     14  C   UNL     1       2.396   0.029  -0.021  0.00  0.00    +0.006 A 
ATOM     15  C   UNL     1       2.377   1.411  -0.015  0.00  0.00    +0.029 A 
BRANCH  13  16
ATOM     16  C   UNL     1       1.229  -2.186  -0.021  0.00  0.00    +0.013 C 
ATOM     17  C   UNL     1       1.944  -2.680  -1.279  0.00  0.00    +0.012 C 
ATOM     18  C   UNL     1       1.969  -2.692   1.219  0.00  0.00    +0.012 C 
ENDBRANCH  13  16
ENDBRANCH   7  10
ENDBRANCH   4   7
BRANCH   1  19
ATOM     19  C   UNL     1       1.139   7.486   4.416  0.00  0.00    +0.311 C 
ATOM     20  O   UNL     1       2.033   8.264   4.185  0.00  0.00    -0.251 OA
BRANCH  19  21
ATOM     21  O   UNL     1       0.135   7.840   5.233  0.00  0.00    -0.452 OA
BRANCH  21  22
ATOM     22  C   UNL     1       0.188   9.175   5.802  0.00  0.00    +0.259 C 
ATOM     23  C   UNL     1       0.944   9.133   7.131  0.00  0.00    +0.062 C 
BRANCH  22  28
ATOM     24  N   UNL     1      -2.868  12.648   7.110  0.00  0.00    -0.299 N 
ATOM     25  C   UNL     1      -2.667  11.387   6.679  0.00  0.00    +0.306 C 
ATOM     26  O   UNL     1      -3.617  10.655   6.480  0.00  0.00    -0.252 OA
ATOM     27  N   UNL     1      -1.414  10.938   6.468  0.00  0.00    -0.237 N 
ATOM     28  C   UNL     1      -1.214   9.677   6.037  0.00  0.00    +0.261 C 
ATOM     29  O   UNL     1      -2.160   8.946   5.839  0.00  0.00    -0.271 OA
ATOM     30  H   UNL     1      -2.009  13.311   7.290  0.00  0.00    +0.150 HD
ATOM     31  H   UNL     1      -0.555  11.601   6.648  0.00  0.00    +0.159 HD
BRANCH  24  33
ATOM     32  C   UNL     1      -4.178  14.587   7.821  0.00  0.00    +0.024 C 
ATOM     33  C   UNL     1      -4.230  13.136   7.338  0.00  0.00    +0.102 C 
ENDBRANCH  24  33
ENDBRANCH  22  28
ENDBRANCH  21  22
ENDBRANCH  19  21
ENDBRANCH   1  19
TORSDOF 8
