REMARK  Name = ZINC60386548
REMARK  9 active torsions:
REMARK  status: ('A' for Active; 'I' for Inactive)
REMARK    1  A    between atoms: C_1  and  C_2
REMARK    2  A    between atoms: C_2  and  C_3
REMARK    3  A    between atoms: C_3  and  C_4
REMARK    4  A    between atoms: C_4  and  C_5
REMARK    5  A    between atoms: C_5  and  C_28
REMARK    6  A    between atoms: N_8  and  C_12
REMARK    7  A    between atoms: C_12  and  C_13
REMARK    8  A    between atoms: N_15  and  C_16
REMARK    9  A    between atoms: C_17  and  C_25
REMARK                            x       y       z     vdW  Elec       q    Type
REMARK                         _______ _______ _______ _____ _____    ______ ____
ROOT
ATOM      1  C   UNL     1      -5.625  -0.697  -1.562  0.00  0.00    +0.214 C 
ENDROOT
BRANCH   1   5
ATOM      2  C   UNL     1      -2.848  -2.593   0.015  0.00  0.00    +0.138 C 
ATOM      3  C   UNL     1      -3.606  -2.103  -1.202  0.00  0.00    +0.251 C 
ATOM      4  O   UNL     1      -3.348  -2.326  -2.365  0.00  0.00    -0.272 OA
ATOM      5  N   UNL     1      -4.629  -1.368  -0.723  0.00  0.00    -0.215 N 
ATOM      6  C   UNL     1      -4.622  -1.325   0.615  0.00  0.00    +0.310 C 
ATOM      7  O   UNL     1      -5.446  -0.724   1.276  0.00  0.00    -0.252 OA
ATOM      8  N   UNL     1      -3.602  -2.023   1.145  0.00  0.00    -0.281 N 
ATOM      9  H   UNL     1      -3.402  -2.131   2.088  0.00  0.00    +0.152 HD
BRANCH   2  10
ATOM     10  C   UNL     1      -2.855  -4.099   0.078  0.00  0.00    -0.015 A 
ATOM     11  C   UNL     1      -1.815  -4.819  -0.478  0.00  0.00    +0.006 A 
ATOM     12  C   UNL     1      -1.821  -6.200  -0.420  0.00  0.00    +0.000 A 
ATOM     13  C   UNL     1      -2.869  -6.861   0.193  0.00  0.00    +0.000 A 
ATOM     14  C   UNL     1      -3.909  -6.141   0.750  0.00  0.00    +0.000 A 
ATOM     15  C   UNL     1      -3.900  -4.760   0.697  0.00  0.00    +0.006 A 
ENDBRANCH   2  10
BRANCH   2  16
ATOM     16  C   UNL     1      -1.413  -2.063   0.004  0.00  0.00    +0.040 C 
BRANCH  16  17
ATOM     17  C   UNL     1      -1.433  -0.534   0.013  0.00  0.00    +0.003 C 
BRANCH  17  19
ATOM     18  C   UNL     1      -0.019   1.526   0.010  0.00  0.00    +0.004 C 
ATOM     19  C   UNL     1       0.002  -0.004   0.002  0.00  0.00    -0.003 C 
ENDBRANCH  17  19
ENDBRANCH  16  17
ENDBRANCH   2  16
ENDBRANCH   1   5
BRANCH   1  20
ATOM     20  C   UNL     1      -6.783  -1.628  -1.810  0.00  0.00    +0.236 C 
ATOM     21  O   UNL     1      -6.777  -2.743  -1.332  0.00  0.00    -0.274 OA
ATOM     22  N   UNL     1      -7.825  -1.223  -2.562  0.00  0.00    -0.278 N 
ATOM     23  H   UNL     1      -7.830  -0.331  -2.944  0.00  0.00    +0.155 HD
BRANCH  22  24
ATOM     24  C   UNL     1      -8.891  -2.080  -2.790  0.00  0.00    +0.084 A 
ATOM     25  C   UNL     1     -10.034  -1.839  -3.535  0.00  0.00    +0.068 A 
ATOM     26  C   UNL     1     -11.010  -2.912  -3.620  0.00  0.00    -0.023 A 
ATOM     27  C   UNL     1     -10.664  -4.028  -2.944  0.00  0.00    -0.004 A 
ATOM     28  S   UNL     1      -9.089  -3.652  -2.232  0.00  0.00    -0.077 S 
ATOM     29  C   UNL     1     -11.454  -5.296  -2.837  0.00  0.00    +0.043 C 
ATOM     30  C   UNL     1     -12.890  -5.010  -3.299  0.00  0.00    +0.005 C 
ATOM     31  C   UNL     1     -12.842  -4.247  -4.626  0.00  0.00    +0.005 C 
ATOM     32  C   UNL     1     -12.319  -2.828  -4.392  0.00  0.00    +0.037 C 
BRANCH  25  33
ATOM     33  C   UNL     1     -10.249  -0.555  -4.210  0.00  0.00    +0.244 C 
ATOM     34  O   UNL     1      -9.856  -0.393  -5.350  0.00  0.00    -0.270 OA
ATOM     35  N   UNL     1     -10.883   0.446  -3.567  0.00  0.00    -0.325 N 
ATOM     36  H   UNL     1     -11.196   0.317  -2.658  0.00  0.00    +0.145 HD
ATOM     37  H   UNL     1     -11.025   1.295  -4.013  0.00  0.00    +0.145 HD
ENDBRANCH  25  33
ENDBRANCH  22  24
ENDBRANCH   1  20
TORSDOF 8
