REMARK  Name = ZINC59489448
REMARK  13 active torsions:
REMARK  status: ('A' for Active; 'I' for Inactive)
REMARK    1  A    between atoms: C_1  and  C_2
REMARK    2  A    between atoms: C_2  and  C_26
REMARK    3  A    between atoms: N_3  and  N_4
REMARK    4  A    between atoms: C_5  and  S_7
REMARK    5  A    between atoms: S_7  and  C_8
REMARK    6  A    between atoms: N_13  and  C_16
REMARK    7  A    between atoms: C_19  and  C_22
REMARK    8  A    between atoms: C_22  and  O_24
REMARK    9  A    between atoms: O_24  and  C_25
REMARK   10  A    between atoms: C_27  and  C_28
REMARK   11  A    between atoms: C_31  and  N_34
REMARK   12  A    between atoms: N_34  and  C_35
REMARK   13  A    between atoms: N_34  and  C_36
REMARK                            x       y       z     vdW  Elec       q    Type
REMARK                         _______ _______ _______ _____ _____    ______ ____
ROOT
ATOM      1  N   UNL     1       0.337   0.049   1.691  0.00  0.00    -0.217 N 
ATOM      2  C   UNL     1       0.417  -0.733   2.821  0.00  0.00    +0.146 C 
ATOM      3  N   UNL     1       0.637  -2.015   2.713  0.00  0.00    -0.380 N 
ATOM      4  H   UNL     1       0.173   1.002   1.772  0.00  0.00    +0.176 HD
ATOM      5  H   UNL     1       0.694  -2.566   3.509  0.00  0.00    +0.158 HD
ATOM      6  H   UNL     1       0.745  -2.416   1.836  0.00  0.00    +0.158 HD
ENDROOT
BRANCH   1   9
ATOM      7  C   UNL     1       0.161   1.690  -0.519  0.00  0.00    +0.067 C 
ATOM      8  C   UNL     1       0.416   0.210  -0.644  0.00  0.00    +0.056 C 
ATOM      9  N   UNL     1       0.492  -0.530   0.425  0.00  0.00    -0.186 NA
BRANCH   8  10
ATOM     10  C   UNL     1       0.573  -0.377  -1.925  0.00  0.00    +0.025 C 
ATOM     11  C   UNL     1       0.801  -1.702  -2.037  0.00  0.00    +0.010 C 
BRANCH  11  12
ATOM     12  C   UNL     1       0.964  -2.311  -3.366  0.00  0.00    -0.025 A 
ATOM     13  C   UNL     1       0.888  -1.516  -4.515  0.00  0.00    +0.010 A 
ATOM     14  C   UNL     1       1.042  -2.090  -5.758  0.00  0.00    +0.023 A 
ATOM     15  C   UNL     1       1.272  -3.458  -5.871  0.00  0.00    +0.029 A 
ATOM     16  C   UNL     1       1.347  -4.251  -4.731  0.00  0.00    +0.023 A 
ATOM     17  C   UNL     1       1.200  -3.685  -3.484  0.00  0.00    +0.010 A 
BRANCH  15  18
ATOM     18  N   UNL     1       1.426  -4.035  -7.131  0.00  0.00    -0.336 N 
ATOM     19  C   UNL     1       1.470  -3.187  -8.325  0.00  0.00    +0.129 C 
ATOM     20  C   UNL     1       1.544  -5.489  -7.262  0.00  0.00    +0.129 C 
ENDBRANCH  15  18
ENDBRANCH  11  12
ENDBRANCH   8  10
ENDBRANCH   1   9
BRANCH   2  21
ATOM     21  S   UNL     1       0.222  -0.004   4.413  0.00  0.00    -0.078 S 
BRANCH  21  22
ATOM     22  C   UNL     1       0.404  -1.398   5.560  0.00  0.00    +0.149 C 
ATOM     23  C   UNL     1       0.329  -0.912   7.021  0.00  0.00    +0.120 C 
ATOM     24  C   UNL     1      -0.881  -1.634   7.573  0.00  0.00    +0.228 C 
ATOM     25  O   UNL     1      -1.302  -1.535   8.706  0.00  0.00    -0.275 OA
ATOM     26  N   UNL     1      -1.413  -2.400   6.612  0.00  0.00    -0.209 N 
ATOM     27  C   UNL     1      -0.769  -2.346   5.436  0.00  0.00    +0.240 C 
ATOM     28  O   UNL     1      -1.076  -2.956   4.435  0.00  0.00    -0.274 OA
BRANCH  26  29
ATOM     29  C   UNL     1      -2.546  -3.192   6.818  0.00  0.00    +0.044 A 
ATOM     30  C   UNL     1      -3.727  -2.611   7.268  0.00  0.00    +0.025 A 
ATOM     31  C   UNL     1      -4.845  -3.389   7.472  0.00  0.00    +0.017 A 
ATOM     32  C   UNL     1      -4.793  -4.763   7.224  0.00  0.00    +0.059 A 
ATOM     33  C   UNL     1      -3.604  -5.344   6.771  0.00  0.00    +0.017 A 
ATOM     34  C   UNL     1      -2.492  -4.559   6.565  0.00  0.00    +0.025 A 
BRANCH  32  35
ATOM     35  C   UNL     1      -5.988  -5.600   7.442  0.00  0.00    +0.339 C 
ATOM     36  O   UNL     1      -7.020  -5.094   7.836  0.00  0.00    -0.245 OA
BRANCH  35  37
ATOM     37  O   UNL     1      -5.936  -6.925   7.203  0.00  0.00    -0.464 OA
ATOM     38  C   UNL     1      -7.130  -7.673   7.435  0.00  0.00    +0.280 C 
ENDBRANCH  35  37
ENDBRANCH  32  35
ENDBRANCH  26  29
ENDBRANCH  21  22
ENDBRANCH   2  21
TORSDOF 9
