REMARK  Name = ZINC55029169
REMARK  7 active torsions:
REMARK  status: ('A' for Active; 'I' for Inactive)
REMARK    1  A    between atoms: C_1  and  C_2
REMARK    2  A    between atoms: C_5  and  N_8
REMARK    3  A    between atoms: C_9  and  C_11
REMARK    4  A    between atoms: C_11  and  C_13
REMARK    5  A    between atoms: C_11  and  N_14
REMARK    6  A    between atoms: C_17  and  N_20
REMARK    7  A    between atoms: N_23  and  C_24
REMARK                            x       y       z     vdW  Elec       q    Type
REMARK                         _______ _______ _______ _____ _____    ______ ____
ROOT
ATOM      1  N   UNL     1      -1.748  -3.264   5.931  0.00  0.00    +0.387 N 
ATOM      2  C   UNL     1      -2.526  -2.846   7.103  0.00  0.00    -0.076 C 
ATOM      3  C   UNL     1      -2.265  -3.810   8.263  0.00  0.00    +0.004 C 
ATOM      4  C   UNL     1      -2.684  -5.223   7.849  0.00  0.00    +0.071 C 
ATOM      5  C   UNL     1      -1.921  -5.620   6.582  0.00  0.00    +0.004 C 
ATOM      6  C   UNL     1      -2.194  -4.590   5.484  0.00  0.00    -0.076 C 
ATOM      7  H   UNL     1      -0.770  -3.304   6.175  0.00  0.00    -0.081 HD
ENDROOT
BRANCH   4   8
ATOM      8  N   UNL     1      -2.367  -6.164   8.926  0.00  0.00    -0.297 N 
ATOM      9  C   UNL     1      -3.056  -7.317   9.039  0.00  0.00    +0.300 C 
ATOM     10  O   UNL     1      -3.940  -7.577   8.246  0.00  0.00    -0.253 OA
ATOM     11  N   UNL     1      -2.764  -8.182  10.030  0.00  0.00    -0.297 N 
ATOM     12  H   UNL     1      -1.662  -5.957   9.559  0.00  0.00    +0.151 HD
ATOM     13  H   UNL     1      -2.059  -7.975  10.663  0.00  0.00    +0.151 HD
BRANCH  11  14
ATOM     14  C   UNL     1      -3.512  -9.436  10.152  0.00  0.00    +0.074 C 
ATOM     15  C   UNL     1      -2.886 -10.494   9.243  0.00  0.00    +0.022 C 
ATOM     16  C   UNL     1      -3.667 -11.803   9.370  0.00  0.00    +0.002 C 
ATOM     17  C   UNL     1      -3.621 -12.286  10.822  0.00  0.00    +0.000 C 
ATOM     18  C   UNL     1      -4.248 -11.227  11.731  0.00  0.00    +0.002 C 
ATOM     19  C   UNL     1      -3.466  -9.918  11.604  0.00  0.00    +0.022 C 
ENDBRANCH  11  14
ENDBRANCH   4   8
BRANCH   1  20
ATOM     20  C   UNL     1      -1.941  -2.293   4.845  0.00  0.00    +0.016 C 
ATOM     21  C   UNL     1      -1.468  -0.913   5.306  0.00  0.00    -0.004 C 
BRANCH  20  23
ATOM     22  N   UNL     1      -1.558  -2.385   2.403  0.00  0.00    -0.314 N 
ATOM     23  C   UNL     1      -1.143  -2.722   3.641  0.00  0.00    +0.199 C 
ATOM     24  O   UNL     1      -0.128  -3.369   3.785  0.00  0.00    -0.278 OA
ATOM     25  H   UNL     1      -2.370  -1.867   2.288  0.00  0.00    +0.149 HD
BRANCH  22  30
ATOM     26  C   UNL     1      -1.805   0.901  -0.761  0.00  0.00    +0.007 C 
ATOM     27  C   UNL     1      -1.194  -0.478  -0.504  0.00  0.00    -0.014 C 
ATOM     28  C   UNL     1      -2.311  -1.491  -0.246  0.00  0.00    +0.005 C 
ATOM     29  C   UNL     1      -1.700  -2.870   0.011  0.00  0.00    +0.022 C 
ATOM     30  C   UNL     1      -0.782  -2.801   1.232  0.00  0.00    +0.073 C 
ATOM     31  C   UNL     1       0.335  -1.789   0.974  0.00  0.00    +0.022 C 
ATOM     32  C   UNL     1      -0.276  -0.410   0.717  0.00  0.00    +0.005 C 
ENDBRANCH  22  30
ENDBRANCH  20  23
ENDBRANCH   1  20
TORSDOF 5
