REMARK  Name = ZINC06283922
REMARK  13 active torsions:
REMARK  status: ('A' for Active; 'I' for Inactive)
REMARK    1  A    between atoms: C_1  and  C_2
REMARK    2  A    between atoms: C_2  and  C_3
REMARK    3  A    between atoms: C_6  and  N_9
REMARK    4  A    between atoms: N_9  and  C_10
REMARK    5  A    between atoms: C_10  and  N_12
REMARK    6  A    between atoms: N_12  and  C_13
REMARK    7  A    between atoms: N_12  and  C_21
REMARK    8  A    between atoms: C_13  and  C_14
REMARK    9  A    between atoms: C_19  and  C_20
REMARK   10  A    between atoms: C_23  and  C_29
REMARK   11  A    between atoms: C_23  and  C_30
REMARK   12  A    between atoms: C_25  and  C_27
REMARK   13  A    between atoms: C_25  and  C_28
REMARK                            x       y       z     vdW  Elec       q    Type
REMARK                         _______ _______ _______ _____ _____    ______ ____
ROOT
ATOM      1  N   UNL     1       3.063  -2.635   6.939  0.00  0.00    -0.305 N 
ENDROOT
BRANCH   1   2
ATOM      2  C   UNL     1       4.531  -2.659   6.929  0.00  0.00    +0.073 C 
ATOM      3  C   UNL     1       5.011  -4.097   7.132  0.00  0.00    +0.009 C 
ATOM      4  C   UNL     1       6.539  -4.138   7.137  0.00  0.00    -0.072 C 
ATOM      5  N   UNL     1       7.109  -3.216   8.109  0.00  0.00    +0.386 N 
ATOM      6  C   UNL     1       6.580  -1.863   8.147  0.00  0.00    -0.072 C 
ATOM      7  C   UNL     1       5.057  -1.810   8.086  0.00  0.00    +0.009 C 
ATOM      8  C   UNL     1       7.177  -0.989   7.041  0.00  0.00    -0.010 C 
ATOM      9  C   UNL     1       7.006  -1.236   9.496  0.00  0.00    -0.010 C 
ATOM     10  C   UNL     1       7.078  -3.894   5.728  0.00  0.00    -0.010 C 
ATOM     11  C   UNL     1       6.958  -5.568   7.547  0.00  0.00    -0.010 C 
ATOM     12  H   UNL     1       7.006  -3.629   9.040  0.00  0.00    -0.084 HD
ATOM     13  H   UNL     1       8.118  -3.164   7.949  0.00  0.00    -0.084 HD
ENDBRANCH   1   2
BRANCH   1  14
ATOM     14  C   UNL     1       2.388  -2.238   5.841  0.00  0.00    +0.138 C 
ATOM     15  S   UNL     1       0.682  -2.099   5.889  0.00  0.00    -0.018 S 
BRANCH  14  16
ATOM     16  N   UNL     1       3.056  -1.951   4.707  0.00  0.00    -0.297 N 
ATOM     17  H   UNL     1       3.000  -2.551   3.946  0.00  0.00    +0.154 HD
BRANCH  16  21
ATOM     18  C   UNL     1       5.360   1.511   4.465  0.00  0.00    -0.048 A 
ATOM     19  C   UNL     1       5.381   0.595   3.429  0.00  0.00    +0.005 A 
ATOM     20  C   UNL     1       4.618  -0.554   3.506  0.00  0.00    +0.023 A 
ATOM     21  C   UNL     1       3.830  -0.788   4.626  0.00  0.00    +0.033 A 
ATOM     22  C   UNL     1       3.811   0.134   5.664  0.00  0.00    +0.023 A 
ATOM     23  C   UNL     1       4.580   1.278   5.583  0.00  0.00    +0.005 A 
BRANCH  18  25
ATOM     24  C   UNL     1       7.577   2.498   4.972  0.00  0.00    +0.009 C 
ATOM     25  C   UNL     1       6.193   2.764   4.378  0.00  0.00    +0.032 C 
ENDBRANCH  18  25
ENDBRANCH  16  21
ENDBRANCH  14  16
ENDBRANCH   1  14
BRANCH   1  26
ATOM     26  C   UNL     1       2.332  -3.042   8.141  0.00  0.00    +0.142 C 
BRANCH  26  27
ATOM     27  C   UNL     1       1.895  -4.477   8.002  0.00  0.00    -0.027 A 
ATOM     28  C   UNL     1       2.234  -5.196   6.870  0.00  0.00    +0.005 A 
ATOM     29  C   UNL     1       1.833  -6.513   6.742  0.00  0.00    +0.000 A 
ATOM     30  C   UNL     1       1.093  -7.111   7.746  0.00  0.00    +0.000 A 
ATOM     31  C   UNL     1       0.755  -6.392   8.877  0.00  0.00    +0.003 A 
ATOM     32  C   UNL     1       1.159  -5.077   9.007  0.00  0.00    -0.046 A 
ATOM     33  C   UNL     1       0.794  -4.295  10.242  0.00  0.00    +0.044 C 
ENDBRANCH  26  27
ENDBRANCH   1  26
TORSDOF 7
