REMARK  Name = ZINC15081100
REMARK  8 active torsions:
REMARK  status: ('A' for Active; 'I' for Inactive)
REMARK    1  A    between atoms: C_1  and  C_2
REMARK    2  A    between atoms: C_2  and  O_32
REMARK    3  A    between atoms: C_6  and  O_10
REMARK    4  A    between atoms: C_11  and  C_26
REMARK    5  A    between atoms: C_13  and  C_15
REMARK    6  A    between atoms: N_17  and  C_18
REMARK    7  A    between atoms: C_23  and  O_24
REMARK    8  A    between atoms: O_24  and  C_25
REMARK                            x       y       z     vdW  Elec       q    Type
REMARK                         _______ _______ _______ _____ _____    ______ ____
ROOT
ATOM      1  C   UNL     1       2.107   3.206   1.610  0.00  0.00    +0.042 C 
ATOM      2  C   UNL     1       2.227   3.066   0.091  0.00  0.00    +0.081 C 
ATOM      3  C   UNL     1       0.919   2.500  -0.475  0.00  0.00    +0.090 C 
ATOM      4  C   UNL     1      -0.149   3.558  -0.354  0.00  0.00    +0.046 A 
ATOM      5  C   UNL     1       0.104   4.873  -0.134  0.00  0.00    +0.044 A 
ATOM      6  C   UNL     1      -1.120   5.544  -0.076  0.00  0.00    +0.235 A 
ATOM      7  N   UNL     1      -2.075   4.661  -0.264  0.00  0.00    -0.136 NA
ATOM      8  N   UNL     1      -1.481   3.402  -0.435  0.00  0.00    -0.278 N 
ATOM      9  H   UNL     1      -1.964   2.540  -0.590  0.00  0.00    +0.189 HD
ATOM     10  C   UNL     1       1.488   5.455   0.014  0.00  0.00    +0.071 C 
ATOM     11  C   UNL     1       2.500   4.439  -0.528  0.00  0.00    +0.119 C 
ENDROOT
BRANCH  10  12
ATOM     12  C   UNL     1       1.585   6.737  -0.772  0.00  0.00    -0.039 A 
ATOM     13  C   UNL     1       2.282   7.814  -0.256  0.00  0.00    +0.004 A 
ATOM     14  C   UNL     1       2.375   8.988  -0.979  0.00  0.00    +0.000 A 
ATOM     15  C   UNL     1       1.763   9.089  -2.215  0.00  0.00    +0.000 A 
ATOM     16  C   UNL     1       1.061   8.015  -2.729  0.00  0.00    +0.000 A 
ATOM     17  C   UNL     1       0.972   6.839  -2.007  0.00  0.00    +0.004 A 
ENDBRANCH  10  12
BRANCH  11  18
ATOM     18  C   UNL     1       2.369   4.349  -2.026  0.00  0.00    +0.224 C 
ATOM     19  O   UNL     1       1.292   4.106  -2.528  0.00  0.00    -0.275 OA
ATOM     20  N   UNL     1       3.449   4.540  -2.810  0.00  0.00    -0.282 N 
ATOM     21  H   UNL     1       4.326   4.651  -2.409  0.00  0.00    +0.155 HD
BRANCH  20  22
ATOM     22  C   UNL     1       3.306   4.578  -4.203  0.00  0.00    +0.076 A 
ATOM     23  C   UNL     1       2.313   3.833  -4.821  0.00  0.00    +0.027 A 
ATOM     24  C   UNL     1       2.170   3.876  -6.195  0.00  0.00    +0.002 A 
ATOM     25  C   UNL     1       3.022   4.654  -6.958  0.00  0.00    +0.004 A 
ATOM     26  C   UNL     1       4.018   5.395  -6.350  0.00  0.00    +0.047 A 
ATOM     27  C   UNL     1       4.165   5.361  -4.972  0.00  0.00    +0.141 A 
BRANCH  27  28
ATOM     28  O   UNL     1       5.143   6.090  -4.373  0.00  0.00    -0.493 OA
ATOM     29  C   UNL     1       5.986   6.869  -5.224  0.00  0.00    +0.277 C 
ENDBRANCH  27  28
ENDBRANCH  20  22
ENDBRANCH  11  18
BRANCH   6  30
ATOM     30  O   UNL     1      -1.293   6.877   0.130  0.00  0.00    -0.491 OA
ATOM     31  H   UNL     1      -2.269   7.091   0.124  0.00  0.00    +0.294 HD
ENDBRANCH   6  30
BRANCH   2  32
ATOM     32  O   UNL     1       3.304   2.179  -0.222  0.00  0.00    -0.388 OA
ATOM     33  H   UNL     1       3.197   1.289   0.140  0.00  0.00    +0.210 HD
ENDBRANCH   2  32
TORSDOF 6
