REMARK  Name = ZINC16980632
REMARK  14 active torsions:
REMARK  status: ('A' for Active; 'I' for Inactive)
REMARK    1  A    between atoms: C_1  and  C_2
REMARK    2  A    between atoms: C_2  and  N_68
REMARK    3  A    between atoms: C_3  and  C_4
REMARK    4  A    between atoms: C_3  and  N_68
REMARK    5  A    between atoms: C_5  and  C_6
REMARK    6  A    between atoms: C_5  and  N_68
REMARK    7  A    between atoms: C_6  and  C_7
REMARK    8  A    between atoms: C_7  and  N_8
REMARK    9  A    between atoms: C_18  and  S_19
REMARK   10  A    between atoms: S_19  and  C_20
REMARK   11  A    between atoms: C_20  and  C_22
REMARK   12  A    between atoms: C_20  and  C_23
REMARK   13  A    between atoms: N_28  and  C_29
REMARK   14  A    between atoms: C_29  and  C_30
REMARK                            x       y       z     vdW  Elec       q    Type
REMARK                         _______ _______ _______ _____ _____    ______ ____
ROOT
ATOM      1  N   UNL     1       1.431  -6.218   5.815  0.00  0.00    -0.287 N 
ATOM      2  C   UNL     1       1.190  -6.363   7.139  0.00  0.00    +0.262 A 
ATOM      3  O   UNL     1       1.330  -7.438   7.692  0.00  0.00    -0.267 OA
ATOM      4  C   UNL     1       0.754  -5.173   7.883  0.00  0.00    +0.065 A 
ATOM      5  C   UNL     1       0.481  -5.218   9.249  0.00  0.00    +0.015 A 
ATOM      6  C   UNL     1       0.079  -4.081   9.893  0.00  0.00    +0.001 A 
ATOM      7  C   UNL     1      -0.061  -2.885   9.201  0.00  0.00    +0.002 A 
ATOM      8  C   UNL     1       0.199  -2.812   7.862  0.00  0.00    +0.028 A 
ATOM      9  C   UNL     1       0.613  -3.958   7.175  0.00  0.00    +0.079 A 
ATOM     10  N   UNL     1       0.886  -3.930   5.855  0.00  0.00    -0.223 NA
ATOM     11  C   UNL     1       1.269  -5.005   5.210  0.00  0.00    +0.173 A 
ENDROOT
BRANCH   1  12
ATOM     12  C   UNL     1       1.868  -7.372   5.025  0.00  0.00    +0.125 C 
BRANCH  12  13
ATOM     13  C   UNL     1       3.396  -7.447   5.036  0.00  0.00    +0.003 C 
BRANCH  13  14
ATOM     14  C   UNL     1       3.854  -8.652   4.211  0.00  0.00    -0.077 C 
BRANCH  14  15
ATOM     15  N   UNL     1       5.331  -8.699   4.214  0.00  0.00    +0.379 N 
ATOM     16  H   UNL     1       5.694  -7.781   3.932  0.00  0.00    -0.082 HD
BRANCH  15  18
ATOM     17  C   UNL     1       5.282 -10.367   6.038  0.00  0.00    -0.017 C 
ATOM     18  C   UNL     1       5.824  -9.014   5.571  0.00  0.00    -0.082 C 
ENDBRANCH  15  18
BRANCH  15  19
ATOM     19  C   UNL     1       5.806  -9.719   3.255  0.00  0.00    -0.082 C 
ATOM     20  C   UNL     1       7.299  -9.501   3.005  0.00  0.00    -0.017 C 
ENDBRANCH  15  19
ENDBRANCH  14  15
ENDBRANCH  13  14
ENDBRANCH  12  13
ENDBRANCH   1  12
BRANCH  11  21
ATOM     21  S   UNL     1       1.597  -4.876   3.484  0.00  0.00    -0.075 S 
BRANCH  21  22
ATOM     22  C   UNL     1       1.235  -3.121   3.225  0.00  0.00    +0.137 C 
ATOM     23  C   UNL     1      -0.250  -2.864   3.484  0.00  0.00    +0.029 C 
BRANCH  22  24
ATOM     24  C   UNL     1       1.571  -2.743   1.805  0.00  0.00    +0.233 C 
ATOM     25  O   UNL     1       1.570  -3.588   0.936  0.00  0.00    -0.274 OA
ATOM     26  N   UNL     1       1.872  -1.465   1.502  0.00  0.00    -0.239 N 
ATOM     27  C   UNL     1       2.172  -1.127   0.232  0.00  0.00    +0.306 C 
ATOM     28  O   UNL     1       2.171  -1.974  -0.639  0.00  0.00    -0.252 OA
ATOM     29  N   UNL     1       2.474   0.151  -0.072  0.00  0.00    -0.295 N 
ATOM     30  H   UNL     1       1.873  -0.789   2.197  0.00  0.00    +0.159 HD
ATOM     31  H   UNL     1       2.475   0.828   0.624  0.00  0.00    +0.151 HD
BRANCH  29  32
ATOM     32  C   UNL     1       2.800   0.519  -1.452  0.00  0.00    +0.141 C 
BRANCH  32  33
ATOM     33  C   UNL     1       3.096   1.995  -1.522  0.00  0.00    -0.030 A 
ATOM     34  C   UNL     1       2.076   2.893  -1.774  0.00  0.00    +0.005 A 
ATOM     35  C   UNL     1       2.347   4.247  -1.833  0.00  0.00    +0.000 A 
ATOM     36  C   UNL     1       3.639   4.702  -1.651  0.00  0.00    +0.000 A 
ATOM     37  C   UNL     1       4.660   3.804  -1.404  0.00  0.00    +0.000 A 
ATOM     38  C   UNL     1       4.388   2.450  -1.340  0.00  0.00    +0.005 A 
ENDBRANCH  32  33
ENDBRANCH  29  32
ENDBRANCH  22  24
ENDBRANCH  21  22
ENDBRANCH  11  21
TORSDOF 11
