REMARK  Name = ZINC09168996
REMARK  9 active torsions:
REMARK  status: ('A' for Active; 'I' for Inactive)
REMARK    1  A    between atoms: C_1  and  C_2
REMARK    2  A    between atoms: C_2  and  C_3
REMARK    3  A    between atoms: C_2  and  C_4
REMARK    4  A    between atoms: N_6  and  C_7
REMARK    5  A    between atoms: C_10  and  S_13
REMARK    6  A    between atoms: S_13  and  N_16
REMARK    7  A    between atoms: N_16  and  C_17
REMARK    8  A    between atoms: C_25  and  C_29
REMARK    9  A    between atoms: C_25  and  C_30
REMARK                            x       y       z     vdW  Elec       q    Type
REMARK                         _______ _______ _______ _____ _____    ______ ____
ROOT
ATOM      1  N   UNL     1      -1.106   3.919  -4.417  0.00  0.00    -0.216 N 
ATOM      2  H   UNL     1      -0.938   3.686  -5.344  0.00  0.00    +0.174 HD
ENDROOT
BRANCH   1   3
ATOM      3  C   UNL     1      -1.403   2.918  -3.487  0.00  0.00    +0.052 A 
ATOM      4  C   UNL     1      -2.445   3.094  -2.587  0.00  0.00    +0.026 A 
ATOM      5  C   UNL     1      -2.742   2.105  -1.667  0.00  0.00    +0.029 A 
ATOM      6  C   UNL     1      -1.997   0.937  -1.644  0.00  0.00    +0.076 A 
ATOM      7  C   UNL     1      -0.947   0.759  -2.543  0.00  0.00    +0.143 A 
ATOM      8  C   UNL     1      -0.653   1.748  -3.465  0.00  0.00    +0.072 A 
ATOM      9  O   UNL     1      -0.214  -0.385  -2.504  0.00  0.00    -0.489 OA
ATOM     10  C   UNL     1       0.726  -0.519  -1.445  0.00  0.00    +0.244 C 
ATOM     11  C   UNL     1       0.112  -0.068  -0.121  0.00  0.00    +0.076 C 
ATOM     12  C   UNL     1      -1.286  -0.616   0.011  0.00  0.00    +0.226 C 
ATOM     13  O   UNL     1      -1.510  -1.537   0.769  0.00  0.00    -0.275 OA
ATOM     14  N   UNL     1      -2.288  -0.077  -0.718  0.00  0.00    -0.282 N 
ATOM     15  C   UNL     1       0.063   1.461  -0.079  0.00  0.00    +0.024 C 
ATOM     16  C   UNL     1       0.970  -0.581   1.037  0.00  0.00    +0.024 C 
ATOM     17  H   UNL     1      -3.200  -0.388  -0.602  0.00  0.00    +0.155 HD
ENDBRANCH   1   3
BRANCH   1  18
ATOM     18  S   UNL     1      -1.044   5.503  -3.937  0.00  0.00    +0.072 S 
ATOM     19  O   UNL     1      -0.700   6.263  -5.088  0.00  0.00    -0.150 OA
ATOM     20  O   UNL     1      -2.228   5.747  -3.190  0.00  0.00    -0.150 OA
BRANCH  18  24
ATOM     21  C   UNL     1       2.418   5.891  -1.044  0.00  0.00    +0.034 A 
ATOM     22  C   UNL     1       2.624   6.080  -2.405  0.00  0.00    +0.025 A 
ATOM     23  C   UNL     1       1.566   5.961  -3.284  0.00  0.00    +0.030 A 
ATOM     24  C   UNL     1       0.303   5.654  -2.812  0.00  0.00    +0.109 A 
ATOM     25  C   UNL     1       0.094   5.471  -1.457  0.00  0.00    +0.030 A 
ATOM     26  C   UNL     1       1.149   5.583  -0.573  0.00  0.00    +0.025 A 
BRANCH  21  29
ATOM     27  C   UNL     1       4.475   6.895  -0.395  0.00  0.00    +0.220 C 
ATOM     28  O   UNL     1       4.392   7.650  -1.341  0.00  0.00    -0.275 OA
ATOM     29  N   UNL     1       3.488   6.010  -0.150  0.00  0.00    -0.285 N 
ATOM     30  H   UNL     1       3.519   5.457   0.645  0.00  0.00    +0.155 HD
BRANCH  27  32
ATOM     31  C   UNL     1       6.644   8.027   0.010  0.00  0.00    +0.017 C 
ATOM     32  C   UNL     1       5.682   6.945   0.506  0.00  0.00    +0.069 C 
ATOM     33  C   UNL     1       5.240   7.271   1.934  0.00  0.00    +0.017 C 
ENDBRANCH  27  32
ENDBRANCH  21  29
ENDBRANCH  18  24
ENDBRANCH   1  18
TORSDOF 5
