REMARK  Name = ZINC38669075
REMARK  10 active torsions:
REMARK  status: ('A' for Active; 'I' for Inactive)
REMARK    1  A    between atoms: C_1  and  C_2
REMARK    2  A    between atoms: C_5  and  C_30
REMARK    3  A    between atoms: N_8  and  C_10
REMARK    4  A    between atoms: C_10  and  C_11
REMARK    5  A    between atoms: N_13  and  C_14
REMARK    6  A    between atoms: C_18  and  C_20
REMARK    7  A    between atoms: C_20  and  O_22
REMARK    8  A    between atoms: O_22  and  C_23
REMARK    9  A    between atoms: C_27  and  O_28
REMARK   10  A    between atoms: O_28  and  C_29
REMARK                            x       y       z     vdW  Elec       q    Type
REMARK                         _______ _______ _______ _____ _____    ______ ____
ROOT
ATOM      1  C   UNL     1       6.051  -1.673   2.819  0.00  0.00    +0.056 C 
ATOM      2  C   UNL     1       7.407  -1.883   2.964  0.00  0.00    +0.059 A 
ATOM      3  C   UNL     1       8.104  -1.328   1.789  0.00  0.00    +0.048 A 
ATOM      4  N   UNL     1       7.235  -0.798   0.950  0.00  0.00    -0.367 N 
ATOM      5  C   UNL     1       5.883  -0.962   1.495  0.00  0.00    +0.234 C 
ATOM      6  C   UNL     1       9.514  -1.439   1.737  0.00  0.00    +0.026 A 
ATOM      7  C   UNL     1      10.195  -2.040   2.743  0.00  0.00    +0.006 A 
ATOM      8  C   UNL     1       9.565  -2.572   3.864  0.00  0.00    +0.046 A 
ATOM      9  C   UNL     1       8.208  -2.517   4.012  0.00  0.00    +0.131 A 
ATOM     10  H   UNL     1       7.455  -0.372   0.106  0.00  0.00    +0.161 HD
ENDROOT
BRANCH   1  13
ATOM     11  C   UNL     1       3.774  -1.968   3.308  0.00  0.00    +0.200 C 
ATOM     12  O   UNL     1       3.486  -1.543   2.210  0.00  0.00    -0.278 OA
ATOM     13  N   UNL     1       5.066  -2.036   3.688  0.00  0.00    -0.288 N 
ATOM     14  H   UNL     1       5.293  -2.344   4.579  0.00  0.00    +0.155 HD
BRANCH  11  15
ATOM     15  C   UNL     1       2.687  -2.421   4.249  0.00  0.00    +0.019 C 
BRANCH  15  21
ATOM     16  C   UNL     1      -0.167   1.353   2.993  0.00  0.00    +0.005 C 
ATOM     17  C   UNL     1      -0.058  -0.173   3.026  0.00  0.00    -0.031 C 
ATOM     18  C   UNL     1      -1.212  -0.750   3.851  0.00  0.00    +0.003 C 
ATOM     19  C   UNL     1      -1.050  -2.270   3.944  0.00  0.00    -0.031 C 
ATOM     20  C   UNL     1       0.316  -2.595   4.551  0.00  0.00    -0.075 C 
ATOM     21  N   UNL     1       1.377  -2.039   3.704  0.00  0.00    +0.386 N 
ATOM     22  C   UNL     1       1.272  -0.576   3.667  0.00  0.00    -0.075 C 
ATOM     23  C   UNL     1      -2.155  -2.849   4.830  0.00  0.00    +0.005 C 
ATOM     24  H   UNL     1       1.286  -2.405   2.768  0.00  0.00    -0.081 HD
ENDBRANCH  15  21
ENDBRANCH  11  15
ENDBRANCH   1  13
BRANCH   5  25
ATOM     25  C   UNL     1       5.246   0.388   1.707  0.00  0.00    +0.335 C 
ATOM     26  O   UNL     1       5.900   1.302   2.148  0.00  0.00    -0.248 OA
BRANCH  25  27
ATOM     27  O   UNL     1       3.951   0.573   1.405  0.00  0.00    -0.466 OA
ATOM     28  C   UNL     1       3.444   1.905   1.512  0.00  0.00    +0.280 C 
ENDBRANCH  25  27
ENDBRANCH   5  25
BRANCH   9  29
ATOM     29  O   UNL     1       7.613  -3.042   5.111  0.00  0.00    -0.494 OA
ATOM     30  C   UNL     1       8.467  -3.643   6.087  0.00  0.00    +0.277 C 
ENDBRANCH   9  29
TORSDOF 6
