REMARK  Name = ZINC13591268
REMARK  9 active torsions:
REMARK  status: ('A' for Active; 'I' for Inactive)
REMARK    1  A    between atoms: C_1  and  C_2
REMARK    2  A    between atoms: C_3  and  C_33
REMARK    3  A    between atoms: C_9  and  C_32
REMARK    4  A    between atoms: C_10  and  C_17
REMARK    5  A    between atoms: C_15  and  C_16
REMARK    6  A    between atoms: C_17  and  C_18
REMARK    7  A    between atoms: N_20  and  C_21
REMARK    8  A    between atoms: C_21  and  C_22
REMARK    9  A    between atoms: C_27  and  C_30
REMARK                            x       y       z     vdW  Elec       q    Type
REMARK                         _______ _______ _______ _____ _____    ______ ____
ROOT
ATOM      1  C   UNL     1       6.898  -1.374  -0.073  0.00  0.00    +0.048 C 
ATOM      2  C   UNL     1       6.257  -0.010  -0.059  0.00  0.00    -0.002 A 
ATOM      3  C   UNL     1       6.883   1.173  -0.059  0.00  0.00    +0.106 A 
ATOM      4  O   UNL     1       5.987   2.175  -0.045  0.00  0.00    -0.459 OA
ATOM      5  C   UNL     1       4.726   1.695  -0.035  0.00  0.00    +0.142 A 
ATOM      6  C   UNL     1       4.818   0.288  -0.043  0.00  0.00    +0.024 A 
ATOM      7  C   UNL     1       3.670  -0.492  -0.036  0.00  0.00    +0.023 A 
ATOM      8  C   UNL     1       2.422   0.130  -0.021  0.00  0.00    +0.022 A 
ATOM      9  C   UNL     1       1.188  -0.663  -0.013  0.00  0.00    -0.029 A 
ATOM     10  C   UNL     1       0.002  -0.004   0.002  0.00  0.00    +0.049 A 
ATOM     11  C   UNL     1      -0.017   1.407   0.010  0.00  0.00    +0.341 A 
ATOM     12  O   UNL     1      -1.089   1.985   0.018  0.00  0.00    -0.245 OA
ATOM     13  O   UNL     1       1.114   2.129   0.003  0.00  0.00    -0.422 OA
ATOM     14  C   UNL     1       2.330   1.538  -0.012  0.00  0.00    +0.146 A 
ATOM     15  C   UNL     1       3.481   2.306  -0.019  0.00  0.00    +0.035 A 
ATOM     16  C   UNL     1       3.381   3.810  -0.010  0.00  0.00    +0.051 C 
ATOM     17  C   UNL     1       1.237  -2.169  -0.022  0.00  0.00    +0.045 C 
ATOM     18  C   UNL     1       8.379   1.355  -0.074  0.00  0.00    +0.086 C 
ENDROOT
BRANCH  10  19
ATOM     19  C   UNL     1      -1.291  -0.777   0.010  0.00  0.00    +0.138 C 
BRANCH  19  20
ATOM     20  C   UNL     1      -1.736  -1.027  -1.408  0.00  0.00    +0.218 C 
ATOM     21  O   UNL     1      -1.068  -0.618  -2.334  0.00  0.00    -0.275 OA
ATOM     22  N   UNL     1      -2.875  -1.706  -1.648  0.00  0.00    -0.306 N 
ATOM     23  H   UNL     1      -3.410  -2.033  -0.907  0.00  0.00    +0.149 HD
BRANCH  22  24
ATOM     24  C   UNL     1      -3.307  -1.949  -3.026  0.00  0.00    +0.200 C 
BRANCH  24  25
ATOM     25  C   UNL     1      -4.601  -2.722  -3.019  0.00  0.00    +0.233 C 
ATOM     26  O   UNL     1      -5.112  -3.039  -1.965  0.00  0.00    -0.274 OA
ATOM     27  N   UNL     1      -5.190  -3.062  -4.182  0.00  0.00    -0.300 N 
ATOM     28  C   UNL     1      -4.586  -2.680  -5.466  0.00  0.00    +0.108 C 
ATOM     29  C   UNL     1      -5.627  -1.938  -6.304  0.00  0.00    +0.034 C 
ATOM     30  C   UNL     1      -6.884  -2.801  -6.432  0.00  0.00    +0.105 C 
ATOM     31  C   UNL     1      -7.473  -3.056  -5.043  0.00  0.00    +0.034 C 
ATOM     32  C   UNL     1      -6.451  -3.815  -4.191  0.00  0.00    +0.108 C 
BRANCH  30  33
ATOM     33  C   UNL     1      -7.900  -2.084  -7.284  0.00  0.00    +0.359 C 
ATOM     34  O   UNL     1      -8.983  -1.806  -6.827  0.00  0.00    -0.246 OA
ATOM     35  O   UNL     1      -7.601  -1.755  -8.550  0.00  0.00    -0.246 OA
ENDBRANCH  30  33
ENDBRANCH  24  25
ENDBRANCH  22  24
ENDBRANCH  19  20
ENDBRANCH  10  19
TORSDOF 5
