REMARK  Name = ZINC24311610
REMARK  9 active torsions:
REMARK  status: ('A' for Active; 'I' for Inactive)
REMARK    1  A    between atoms: C_1  and  C_2
REMARK    2  A    between atoms: C_2  and  C_3
REMARK    3  A    between atoms: C_3  and  C_4
REMARK    4  A    between atoms: C_3  and  C_5
REMARK    5  A    between atoms: C_3  and  C_6
REMARK    6  A    between atoms: N_14  and  C_18
REMARK    7  A    between atoms: C_18  and  C_19
REMARK    8  A    between atoms: C_24  and  C_27
REMARK    9  A    between atoms: N_29  and  C_30
REMARK                            x       y       z     vdW  Elec       q    Type
REMARK                         _______ _______ _______ _____ _____    ______ ____
ROOT
ATOM      1  C   UNL     1       7.019   8.455   2.538  0.00  0.00    +0.213 C 
ENDROOT
BRANCH   1  10
ATOM      2  C   UNL     1       6.249  12.557   6.928  0.00  0.00    -0.005 C 
ATOM      3  C   UNL     1       5.707  12.678   5.503  0.00  0.00    +0.006 C 
ATOM      4  C   UNL     1       6.875  12.702   4.514  0.00  0.00    +0.035 C 
ATOM      5  C   UNL     1       7.691  11.422   4.658  0.00  0.00    +0.113 C 
ATOM      6  C   UNL     1       8.221  11.278   6.081  0.00  0.00    +0.035 C 
ATOM      7  C   UNL     1       7.048  11.259   7.064  0.00  0.00    +0.006 C 
ATOM      8  C   UNL     1       6.856  10.220   4.283  0.00  0.00    +0.247 C 
ATOM      9  O   UNL     1       5.835   9.840   4.815  0.00  0.00    -0.273 OA
ATOM     10  N   UNL     1       7.486   9.658   3.231  0.00  0.00    -0.215 N 
ATOM     11  C   UNL     1       8.594  10.333   2.901  0.00  0.00    +0.310 C 
ATOM     12  O   UNL     1       9.333  10.017   1.990  0.00  0.00    -0.252 OA
ATOM     13  N   UNL     1       8.797  11.405   3.692  0.00  0.00    -0.285 N 
ATOM     14  H   UNL     1       9.572  12.185   3.728  0.00  0.00    +0.151 HD
BRANCH   2  15
ATOM     15  C   UNL     1       5.083  12.543   7.918  0.00  0.00    -0.032 C 
ATOM     16  C   UNL     1       4.285  13.842   7.785  0.00  0.00    +0.011 C 
ATOM     17  C   UNL     1       4.172  11.352   7.617  0.00  0.00    +0.011 C 
BRANCH  15  19
ATOM     18  C   UNL     1       4.459  12.408  10.334  0.00  0.00    +0.004 C 
ATOM     19  C   UNL     1       5.625  12.422   9.344  0.00  0.00    +0.003 C 
ENDBRANCH  15  19
ENDBRANCH   2  15
ENDBRANCH   1  10
BRANCH   1  20
ATOM     20  C   UNL     1       6.096   8.849   1.413  0.00  0.00    +0.234 C 
ATOM     21  O   UNL     1       5.853  10.019   1.210  0.00  0.00    -0.274 OA
ATOM     22  N   UNL     1       5.542   7.900   0.633  0.00  0.00    -0.300 N 
ATOM     23  C   UNL     1       4.641   8.268  -0.467  0.00  0.00    +0.108 C 
ATOM     24  C   UNL     1       3.327   7.496  -0.308  0.00  0.00    +0.032 C 
ATOM     25  C   UNL     1       3.628   5.998  -0.217  0.00  0.00    +0.078 C 
ATOM     26  C   UNL     1       4.501   5.726   1.010  0.00  0.00    +0.032 C 
ATOM     27  C   UNL     1       5.827   6.478   0.866  0.00  0.00    +0.108 C 
BRANCH  25  28
ATOM     28  C   UNL     1       2.336   5.233  -0.095  0.00  0.00    +0.220 C 
ATOM     29  O   UNL     1       1.278   5.827  -0.082  0.00  0.00    -0.275 OA
ATOM     30  N   UNL     1       2.356   3.889  -0.001  0.00  0.00    -0.285 N 
ATOM     31  H   UNL     1       3.315   3.357   0.075  0.00  0.00    +0.155 HD
BRANCH  30  32
ATOM     32  C   UNL     1       1.155   3.170   0.002  0.00  0.00    +0.033 A 
ATOM     33  C   UNL     1       0.070   3.626  -0.735  0.00  0.00    +0.023 A 
ATOM     34  C   UNL     1      -1.114   2.914  -0.730  0.00  0.00    +0.002 A 
ATOM     35  C   UNL     1      -1.221   1.752   0.012  0.00  0.00    +0.000 A 
ATOM     36  C   UNL     1      -0.141   1.293   0.742  0.00  0.00    +0.002 A 
ATOM     37  C   UNL     1       1.046   2.000   0.742  0.00  0.00    +0.023 A 
ENDBRANCH  30  32
ENDBRANCH  25  28
ENDBRANCH   1  20
TORSDOF 6
