REMARK  Name = ZINC30602905
REMARK  6 active torsions:
REMARK  status: ('A' for Active; 'I' for Inactive)
REMARK    1  A    between atoms: C_1  and  C_2
REMARK    2  A    between atoms: C_2  and  C_3
REMARK    3  A    between atoms: C_2  and  C_4
REMARK    4  A    between atoms: C_4  and  C_5
REMARK    5  A    between atoms: N_7  and  N_8
REMARK    6  A    between atoms: C_9  and  C_11
REMARK                            x       y       z     vdW  Elec       q    Type
REMARK                         _______ _______ _______ _____ _____    ______ ____
ROOT
ATOM      1  C   UNL     1       2.482   1.503  -0.010  0.00  0.00    +0.062 A 
ATOM      2  C   UNL     1       3.385   2.564  -0.014  0.00  0.00    +0.015 A 
ATOM      3  C   UNL     1       2.933   3.871  -0.009  0.00  0.00    +0.001 A 
ATOM      4  C   UNL     1       1.581   4.146   0.002  0.00  0.00    +0.010 A 
ATOM      5  C   UNL     1       0.656   3.100   0.007  0.00  0.00    +0.004 A 
ATOM      6  C   UNL     1       1.102   1.766   0.001  0.00  0.00    +0.059 A 
ATOM      7  N   UNL     1      -0.011   0.966   0.007  0.00  0.00    -0.357 N 
ATOM      8  H   UNL     1       0.099  -0.129   0.005  0.00  0.00    +0.166 HD
ATOM      9  C   UNL     1      -1.146   1.736   0.016  0.00  0.00    +0.020 A 
ATOM     10  C   UNL     1      -0.805   3.035   0.017  0.00  0.00    -0.019 A 
ATOM     11  C   UNL     1      -1.758   4.202   0.012  0.00  0.00    +0.037 C 
ATOM     12  C   UNL     1      -3.068   3.792   0.688  0.00  0.00    +0.005 C 
ATOM     13  C   UNL     1      -4.015   3.201  -0.354  0.00  0.00    +0.001 C 
ATOM     14  C   UNL     1      -3.404   1.954  -0.987  0.00  0.00    +0.006 C 
ATOM     15  C   UNL     1      -2.561   1.209   0.050  0.00  0.00    +0.053 C 
ENDROOT
BRANCH   1  17
ATOM     16  N   UNL     1       4.296  -0.137  -0.026  0.00  0.00    -0.230 N 
ATOM     17  C   UNL     1       2.971   0.111  -0.015  0.00  0.00    +0.262 C 
ATOM     18  O   UNL     1       2.180  -0.812  -0.011  0.00  0.00    -0.269 OA
ATOM     19  H   UNL     1       5.012   0.698  -0.030  0.00  0.00    +0.173 HD
BRANCH  16  22
ATOM     20  C   UNL     1       6.085  -1.707  -0.041  0.00  0.00    +0.229 C 
ATOM     21  O   UNL     1       6.875  -0.786  -0.046  0.00  0.00    -0.274 OA
ATOM     22  N   UNL     1       4.761  -1.459  -0.031  0.00  0.00    -0.234 N 
ATOM     23  H   UNL     1       4.045  -2.294  -0.027  0.00  0.00    +0.173 HD
BRANCH  20  24
ATOM     24  C   UNL     1       6.586  -3.128  -0.047  0.00  0.00    +0.100 C 
BRANCH  24  26
ATOM     25  C   UNL     1       8.624  -4.569   0.061  0.00  0.00    +0.008 C 
ATOM     26  C   UNL     1       8.116  -3.131  -0.059  0.00  0.00    -0.008 C 
ATOM     27  C   UNL     1       8.617  -2.520  -1.369  0.00  0.00    +0.008 C 
ENDBRANCH  24  26
ENDBRANCH  20  24
ENDBRANCH  16  22
ENDBRANCH   1  17
TORSDOF 4
