REMARK  Name = ZINC21725389
REMARK  4 active torsions:
REMARK  status: ('A' for Active; 'I' for Inactive)
REMARK    1  A    between atoms: C_1  and  C_2
REMARK    2  A    between atoms: C_2  and  O_3
REMARK    3  A    between atoms: O_3  and  C_4
REMARK    4  A    between atoms: C_7  and  C_10
REMARK                            x       y       z     vdW  Elec       q    Type
REMARK                         _______ _______ _______ _____ _____    ______ ____
ROOT
ATOM      1  C   UNL     1       5.846  -6.399  -0.094  0.00  0.00    +0.063 C 
ATOM      2  C   UNL     1       4.653  -7.064  -0.788  0.00  0.00    +0.109 C 
ATOM      3  C   UNL     1       3.352  -6.473  -0.329  0.00  0.00    +0.219 C 
ATOM      4  O   UNL     1       2.389  -7.201  -0.206  0.00  0.00    -0.275 OA
ATOM      5  N   UNL     1       3.215  -5.159  -0.049  0.00  0.00    -0.270 N 
ATOM      6  C   UNL     1       4.360  -4.364  -0.062  0.00  0.00    +0.134 A 
ATOM      7  C   UNL     1       5.617  -4.910  -0.080  0.00  0.00    +0.020 A 
ATOM      8  C   UNL     1       6.535  -3.870  -0.083  0.00  0.00    +0.141 A 
ATOM      9  N   UNL     1       5.874  -2.736  -0.074  0.00  0.00    -0.171 NA
ATOM     10  N   UNL     1       4.499  -3.021  -0.056  0.00  0.00    -0.194 N 
ATOM     11  C   UNL     1       3.468  -2.089  -0.042  0.00  0.00    +0.196 A 
ATOM     12  N   UNL     1       3.542  -0.779  -0.035  0.00  0.00    -0.221 NA
ATOM     13  C   UNL     1       2.447   0.010  -0.021  0.00  0.00    +0.081 A 
ATOM     14  C   UNL     1       2.389   1.423  -0.013  0.00  0.00    +0.029 A 
ATOM     15  C   UNL     1       1.184   2.074   0.002  0.00  0.00    +0.002 A 
ATOM     16  C   UNL     1      -0.017   1.378   0.010  0.00  0.00    +0.001 A 
ATOM     17  C   UNL     1       0.002  -0.004   0.002  0.00  0.00    +0.017 A 
ATOM     18  C   UNL     1       1.205  -0.665  -0.013  0.00  0.00    +0.041 A 
ATOM     19  S   UNL     1       1.703  -2.371  -0.026  0.00  0.00    -0.048 S 
ATOM     20  H   UNL     1       2.222  -4.746   0.181  0.00  0.00    +0.156 HD
ENDROOT
BRANCH   1  24
ATOM     21  C   UNL     1       6.171  -7.845   3.914  0.00  0.00    +0.121 A 
ATOM     22  C   UNL     1       7.226  -8.009   3.029  0.00  0.00    +0.046 A 
ATOM     23  C   UNL     1       7.119  -7.541   1.734  0.00  0.00    +0.008 A 
ATOM     24  C   UNL     1       5.960  -6.909   1.319  0.00  0.00    -0.039 A 
ATOM     25  C   UNL     1       4.910  -6.739   2.201  0.00  0.00    +0.008 A 
ATOM     26  C   UNL     1       5.010  -7.210   3.496  0.00  0.00    +0.046 A 
BRANCH  21  27
ATOM     27  O   UNL     1       6.274  -8.305   5.189  0.00  0.00    -0.492 OA
BRANCH  27  29
ATOM     28  C   UNL     1       5.449  -8.680   7.429  0.00  0.00    +0.048 C 
ATOM     29  C   UNL     1       5.148  -8.101   6.045  0.00  0.00    +0.225 C 
ENDBRANCH  27  29
ENDBRANCH  21  27
ENDBRANCH   1  24
TORSDOF 3
