REMARK  Name = ZINC13571315
REMARK  10 active torsions:
REMARK  status: ('A' for Active; 'I' for Inactive)
REMARK    1  A    between atoms: C_1  and  O_2
REMARK    2  A    between atoms: O_2  and  C_3
REMARK    3  A    between atoms: C_7  and  O_9
REMARK    4  A    between atoms: O_9  and  C_10
REMARK    5  A    between atoms: C_10  and  C_11
REMARK    6  A    between atoms: C_11  and  C_12
REMARK    7  A    between atoms: C_12  and  N_13
REMARK    8  A    between atoms: C_15  and  C_22
REMARK    9  A    between atoms: N_28  and  C_31
REMARK   10  A    between atoms: C_31  and  C_32
REMARK                            x       y       z     vdW  Elec       q    Type
REMARK                         _______ _______ _______ _____ _____    ______ ____
ROOT
ATOM      1  N   UNL     1      -5.415  -8.289   0.025  0.00  0.00    -0.346 N 
ATOM      2  C   UNL     1      -5.519  -9.113  -1.033  0.00  0.00    +0.094 A 
ATOM      3  C   UNL     1      -4.918 -10.325  -0.737  0.00  0.00    +0.001 A 
ATOM      4  C   UNL     1      -4.407 -10.201   0.644  0.00  0.00    +0.007 A 
ATOM      5  C   UNL     1      -4.744  -8.905   1.063  0.00  0.00    +0.050 A 
ATOM      6  C   UNL     1      -4.384  -8.487   2.340  0.00  0.00    +0.026 A 
ATOM      7  C   UNL     1      -3.700  -9.343   3.177  0.00  0.00    +0.002 A 
ATOM      8  C   UNL     1      -3.365 -10.622   2.759  0.00  0.00    +0.001 A 
ATOM      9  C   UNL     1      -3.720 -11.057   1.500  0.00  0.00    +0.010 A 
ENDROOT
BRANCH   3  10
ATOM     10  C   UNL     1      -4.816 -11.448  -1.581  0.00  0.00    +0.028 C 
ATOM     11  C   UNL     1      -4.439 -11.288  -2.908  0.00  0.00    +0.102 C 
ATOM     12  C   UNL     1      -3.945  -9.995  -3.419  0.00  0.00    +0.276 C 
ATOM     13  N   UNL     1      -3.597  -9.911  -4.714  0.00  0.00    -0.123 NA
ATOM     14  C   UNL     1      -3.685 -10.937  -5.523  0.00  0.00    +0.336 C 
ATOM     15  O   UNL     1      -3.314 -10.767  -6.807  0.00  0.00    -0.250 OA
ATOM     16  N   UNL     1      -4.127 -12.162  -5.140  0.00  0.00    -0.213 N 
ATOM     17  C   UNL     1      -4.507 -12.402  -3.867  0.00  0.00    +0.260 C 
ATOM     18  O   UNL     1      -4.898 -13.503  -3.525  0.00  0.00    -0.269 OA
ATOM     19  O   UNL     1      -3.855  -9.025  -2.684  0.00  0.00    -0.268 OA
BRANCH  16  20
ATOM     20  C   UNL     1      -4.187 -13.245  -6.125  0.00  0.00    +0.192 C 
BRANCH  20  21
ATOM     21  C   UNL     1      -2.879 -13.993  -6.131  0.00  0.00    +0.123 A 
ATOM     22  C   UNL     1      -2.580 -15.062  -5.371  0.00  0.00    +0.046 A 
ATOM     23  C   UNL     1      -1.258 -15.439  -5.697  0.00  0.00    +0.041 A 
ATOM     24  C   UNL     1      -0.827 -14.578  -6.636  0.00  0.00    +0.195 A 
ATOM     25  O   UNL     1      -1.815 -13.708  -6.899  0.00  0.00    -0.466 OA
ENDBRANCH  20  21
ENDBRANCH  16  20
ENDBRANCH   3  10
BRANCH   1  26
ATOM     26  C   UNL     1      -5.939  -6.921   0.069  0.00  0.00    +0.125 C 
BRANCH  26  27
ATOM     27  C   UNL     1      -4.830  -5.938  -0.313  0.00  0.00    +0.062 C 
BRANCH  27  28
ATOM     28  C   UNL     1      -5.376  -4.510  -0.267  0.00  0.00    +0.231 C 
BRANCH  28  29
ATOM     29  O   UNL     1      -4.340  -3.592  -0.624  0.00  0.00    -0.492 OA
BRANCH  29  34
ATOM     30  C   UNL     1      -4.037   0.019  -0.977  0.00  0.00    +0.124 A 
ATOM     31  C   UNL     1      -5.325   0.418  -0.648  0.00  0.00    +0.046 A 
ATOM     32  C   UNL     1      -6.277  -0.526  -0.313  0.00  0.00    +0.007 A 
ATOM     33  C   UNL     1      -5.949  -1.869  -0.305  0.00  0.00    +0.046 A 
ATOM     34  C   UNL     1      -4.662  -2.272  -0.632  0.00  0.00    +0.124 A 
ATOM     35  C   UNL     1      -3.707  -1.327  -0.975  0.00  0.00    +0.091 A 
BRANCH  30  37
ATOM     36  C   UNL     1      -3.510   2.317  -1.287  0.00  0.00    +0.277 C 
ATOM     37  O   UNL     1      -3.101   0.948  -1.306  0.00  0.00    -0.495 OA
ENDBRANCH  30  37
ENDBRANCH  29  34
ENDBRANCH  28  29
ENDBRANCH  27  28
ENDBRANCH  26  27
ENDBRANCH   1  26
TORSDOF 9
