REMARK  Name = ZINC11364263
REMARK  13 active torsions:
REMARK  status: ('A' for Active; 'I' for Inactive)
REMARK    1  A    between atoms: C_1  and  C_2
REMARK    2  A    between atoms: C_2  and  C_3
REMARK    3  A    between atoms: C_3  and  C_4
REMARK    4  A    between atoms: C_4  and  N_5
REMARK    5  A    between atoms: C_6  and  N_35
REMARK    6  A    between atoms: C_7  and  N_14
REMARK    7  A    between atoms: N_14  and  C_15
REMARK    8  A    between atoms: C_20  and  C_22
REMARK    9  A    between atoms: C_22  and  N_70
REMARK   10  A    between atoms: C_23  and  C_24
REMARK   11  A    between atoms: C_23  and  N_70
REMARK   12  A    between atoms: C_25  and  C_26
REMARK   13  A    between atoms: C_25  and  N_70
REMARK                            x       y       z     vdW  Elec       q    Type
REMARK                         _______ _______ _______ _____ _____    ______ ____
ROOT
ATOM      1  N   UNL     1      10.220  -2.653   1.255  0.00  0.00    -0.263 N 
ATOM      2  C   UNL     1       9.064  -2.534   0.569  0.00  0.00    +0.204 C 
ATOM      3  O   UNL     1       8.058  -2.163   1.135  0.00  0.00    -0.277 OA
ENDROOT
BRANCH   1   6
ATOM      4  N   UNL     1      13.159  -2.444  -0.940  0.00  0.00    -0.280 N 
ATOM      5  C   UNL     1      11.997  -2.091  -0.294  0.00  0.00    +0.127 A 
ATOM      6  C   UNL     1      11.412  -2.986   0.578  0.00  0.00    +0.140 A 
ATOM      7  C   UNL     1      12.028  -4.234   0.784  0.00  0.00    +0.277 A 
ATOM      8  O   UNL     1      11.535  -5.042   1.553  0.00  0.00    -0.266 OA
ATOM      9  N   UNL     1      13.163  -4.533   0.123  0.00  0.00    -0.273 N 
ATOM     10  H   UNL     1      13.598  -5.422   0.263  0.00  0.00    +0.173 HD
ATOM     11  C   UNL     1      13.719  -3.647  -0.723  0.00  0.00    +0.331 A 
ATOM     12  O   UNL     1      14.747  -3.941  -1.304  0.00  0.00    -0.246 OA
BRANCH   5  13
ATOM     13  N   UNL     1      11.425  -0.860  -0.515  0.00  0.00    -0.343 N 
ATOM     14  H   UNL     1      10.651  -0.586   0.001  0.00  0.00    +0.144 HD
ATOM     15  H   UNL     1      11.796  -0.267  -1.187  0.00  0.00    +0.144 HD
ENDBRANCH   5  13
BRANCH   4  16
ATOM     16  C   UNL     1      13.791  -1.503  -1.869  0.00  0.00    +0.128 C 
BRANCH  16  17
ATOM     17  C   UNL     1      14.782  -0.621  -1.107  0.00  0.00    +0.021 C 
BRANCH  17  19
ATOM     18  C   UNL     1      16.433   1.243  -1.315  0.00  0.00    +0.004 C 
ATOM     19  C   UNL     1      15.441   0.361  -2.077  0.00  0.00    -0.002 C 
ENDBRANCH  17  19
ENDBRANCH  16  17
ENDBRANCH   4  16
ENDBRANCH   1   6
BRANCH   1  20
ATOM     20  C   UNL     1      10.237  -2.436   2.704  0.00  0.00    +0.082 C 
ATOM     21  C   UNL     1       9.250  -3.400   3.394  0.00  0.00    +0.023 C 
ATOM     22  C   UNL     1       8.641  -2.559   4.545  0.00  0.00    +0.002 C 
ATOM     23  C   UNL     1       8.499  -1.156   3.905  0.00  0.00    +0.002 C 
ATOM     24  C   UNL     1       9.760  -1.010   3.029  0.00  0.00    +0.023 C 
ENDBRANCH   1  20
BRANCH   2  25
ATOM     25  C   UNL     1       9.024  -2.863  -0.901  0.00  0.00    +0.020 C 
BRANCH  25  26
ATOM     26  N   UNL     1       7.625  -2.768  -1.370  0.00  0.00    +0.388 N 
ATOM     27  H   UNL     1       7.009  -3.199  -0.671  0.00  0.00    -0.081 HD
BRANCH  26  28
ATOM     28  C   UNL     1       7.472  -3.486  -2.652  0.00  0.00    -0.081 C 
ATOM     29  C   UNL     1       7.573  -4.990  -2.389  0.00  0.00    -0.017 C 
ENDBRANCH  26  28
BRANCH  26  30
ATOM     30  C   UNL     1       7.244  -1.350  -1.537  0.00  0.00    -0.042 C 
BRANCH  30  31
ATOM     31  C   UNL     1       5.762  -1.272  -1.799  0.00  0.00    -0.060 A 
ATOM     32  C   UNL     1       4.879  -1.171  -0.740  0.00  0.00    +0.005 A 
ATOM     33  C   UNL     1       3.519  -1.100  -0.975  0.00  0.00    +0.050 A 
ATOM     34  C   UNL     1       3.037  -1.130  -2.274  0.00  0.00    +0.166 A 
ATOM     35  C   UNL     1       3.927  -1.231  -3.340  0.00  0.00    +0.166 A 
ATOM     36  C   UNL     1       5.289  -1.303  -3.097  0.00  0.00    +0.051 A 
ATOM     37  O   UNL     1       3.213  -1.241  -4.504  0.00  0.00    -0.453 OA
ATOM     38  C   UNL     1       1.910  -0.734  -4.160  0.00  0.00    +0.466 C 
ATOM     39  O   UNL     1       1.766  -1.077  -2.769  0.00  0.00    -0.453 OA
ENDBRANCH  30  31
ENDBRANCH  26  30
ENDBRANCH  25  26
ENDBRANCH   2  25
TORSDOF 11
