REMARK  Name = ZINC18196311
REMARK  5 active torsions:
REMARK  status: ('A' for Active; 'I' for Inactive)
REMARK    1  A    between atoms: C_3  and  C_6
REMARK    2  A    between atoms: C_11  and  C_21
REMARK    3  A    between atoms: C_18  and  O_19
REMARK    4  A    between atoms: C_23  and  N_28
REMARK    5  A    between atoms: C_26  and  O_27
REMARK                            x       y       z     vdW  Elec       q    Type
REMARK                         _______ _______ _______ _____ _____    ______ ____
ROOT
ATOM      1  C   UNL     1       3.761   1.845  -0.024  0.00  0.00    +0.039 C 
ATOM      2  C   UNL     1       4.505   1.325   1.206  0.00  0.00    +0.060 C 
ATOM      3  C   UNL     1       5.941   1.799   1.173  0.00  0.00    +0.017 C 
ATOM      4  C   UNL     1       6.576   1.999  -0.002  0.00  0.00    +0.024 C 
ATOM      5  C   UNL     1       8.013   2.469  -0.077  0.00  0.00    +0.096 C 
ATOM      6  C   UNL     1       8.661   2.337   1.272  0.00  0.00    +0.067 A 
ATOM      7  C   UNL     1       7.937   2.122   2.415  0.00  0.00    +0.126 A 
ATOM      8  N   UNL     1       8.804   2.055   3.443  0.00  0.00    -0.260 N 
ATOM      9  H   UNL     1       8.576   1.913   4.375  0.00  0.00    +0.190 HD
ATOM     10  N   UNL     1      10.097   2.229   2.925  0.00  0.00    -0.134 NA
ATOM     11  C   UNL     1      10.006   2.397   1.624  0.00  0.00    +0.237 A 
ATOM     12  N   UNL     1       6.553   2.005   2.384  0.00  0.00    -0.303 N 
ATOM     13  C   UNL     1       5.917   1.782  -1.225  0.00  0.00    +0.162 C 
ATOM     14  O   UNL     1       6.521   1.961  -2.265  0.00  0.00    -0.292 OA
ATOM     15  C   UNL     1       4.483   1.336  -1.277  0.00  0.00    +0.088 C 
ATOM     16  H   UNL     1       6.031   2.067   3.200  0.00  0.00    +0.153 HD
ENDROOT
BRANCH   5  17
ATOM     17  C   UNL     1       8.046   3.913  -0.509  0.00  0.00    +0.008 A 
ATOM     18  C   UNL     1       7.424   4.878   0.259  0.00  0.00    +0.041 A 
ATOM     19  C   UNL     1       7.454   6.203  -0.137  0.00  0.00    +0.127 A 
ATOM     20  C   UNL     1       8.107   6.564  -1.301  0.00  0.00    +0.036 A 
ATOM     21  C   UNL     1       8.730   5.603  -2.072  0.00  0.00    +0.048 A 
ATOM     22  C   UNL     1       8.707   4.274  -1.674  0.00  0.00    +0.121 A 
BRANCH  19  23
ATOM     23  N   UNL     1       6.787   7.235   0.687  0.00  0.00    +0.056 N 
ATOM     24  O   UNL     1       6.215   6.920   1.705  0.00  0.00    -0.126 OA
ATOM     25  O   UNL     1       6.812   8.394   0.342  0.00  0.00    -0.126 OA
ENDBRANCH  19  23
BRANCH  22  26
ATOM     26  O   UNL     1       9.324   3.326  -2.428  0.00  0.00    -0.506 OA
ATOM     27  H   UNL     1       8.757   2.933  -3.106  0.00  0.00    +0.292 HD
ENDBRANCH  22  26
ENDBRANCH   5  17
BRANCH   1  30
ATOM     28  C   UNL     1      -0.016   1.351   0.009  0.00  0.00    +0.008 A 
ATOM     29  C   UNL     1       1.183   2.038   0.002  0.00  0.00    +0.011 A 
ATOM     30  C   UNL     1       2.343   1.336  -0.013  0.00  0.00    -0.006 A 
ATOM     31  S   UNL     1       1.754  -0.349  -0.017  0.00  0.00    -0.101 S 
ATOM     32  C   UNL     1       0.002  -0.004   0.002  0.00  0.00    +0.045 A 
ENDBRANCH   1  30
BRANCH  11  33
ATOM     33  O   UNL     1      11.045   2.596   0.770  0.00  0.00    -0.491 OA
ATOM     34  H   UNL     1      11.276   3.527   0.641  0.00  0.00    +0.294 HD
ENDBRANCH  11  33
TORSDOF 5
