REMARK  Name = ZINC01283358
REMARK  3 active torsions:
REMARK  status: ('A' for Active; 'I' for Inactive)
REMARK    1  A    between atoms: C_4  and  C_7
REMARK    2  A    between atoms: C_10  and  C_18
REMARK    3  A    between atoms: C_23  and  O_24
REMARK                            x       y       z     vdW  Elec       q    Type
REMARK                         _______ _______ _______ _____ _____    ______ ____
ROOT
ATOM      1  C   UNL     1       3.711  -0.707  -0.038  0.00  0.00    +0.143 C 
ATOM      2  C   UNL     1       3.791  -1.587  -1.291  0.00  0.00    +0.059 C 
ATOM      3  C   UNL     1       4.988  -2.538  -1.180  0.00  0.00    +0.109 C 
ATOM      4  N   UNL     1       4.779  -3.426  -0.020  0.00  0.00    -0.307 N 
ATOM      5  C   UNL     1       4.307  -2.822   1.138  0.00  0.00    +0.215 A 
ATOM      6  N   UNL     1       3.812  -1.558   1.147  0.00  0.00    -0.226 N 
ATOM      7  N   UNL     1       3.444  -1.284   2.465  0.00  0.00    -0.156 NA
ATOM      8  C   UNL     1       3.723  -2.354   3.166  0.00  0.00    +0.247 A 
ATOM      9  N   UNL     1       4.244  -3.288   2.356  0.00  0.00    -0.202 NA
ATOM     10  H   UNL     1       4.961  -4.378  -0.064  0.00  0.00    +0.150 HD
ENDROOT
BRANCH   1  14
ATOM     11  C   UNL     1      -0.017   1.378   0.010  0.00  0.00    +0.000 A 
ATOM     12  C   UNL     1       1.171   2.086   0.002  0.00  0.00    +0.000 A 
ATOM     13  C   UNL     1       2.377   1.411  -0.013  0.00  0.00    +0.006 A 
ATOM     14  C   UNL     1       2.396   0.029  -0.020  0.00  0.00    -0.023 A 
ATOM     15  C   UNL     1       1.208  -0.679  -0.012  0.00  0.00    +0.006 A 
ATOM     16  C   UNL     1       0.002  -0.004   0.002  0.00  0.00    +0.000 A 
ENDBRANCH   1  14
BRANCH   3  17
ATOM     17  C   UNL     1       5.099  -3.361  -2.438  0.00  0.00    +0.014 A 
ATOM     18  C   UNL     1       4.523  -4.616  -2.496  0.00  0.00    +0.009 A 
ATOM     19  C   UNL     1       4.625  -5.372  -3.649  0.00  0.00    +0.001 A 
ATOM     20  C   UNL     1       5.301  -4.874  -4.747  0.00  0.00    +0.004 A 
ATOM     21  C   UNL     1       5.878  -3.620  -4.695  0.00  0.00    +0.046 A 
ATOM     22  C   UNL     1       5.773  -2.857  -3.541  0.00  0.00    +0.122 A 
BRANCH  22  23
ATOM     23  O   UNL     1       6.334  -1.621  -3.488  0.00  0.00    -0.506 OA
ATOM     24  H   UNL     1       7.249  -1.617  -3.175  0.00  0.00    +0.292 HD
ENDBRANCH  22  23
ENDBRANCH   3  17
TORSDOF 3
