REMARK  Name = ZINC55104092
REMARK  3 active torsions:
REMARK  status: ('A' for Active; 'I' for Inactive)
REMARK    1  A    between atoms: C_1  and  C_2
REMARK    2  A    between atoms: C_2  and  C_20
REMARK    3  A    between atoms: C_7  and  C_9
REMARK                            x       y       z     vdW  Elec       q    Type
REMARK                         _______ _______ _______ _____ _____    ______ ____
ROOT
ATOM      1  C   UNL     1      -0.019   1.526   0.010  0.00  0.00    +0.011 C 
ATOM      2  C   UNL     1       0.002  -0.004   0.002  0.00  0.00    -0.022 C 
ATOM      3  C   UNL     1       0.698  -0.494  -1.274  0.00  0.00    +0.064 C 
ATOM      4  C   UNL     1       2.139  -0.051  -1.218  0.00  0.00    +0.075 A 
ATOM      5  C   UNL     1       2.797   0.180  -0.012  0.00  0.00    +0.151 A 
ATOM      6  N   UNL     1       4.072   0.571  -0.330  0.00  0.00    -0.109 N 
ATOM      7  C   UNL     1       4.155   0.561  -1.691  0.00  0.00    +0.181 A 
ATOM      8  N   UNL     1       2.990   0.187  -2.195  0.00  0.00    -0.229 NA
ATOM      9  O   UNL     1       5.102   0.918   0.578  0.00  0.00    -0.162 OA
ATOM     10  C   UNL     1       2.168   0.002   1.239  0.00  0.00    +0.185 C 
ATOM     11  O   UNL     1       2.750   0.247   2.276  0.00  0.00    -0.290 OA
ATOM     12  C   UNL     1       0.742  -0.505   1.242  0.00  0.00    +0.088 C 
ATOM     13  C   UNL     1      -1.435  -0.529   0.025  0.00  0.00    +0.011 C 
ENDROOT
BRANCH   7  14
ATOM     14  C   UNL     1       5.355   0.913  -2.478  0.00  0.00    +0.022 A 
ATOM     15  C   UNL     1       6.421   1.580  -1.871  0.00  0.00    +0.012 A 
ATOM     16  C   UNL     1       7.538   1.906  -2.612  0.00  0.00    +0.002 A 
ATOM     17  C   UNL     1       7.605   1.573  -3.953  0.00  0.00    +0.015 A 
ATOM     18  C   UNL     1       6.552   0.911  -4.561  0.00  0.00    +0.019 A 
ATOM     19  C   UNL     1       5.430   0.574  -3.830  0.00  0.00    +0.027 A 
ATOM     20 BR   UNL     1       6.653   0.461  -6.395  0.00  0.00    -0.050 Br
ENDBRANCH   7  14
TORSDOF 1
