REMARK  Name = ZINC00946889
REMARK  6 active torsions:
REMARK  status: ('A' for Active; 'I' for Inactive)
REMARK    1  A    between atoms: C_1  and  C_2
REMARK    2  A    between atoms: C_5  and  C_8
REMARK    3  A    between atoms: C_9  and  C_18
REMARK    4  A    between atoms: C_18  and  C_20
REMARK    5  A    between atoms: C_18  and  C_24
REMARK    6  A    between atoms: C_20  and  N_21
REMARK                            x       y       z     vdW  Elec       q    Type
REMARK                         _______ _______ _______ _____ _____    ______ ____
ROOT
ATOM      1  C   UNL     1      -1.701   6.280  -2.155  0.00  0.00    +0.051 A 
ATOM      2  C   UNL     1      -1.907   5.356  -1.184  0.00  0.00    -0.005 A 
ATOM      3  C   UNL     1      -3.112   4.614  -1.552  0.00  0.00    +0.004 A 
ATOM      4  C   UNL     1      -3.821   3.565  -0.959  0.00  0.00    +0.010 A 
ATOM      5  C   UNL     1      -4.946   3.080  -1.563  0.00  0.00    +0.001 A 
ATOM      6  C   UNL     1      -5.395   3.624  -2.758  0.00  0.00    +0.002 A 
ATOM      7  C   UNL     1      -4.715   4.662  -3.358  0.00  0.00    +0.026 A 
ATOM      8  C   UNL     1      -3.566   5.172  -2.761  0.00  0.00    +0.047 A 
ATOM      9  N   UNL     1      -2.691   6.178  -3.106  0.00  0.00    -0.354 N 
ATOM     10  H   UNL     1      -2.761   6.731  -3.900  0.00  0.00    +0.166 HD
ENDROOT
BRANCH   1  15
ATOM     11  C   UNL     1       2.643  10.053  -2.281  0.00  0.00    +0.044 C 
ATOM     12  C   UNL     1       1.506   9.065  -2.248  0.00  0.00    -0.050 A 
ATOM     13  C   UNL     1       1.163   8.370  -3.394  0.00  0.00    +0.004 A 
ATOM     14  C   UNL     1       0.123   7.464  -3.371  0.00  0.00    +0.010 A 
ATOM     15  C   UNL     1      -0.585   7.250  -2.187  0.00  0.00    -0.001 A 
ATOM     16  C   UNL     1      -0.238   7.957  -1.036  0.00  0.00    +0.010 A 
ATOM     17  C   UNL     1       0.808   8.857  -1.071  0.00  0.00    +0.004 A 
ENDBRANCH   1  15
BRANCH   2  18
ATOM     18  C   UNL     1      -1.054   5.133   0.037  0.00  0.00    +0.084 C 
BRANCH  18  19
ATOM     19  C   UNL     1      -0.518   3.725   0.025  0.00  0.00    -0.001 A 
ATOM     20  C   UNL     1       0.770   3.301   0.012  0.00  0.00    +0.012 A 
ATOM     21  C   UNL     1       1.029   1.944   0.003  0.00  0.00    +0.008 A 
ATOM     22  C   UNL     1      -0.013   1.076   0.008  0.00  0.00    +0.045 A 
ATOM     23  S   UNL     1      -1.415   2.181   0.019  0.00  0.00    -0.101 S 
ENDBRANCH  18  19
BRANCH  18  24
ATOM     24  C   UNL     1      -1.897   5.348   1.295  0.00  0.00    +0.224 C 
BRANCH  24  25
ATOM     25  N   UNL     1      -1.042   5.248   2.480  0.00  0.00    +0.023 N 
ATOM     26  O   UNL     1      -1.143   6.069   3.375  0.00  0.00    -0.132 OA
ATOM     27  O   UNL     1      -0.229   4.346   2.571  0.00  0.00    -0.132 OA
ENDBRANCH  24  25
ENDBRANCH  18  24
ENDBRANCH   2  18
TORSDOF 5
