REMARK  Name = ZINC52649328
REMARK  8 active torsions:
REMARK  status: ('A' for Active; 'I' for Inactive)
REMARK    1  A    between atoms: C_1  and  C_2
REMARK    2  A    between atoms: C_2  and  C_3
REMARK    3  A    between atoms: C_2  and  N_4
REMARK    4  A    between atoms: N_4  and  C_5
REMARK    5  A    between atoms: C_5  and  C_6
REMARK    6  A    between atoms: C_10  and  C_13
REMARK    7  A    between atoms: C_13  and  O_14
REMARK    8  A    between atoms: O_14  and  C_15
REMARK                            x       y       z     vdW  Elec       q    Type
REMARK                         _______ _______ _______ _____ _____    ______ ____
ROOT
ATOM      1  C   UNL     1       2.816  -0.564  -2.418  0.00  0.00    +0.102 C 
ATOM      2  C   UNL     1       4.324  -0.209  -2.362  0.00  0.00    +0.032 C 
ATOM      3  C   UNL     1       4.706  -0.181  -3.862  0.00  0.00    +0.037 C 
ATOM      4  C   UNL     1       3.363   0.023  -4.590  0.00  0.00    +0.156 C 
ATOM      5  O   UNL     1       2.343   0.145  -3.583  0.00  0.00    -0.372 OA
ENDROOT
BRANCH   1   6
ATOM      6  C   UNL     1       2.100  -0.070  -1.159  0.00  0.00    -0.050 C 
BRANCH   6   7
ATOM      7  N   UNL     1       0.690  -0.478  -1.207  0.00  0.00    +0.382 N 
ATOM      8  H   UNL     1       0.632  -1.484  -1.254  0.00  0.00    -0.085 HD
ATOM      9  H   UNL     1       0.251  -0.077  -2.022  0.00  0.00    -0.085 HD
BRANCH   7  11
ATOM     10  C   UNL     1      -0.019   1.526   0.010  0.00  0.00    -0.014 C 
ATOM     11  C   UNL     1       0.002  -0.004   0.002  0.00  0.00    -0.078 C 
ATOM     12  C   UNL     1      -1.433  -0.534   0.013  0.00  0.00    -0.014 C 
ENDBRANCH   7  11
ENDBRANCH   6   7
ENDBRANCH   1   6
BRANCH   4  13
ATOM     13  C   UNL     1       3.419   1.296  -5.438  0.00  0.00    +0.260 C 
BRANCH  13  14
ATOM     14  O   UNL     1       2.215   1.415  -6.198  0.00  0.00    -0.488 OA
BRANCH  14  15
ATOM     15  C   UNL     1       2.102   2.499  -7.011  0.00  0.00    +0.140 A 
ATOM     16  C   UNL     1       3.132   3.425  -7.078  0.00  0.00    +0.068 A 
ATOM     17  C   UNL     1       3.016   4.527  -7.905  0.00  0.00    +0.063 A 
ATOM     18  C   UNL     1       1.873   4.706  -8.665  0.00  0.00    +0.061 A 
ATOM     19  C   UNL     1       0.844   3.783  -8.599  0.00  0.00    +0.045 A 
ATOM     20  C   UNL     1       0.959   2.677  -7.777  0.00  0.00    +0.084 A 
ATOM     21 CL   UNL     1      -0.329   1.516  -7.699  0.00  0.00    -0.080 Cl
ATOM     22 CL   UNL     1       1.729   6.091  -9.703  0.00  0.00    -0.082 Cl
ATOM     23 CL   UNL     1       4.305   5.687  -7.991  0.00  0.00    -0.082 Cl
ENDBRANCH  14  15
ENDBRANCH  13  14
ENDBRANCH   4  13
TORSDOF 6
