REMARK  Name = ZINC67077945
REMARK  6 active torsions:
REMARK  status: ('A' for Active; 'I' for Inactive)
REMARK    1  A    between atoms: C_1  and  C_2
REMARK    2  A    between atoms: C_2  and  N_3
REMARK    3  A    between atoms: C_4  and  C_9
REMARK    4  A    between atoms: C_9  and  C_10
REMARK    5  A    between atoms: C_10  and  N_11
REMARK    6  A    between atoms: C_12  and  C_14
REMARK                            x       y       z     vdW  Elec       q    Type
REMARK                         _______ _______ _______ _____ _____    ______ ____
ROOT
ATOM      1  N   UNL     1      -3.055  -0.841  -4.479  0.00  0.00    -0.310 N 
ATOM      2  C   UNL     1      -3.517  -1.133  -5.712  0.00  0.00    +0.260 C 
ATOM      3  O   UNL     1      -2.750  -1.516  -6.574  0.00  0.00    -0.269 OA
ATOM      4  H   UNL     1      -3.667  -0.535  -3.792  0.00  0.00    +0.149 HD
ENDROOT
BRANCH   2   5
ATOM      5  C   UNL     1      -4.949  -0.988  -6.013  0.00  0.00    +0.103 A 
ATOM      6  C   UNL     1      -5.533  -1.256  -7.210  0.00  0.00    +0.040 A 
ATOM      7  C   UNL     1      -6.918  -0.990  -7.084  0.00  0.00    +0.000 A 
ATOM      8  C   UNL     1      -7.999  -1.081  -7.970  0.00  0.00    +0.011 A 
ATOM      9  C   UNL     1      -9.253  -0.746  -7.548  0.00  0.00    +0.021 A 
ATOM     10  C   UNL     1      -9.469  -0.314  -6.244  0.00  0.00    +0.043 A 
ATOM     11  C   UNL     1      -8.421  -0.216  -5.354  0.00  0.00    +0.046 A 
ATOM     12  C   UNL     1      -7.133  -0.552  -5.763  0.00  0.00    +0.048 A 
ATOM     13  N   UNL     1      -5.917  -0.564  -5.122  0.00  0.00    -0.351 N 
ATOM     14  H   UNL     1      -5.762  -0.313  -4.198  0.00  0.00    +0.166 HD
ATOM     15 CL   UNL     1     -11.073   0.106  -5.732  0.00  0.00    -0.083 Cl
ENDBRANCH   2   5
BRANCH   1  16
ATOM     16  C   UNL     1      -1.629  -0.985  -4.179  0.00  0.00    +0.112 C 
BRANCH  16  17
ATOM     17  C   UNL     1      -1.372  -0.593  -2.723  0.00  0.00    +0.095 C 
BRANCH  17  19
ATOM     18  N   UNL     1       0.688  -0.476  -1.203  0.00  0.00    -0.307 N 
ATOM     19  C   UNL     1       0.096  -0.741  -2.414  0.00  0.00    +0.133 A 
ATOM     20  N   UNL     1       1.004  -1.138  -3.245  0.00  0.00    -0.159 NA
ATOM     21  N   UNL     1       2.236  -1.141  -2.577  0.00  0.00    -0.254 N 
ATOM     22  C   UNL     1       2.009  -0.721  -1.315  0.00  0.00    +0.176 A 
ATOM     23  S   UNL     1       3.182  -0.536  -0.082  0.00  0.00    -0.011 S 
ATOM     24  H   UNL     1       3.094  -1.394  -2.953  0.00  0.00    +0.191 HD
BRANCH  18  26
ATOM     25  C   UNL     1      -0.019   1.526   0.010  0.00  0.00    +0.027 C 
ATOM     26  C   UNL     1       0.002  -0.004   0.002  0.00  0.00    +0.122 C 
ENDBRANCH  18  26
ENDBRANCH  17  19
ENDBRANCH  16  17
ENDBRANCH   1  16
TORSDOF 5
