REMARK  Name = ZINC39532500
REMARK  11 active torsions:
REMARK  status: ('A' for Active; 'I' for Inactive)
REMARK    1  A    between atoms: C_1  and  C_2
REMARK    2  A    between atoms: C_2  and  C_3
REMARK    3  A    between atoms: C_6  and  C_9
REMARK    4  A    between atoms: C_9  and  C_11
REMARK    5  A    between atoms: C_9  and  N_20
REMARK    6  A    between atoms: C_11  and  N_12
REMARK    7  A    between atoms: N_12  and  C_13
REMARK    8  A    between atoms: C_18  and  O_19
REMARK    9  A    between atoms: C_24  and  S_27
REMARK   10  A    between atoms: S_27  and  O_30
REMARK   11  A    between atoms: O_30  and  C_31
REMARK                            x       y       z     vdW  Elec       q    Type
REMARK                         _______ _______ _______ _____ _____    ______ ____
ROOT
ATOM      1  C   UNL     1       2.651  -1.892  -4.688  0.00  0.00    +0.104 C 
ENDROOT
BRANCH   1   2
ATOM      2  N   UNL     1       3.676  -2.810  -4.175  0.00  0.00    -0.296 NA
ATOM      3  C   UNL     1       4.617  -3.195  -5.237  0.00  0.00    +0.066 C 
ATOM      4  C   UNL     1       5.700  -4.102  -4.651  0.00  0.00    -0.064 C 
ATOM      5  N   UNL     1       5.077  -5.298  -4.069  0.00  0.00    +0.398 N 
ATOM      6  C   UNL     1       4.159  -4.899  -2.993  0.00  0.00    +0.130 C 
ATOM      7  C   UNL     1       3.062  -3.998  -3.566  0.00  0.00    +0.095 C 
ATOM      8  H   UNL     1       4.562  -5.791  -4.783  0.00  0.00    -0.083 HD
ATOM      9  H   UNL     1       5.793  -5.902  -3.693  0.00  0.00    -0.083 HD
BRANCH   6  10
ATOM     10  S   UNL     1       3.406  -6.378  -2.261  0.00  0.00    +0.109 S 
ATOM     11  O   UNL     1       2.656  -6.025  -1.107  0.00  0.00    -0.138 OA
ATOM     12  O   UNL     1       2.834  -7.190  -3.277  0.00  0.00    -0.138 OA
BRANCH  10  13
ATOM     13  O   UNL     1       4.578  -7.191  -1.729  0.00  0.00    -0.347 OA
BRANCH  13  14
ATOM     14  C   UNL     1       5.121  -6.695  -0.586  0.00  0.00    +0.156 A 
ATOM     15  C   UNL     1       6.153  -5.770  -0.652  0.00  0.00    +0.048 A 
ATOM     16  C   UNL     1       6.703  -5.267   0.511  0.00  0.00    +0.004 A 
ATOM     17  C   UNL     1       6.226  -5.685   1.740  0.00  0.00    +0.000 A 
ATOM     18  C   UNL     1       5.198  -6.607   1.808  0.00  0.00    +0.004 A 
ATOM     19  C   UNL     1       4.641  -7.109   0.648  0.00  0.00    +0.048 A 
ENDBRANCH  13  14
ENDBRANCH  10  13
ENDBRANCH   6  10
ENDBRANCH   1   2
BRANCH   1  23
ATOM     20  C   UNL     1       0.088  -0.694  -1.487  0.00  0.00    -0.048 A 
ATOM     21  C   UNL     1      -0.444  -0.967  -2.733  0.00  0.00    +0.004 A 
ATOM     22  C   UNL     1       0.385  -1.355  -3.769  0.00  0.00    +0.005 A 
ATOM     23  C   UNL     1       1.747  -1.468  -3.559  0.00  0.00    -0.029 A 
ATOM     24  C   UNL     1       2.279  -1.194  -2.313  0.00  0.00    +0.005 A 
ATOM     25  C   UNL     1       1.450  -0.802  -1.278  0.00  0.00    +0.004 A 
BRANCH  20  27
ATOM     26  C   UNL     1      -0.953   1.253  -0.357  0.00  0.00    +0.009 C 
ATOM     27  C   UNL     1      -0.816  -0.271  -0.358  0.00  0.00    +0.032 C 
ENDBRANCH  20  27
ENDBRANCH   1  23
BRANCH   1  28
ATOM     28  C   UNL     1       3.326  -0.658  -5.290  0.00  0.00    +0.125 C 
BRANCH  28  29
ATOM     29  N   UNL     1       2.308   0.220  -5.872  0.00  0.00    -0.339 N 
ATOM     30  H   UNL     1       1.368  -0.004  -5.788  0.00  0.00    +0.146 HD
BRANCH  29  31
ATOM     31  C   UNL     1       2.692   1.383  -6.549  0.00  0.00    +0.069 A 
ATOM     32  C   UNL     1       4.036   1.703  -6.676  0.00  0.00    +0.026 A 
ATOM     33  C   UNL     1       4.413   2.852  -7.345  0.00  0.00    +0.002 A 
ATOM     34  C   UNL     1       3.453   3.685  -7.890  0.00  0.00    +0.004 A 
ATOM     35  C   UNL     1       2.111   3.373  -7.768  0.00  0.00    +0.047 A 
ATOM     36  C   UNL     1       1.726   2.220  -7.103  0.00  0.00    +0.138 A 
BRANCH  36  37
ATOM     37  O   UNL     1       0.407   1.909  -6.987  0.00  0.00    -0.505 OA
ATOM     38  H   UNL     1      -0.015   2.273  -6.197  0.00  0.00    +0.292 HD
ENDBRANCH  36  37
ENDBRANCH  29  31
ENDBRANCH  28  29
ENDBRANCH   1  28
TORSDOF 10
