REMARK  Name = ZINC08442061
REMARK  7 active torsions:
REMARK  status: ('A' for Active; 'I' for Inactive)
REMARK    1  A    between atoms: C_1  and  O_2
REMARK    2  A    between atoms: O_2  and  C_3
REMARK    3  A    between atoms: C_3  and  C_4
REMARK    4  A    between atoms: C_11  and  N_33
REMARK    5  A    between atoms: C_12  and  C_31
REMARK    6  A    between atoms: N_20  and  C_23
REMARK    7  A    between atoms: C_23  and  C_24
REMARK                            x       y       z     vdW  Elec       q    Type
REMARK                         _______ _______ _______ _____ _____    ______ ____
ROOT
ATOM      1  C   UNL     1       0.614  -2.074  -1.042  0.00  0.00    +0.070 A 
ATOM      2  C   UNL     1       1.130  -2.936  -1.930  0.00  0.00    +0.063 A 
ATOM      3  C   UNL     1       0.878  -4.248  -1.465  0.00  0.00    +0.246 A 
ATOM      4  N   UNL     1       0.234  -4.157  -0.339  0.00  0.00    -0.135 NA
ATOM      5  N   UNL     1       0.057  -2.796  -0.043  0.00  0.00    -0.276 N 
ATOM      6  H   UNL     1      -0.388  -2.437   0.740  0.00  0.00    +0.189 HD
ATOM      7  O   UNL     1       1.283  -5.346  -2.157  0.00  0.00    -0.421 OA
ATOM      8  C   UNL     1       1.701  -5.170  -3.426  0.00  0.00    +0.201 C 
ATOM      9  C   UNL     1       1.985  -3.969  -3.978  0.00  0.00    +0.110 C 
ATOM     10  C   UNL     1       1.863  -2.678  -3.217  0.00  0.00    +0.145 C 
ATOM     11  C   UNL     1       3.204  -2.067  -2.965  0.00  0.00    -0.001 A 
ATOM     12  C   UNL     1       4.306  -2.527  -2.276  0.00  0.00    +0.007 A 
ATOM     13  C   UNL     1       5.416  -1.692  -2.231  0.00  0.00    +0.000 A 
ATOM     14  C   UNL     1       5.413  -0.458  -2.849  0.00  0.00    +0.002 A 
ATOM     15  C   UNL     1       4.310   0.012  -3.543  0.00  0.00    +0.024 A 
ATOM     16  C   UNL     1       3.188  -0.817  -3.597  0.00  0.00    +0.041 A 
ATOM     17  N   UNL     1       1.967  -0.605  -4.213  0.00  0.00    -0.265 N 
ATOM     18  C   UNL     1       1.127  -1.647  -4.043  0.00  0.00    +0.241 C 
ATOM     19  O   UNL     1      -0.004  -1.740  -4.472  0.00  0.00    -0.274 OA
ENDROOT
BRANCH   8  20
ATOM     20  N   UNL     1       1.849  -6.286  -4.212  0.00  0.00    -0.328 N 
ATOM     21  H   UNL     1       1.655  -7.164  -3.849  0.00  0.00    +0.145 HD
ATOM     22  H   UNL     1       2.149  -6.196  -5.130  0.00  0.00    +0.145 HD
ENDBRANCH   8  20
BRANCH   9  23
ATOM     23  C   UNL     1       2.419  -3.924  -5.341  0.00  0.00    +0.102 C 
ATOM     24  N   UNL     1       2.764  -3.889  -6.423  0.00  0.00    -0.191 NA
ENDBRANCH   9  23
BRANCH   1  25
ATOM     25  C   UNL     1       0.652  -0.570  -1.138  0.00  0.00    +0.214 C 
BRANCH  25  27
ATOM     26  C   UNL     1      -0.017   1.425   0.010  0.00  0.00    +0.194 C 
ATOM     27  O   UNL     1       0.002  -0.004   0.002  0.00  0.00    -0.377 OA
ENDBRANCH  25  27
ENDBRANCH   1  25
BRANCH  17  28
ATOM     28  C   UNL     1       1.627   0.608  -4.962  0.00  0.00    +0.148 C 
BRANCH  28  29
ATOM     29  C   UNL     1       2.009   0.428  -6.409  0.00  0.00    -0.030 A 
ATOM     30  C   UNL     1       3.272   0.788  -6.840  0.00  0.00    +0.006 A 
ATOM     31  C   UNL     1       3.623   0.624  -8.167  0.00  0.00    +0.020 A 
ATOM     32  C   UNL     1       2.709   0.099  -9.063  0.00  0.00    +0.041 A 
ATOM     33  C   UNL     1       1.445  -0.261  -8.631  0.00  0.00    +0.020 A 
ATOM     34  C   UNL     1       1.097  -0.101  -7.303  0.00  0.00    +0.006 A 
ATOM     35 CL   UNL     1       3.148  -0.107 -10.730  0.00  0.00    -0.084 Cl
ENDBRANCH  28  29
ENDBRANCH  17  28
TORSDOF 6
