REMARK  Name = ZINC07126950
REMARK  6 active torsions:
REMARK  status: ('A' for Active; 'I' for Inactive)
REMARK    1  A    between atoms: C_1  and  N_2
REMARK    2  A    between atoms: N_2  and  C_3
REMARK    3  A    between atoms: N_2  and  C_7
REMARK    4  A    between atoms: C_3  and  C_4
REMARK    5  A    between atoms: C_4  and  C_5
REMARK    6  A    between atoms: C_10  and  C_13
REMARK                            x       y       z     vdW  Elec       q    Type
REMARK                         _______ _______ _______ _____ _____    ______ ____
ROOT
ATOM      1  C   UNL     1      -0.006  -2.813  -4.924  0.00  0.00    +0.209 C 
ATOM      2  N   UNL     1       0.857  -2.118  -5.896  0.00  0.00    -0.294 N 
ATOM      3  C   UNL     1       0.333  -1.018  -6.560  0.00  0.00    +0.159 C 
ATOM      4  N   UNL     1      -0.899  -1.204  -7.190  0.00  0.00    -0.259 N 
ATOM      5  C   UNL     1      -1.771  -2.073  -6.540  0.00  0.00    +0.205 A 
ATOM      6  N   UNL     1      -1.366  -2.848  -5.474  0.00  0.00    -0.288 N 
ATOM      7  C   UNL     1      -2.443  -3.589  -5.081  0.00  0.00    +0.072 A 
ATOM      8  C   UNL     1      -2.624  -4.535  -4.079  0.00  0.00    +0.028 A 
ATOM      9  C   UNL     1      -3.884  -5.099  -3.963  0.00  0.00    +0.002 A 
ATOM     10  C   UNL     1      -4.926  -4.745  -4.803  0.00  0.00    +0.002 A 
ATOM     11  C   UNL     1      -4.772  -3.808  -5.808  0.00  0.00    +0.030 A 
ATOM     12  C   UNL     1      -3.507  -3.224  -5.943  0.00  0.00    +0.091 A 
ATOM     13  N   UNL     1      -3.029  -2.298  -6.803  0.00  0.00    -0.214 NA
ATOM     14  N   UNL     1       0.956   0.125  -6.594  0.00  0.00    -0.375 N 
ATOM     15  H   UNL     1       1.764  -2.419  -6.066  0.00  0.00    +0.151 HD
ATOM     16  H   UNL     1       1.810   0.225  -6.146  0.00  0.00    +0.158 HD
ATOM     17  H   UNL     1      -1.131  -0.758  -8.020  0.00  0.00    +0.158 HD
ATOM     18  H   UNL     1       0.564   0.877  -7.066  0.00  0.00    +0.158 HD
ENDROOT
BRANCH   1  22
ATOM     19  C   UNL     1       0.000  -0.696  -1.211  0.00  0.00    +0.029 A 
ATOM     20  C   UNL     1       0.013  -2.085  -1.221  0.00  0.00    +0.023 A 
ATOM     21  C   UNL     1       0.010  -2.766  -2.422  0.00  0.00    +0.009 A 
ATOM     22  C   UNL     1      -0.005  -2.066  -3.615  0.00  0.00    -0.007 A 
ATOM     23  C   UNL     1      -0.018  -0.684  -3.609  0.00  0.00    +0.009 A 
ATOM     24  C   UNL     1      -0.021   0.004  -2.411  0.00  0.00    +0.023 A 
BRANCH  19  26
ATOM     25  C   UNL     1      -0.018   1.461   0.010  0.00  0.00    +0.129 C 
ATOM     26  N   UNL     1       0.002  -0.004   0.002  0.00  0.00    -0.332 N 
BRANCH  26  27
ATOM     27  C   UNL     1       0.024  -0.743   1.267  0.00  0.00    +0.119 C 
BRANCH  27  28
ATOM     28  C   UNL     1      -1.411  -1.020   1.720  0.00  0.00    +0.137 C 
BRANCH  28  29
ATOM     29  C   UNL     1      -1.388  -1.763   2.991  0.00  0.00    +0.064 C 
ATOM     30  N   UNL     1      -1.371  -2.336   3.972  0.00  0.00    -0.197 NA
ENDBRANCH  28  29
ENDBRANCH  27  28
ENDBRANCH  26  27
ENDBRANCH  19  26
ENDBRANCH   1  22
TORSDOF 5
