REMARK  Name = ZINC09127259
REMARK  6 active torsions:
REMARK  status: ('A' for Active; 'I' for Inactive)
REMARK    1  A    between atoms: C_1  and  C_2
REMARK    2  A    between atoms: C_2  and  C_3
REMARK    3  A    between atoms: C_8  and  N_9
REMARK    4  A    between atoms: C_12  and  C_17
REMARK    5  A    between atoms: C_17  and  N_60
REMARK    6  A    between atoms: C_21  and  C_23
REMARK                            x       y       z     vdW  Elec       q    Type
REMARK                         _______ _______ _______ _____ _____    ______ ____
ROOT
ATOM      1  N   UNL     1       4.080   3.886   0.294  0.00  0.00    -0.283 N 
ATOM      2  C   UNL     1       2.885   4.027   0.974  0.00  0.00    +0.224 A 
ATOM      3  N   UNL     1       2.160   2.953   1.277  0.00  0.00    -0.201 NA
ATOM      4  C   UNL     1       1.015   3.088   1.923  0.00  0.00    +0.120 A 
ATOM      5  N   UNL     1       0.591   4.288   2.279  0.00  0.00    -0.202 NA
ATOM      6  C   UNL     1       1.313   5.366   1.985  0.00  0.00    +0.217 A 
ATOM      7  N   UNL     1       2.462   5.235   1.331  0.00  0.00    -0.181 NA
ATOM      8  N   UNL     1       0.870   6.618   2.358  0.00  0.00    -0.327 N 
ATOM      9  H   UNL     1       4.430   3.001   0.108  0.00  0.00    +0.155 HD
ATOM     10  H   UNL     1       0.031   6.713   2.836  0.00  0.00    +0.145 HD
ATOM     11  H   UNL     1       1.397   7.404   2.143  0.00  0.00    +0.145 HD
ENDROOT
BRANCH   1  17
ATOM     12  C   UNL     1       6.154   4.949  -0.335  0.00  0.00    -0.026 A 
ATOM     13  C   UNL     1       6.846   6.070  -0.750  0.00  0.00    +0.005 A 
ATOM     14  C   UNL     1       6.174   7.261  -0.960  0.00  0.00    +0.000 A 
ATOM     15  C   UNL     1       4.809   7.333  -0.755  0.00  0.00    +0.002 A 
ATOM     16  C   UNL     1       4.110   6.215  -0.345  0.00  0.00    +0.023 A 
ATOM     17  C   UNL     1       4.783   5.019  -0.127  0.00  0.00    +0.037 A 
BRANCH  12  19
ATOM     18  C   UNL     1       6.801   2.789  -1.365  0.00  0.00    +0.009 C 
ATOM     19  C   UNL     1       6.887   3.653  -0.105  0.00  0.00    +0.033 C 
ENDBRANCH  12  19
ENDBRANCH   1  17
BRANCH   4  20
ATOM     20  C   UNL     1       0.194   1.870   2.258  0.00  0.00    -0.000 C 
BRANCH  20  25
ATOM     21  C   UNL     1      -0.030   1.117  -0.041  0.00  0.00    -0.077 C 
ATOM     22  C   UNL     1      -0.789   1.658  -1.267  0.00  0.00    -0.020 C 
ATOM     23  C   UNL     1      -1.954   2.491  -0.686  0.00  0.00    -0.013 C 
ATOM     24  C   UNL     1      -1.458   2.832   0.742  0.00  0.00    -0.037 C 
ATOM     25  N   UNL     1      -0.759   1.601   1.136  0.00  0.00    +0.389 N 
ATOM     26  H   UNL     1      -1.442   0.896   1.437  0.00  0.00    -0.080 HD
BRANCH  24  27
ATOM     27  C   UNL     1      -2.622   3.113   1.656  0.00  0.00    -0.057 A 
ATOM     28  C   UNL     1      -3.358   2.066   2.179  0.00  0.00    +0.006 A 
ATOM     29  C   UNL     1      -4.424   2.320   3.021  0.00  0.00    +0.049 A 
ATOM     30  C   UNL     1      -4.765   3.627   3.335  0.00  0.00    +0.162 A 
ATOM     31  C   UNL     1      -4.027   4.680   2.808  0.00  0.00    +0.162 A 
ATOM     32  C   UNL     1      -2.956   4.418   1.966  0.00  0.00    +0.051 A 
ATOM     33  O   UNL     1      -4.339   5.970   3.110  0.00  0.00    -0.485 OA
ATOM     34  C   UNL     1      -5.643   6.206   3.654  0.00  0.00    +0.270 C 
ATOM     35  C   UNL     1      -5.903   5.163   4.749  0.00  0.00    +0.270 C 
ATOM     36  O   UNL     1      -5.824   3.862   4.157  0.00  0.00    -0.485 OA
ENDBRANCH  24  27
ENDBRANCH  20  25
ENDBRANCH   4  20
TORSDOF 5
