REMARK  Name = ZINC14727515
REMARK  13 active torsions:
REMARK  status: ('A' for Active; 'I' for Inactive)
REMARK    1  A    between atoms: C_1  and  C_2
REMARK    2  A    between atoms: C_2  and  C_32
REMARK    3  A    between atoms: C_3  and  C_4
REMARK    4  A    between atoms: C_4  and  C_5
REMARK    5  A    between atoms: C_6  and  O_31
REMARK    6  A    between atoms: C_7  and  C_26
REMARK    7  A    between atoms: C_10  and  O_11
REMARK    8  A    between atoms: C_15  and  C_18
REMARK    9  A    between atoms: C_21  and  O_25
REMARK   10  A    between atoms: C_23  and  O_24
REMARK   11  A    between atoms: C_26  and  C_27
REMARK   12  A    between atoms: C_28  and  C_29
REMARK   13  A    between atoms: C_28  and  C_30
REMARK                            x       y       z     vdW  Elec       q    Type
REMARK                         _______ _______ _______ _____ _____    ______ ____
ROOT
ATOM      1  C   UNL     1       0.069  -1.175   2.315  0.00  0.00    +0.040 A 
ATOM      2  C   UNL     1      -0.804  -0.349   3.014  0.00  0.00    +0.131 A 
ATOM      3  C   UNL     1      -1.039  -0.552   4.368  0.00  0.00    +0.041 A 
ATOM      4  C   UNL     1      -0.403  -1.581   5.039  0.00  0.00    +0.142 A 
ATOM      5  C   UNL     1       0.486  -2.415   4.336  0.00  0.00    +0.101 A 
ATOM      6  C   UNL     1       0.713  -2.212   2.966  0.00  0.00    +0.138 A 
ATOM      7  C   UNL     1       1.171  -3.495   5.056  0.00  0.00    +0.174 C 
ATOM      8  O   UNL     1       2.102  -4.098   4.565  0.00  0.00    -0.292 OA
ATOM      9  C   UNL     1       0.654  -3.818   6.446  0.00  0.00    +0.129 C 
ATOM     10  C   UNL     1       0.328  -2.483   7.131  0.00  0.00    +0.215 C 
ATOM     11  O   UNL     1      -0.643  -1.779   6.357  0.00  0.00    -0.482 OA
ENDROOT
BRANCH  10  12
ATOM     12  C   UNL     1      -0.222  -2.745   8.509  0.00  0.00    +0.035 A 
ATOM     13  C   UNL     1      -1.589  -2.809   8.707  0.00  0.00    +0.014 A 
ATOM     14  C   UNL     1      -2.096  -3.049   9.969  0.00  0.00    +0.046 A 
ATOM     15  C   UNL     1      -1.234  -3.229  11.042  0.00  0.00    +0.120 A 
ATOM     16  C   UNL     1       0.137  -3.166  10.847  0.00  0.00    +0.091 A 
ATOM     17  C   UNL     1       0.643  -2.930   9.578  0.00  0.00    +0.127 A 
BRANCH  17  18
ATOM     18  O   UNL     1       1.987  -2.873   9.382  0.00  0.00    -0.506 OA
ATOM     19  H   UNL     1       2.363  -1.988   9.486  0.00  0.00    +0.292 HD
ENDBRANCH  17  18
BRANCH  15  20
ATOM     20  O   UNL     1      -1.734  -3.465  12.284  0.00  0.00    -0.507 OA
ATOM     21  H   UNL     1      -1.862  -4.402  12.484  0.00  0.00    +0.292 HD
ENDBRANCH  15  20
ENDBRANCH  10  12
BRANCH   6  22
ATOM     22  O   UNL     1       1.559  -3.024   2.285  0.00  0.00    -0.506 OA
ATOM     23  H   UNL     1       2.477  -2.721   2.282  0.00  0.00    +0.292 HD
ENDBRANCH   6  22
BRANCH   2  24
ATOM     24  O   UNL     1      -1.432   0.664   2.368  0.00  0.00    -0.506 OA
ATOM     25  H   UNL     1      -2.284   0.417   1.982  0.00  0.00    +0.292 HD
ENDBRANCH   2  24
BRANCH   1  26
ATOM     26  C   UNL     1       0.310  -0.943   0.846  0.00  0.00    +0.069 C 
BRANCH  26  29
ATOM     27  C   UNL     1      -1.317   0.359  -1.050  0.00  0.00    +0.038 C 
ATOM     28  C   UNL     1      -1.447  -1.127  -0.840  0.00  0.00    -0.079 C 
ATOM     29  C   UNL     1      -0.691  -1.733   0.042  0.00  0.00    -0.023 C 
ATOM     30  C   UNL     1      -2.448  -1.917  -1.643  0.00  0.00    +0.038 C 
ENDBRANCH  26  29
ENDBRANCH   1  26
BRANCH   3  31
ATOM     31  C   UNL     1      -1.990   0.353   5.108  0.00  0.00    +0.069 C 
BRANCH  31  32
ATOM     32  C   UNL     1      -3.384  -0.217   5.037  0.00  0.00    -0.023 C 
ATOM     33  C   UNL     1      -4.372   0.522   4.598  0.00  0.00    -0.079 C 
ATOM     34  C   UNL     1      -4.144   1.980   4.292  0.00  0.00    +0.038 C 
ATOM     35  C   UNL     1      -5.737  -0.085   4.399  0.00  0.00    +0.038 C 
ENDBRANCH  31  32
ENDBRANCH   3  31
TORSDOF 9
