REMARK  Name = ZINC12487038
REMARK  7 active torsions:
REMARK  status: ('A' for Active; 'I' for Inactive)
REMARK    1  A    between atoms: C_1  and  C_2
REMARK    2  A    between atoms: C_5  and  C_25
REMARK    3  A    between atoms: N_9  and  N_10
REMARK    4  A    between atoms: C_11  and  C_13
REMARK    5  A    between atoms: C_16  and  N_19
REMARK    6  A    between atoms: C_20  and  C_22
REMARK    7  A    between atoms: C_25  and  C_27
REMARK                            x       y       z     vdW  Elec       q    Type
REMARK                         _______ _______ _______ _____ _____    ______ ____
ROOT
ATOM      1  N   UNL     1       0.296  -0.880   3.589  0.00  0.00    -0.203 N 
ATOM      2  C   UNL     1       0.515  -0.241   4.755  0.00  0.00    +0.263 C 
ATOM      3  O   UNL     1       0.705   0.960   4.763  0.00  0.00    -0.268 OA
ATOM      4  H   UNL     1       0.145  -1.839   3.582  0.00  0.00    +0.178 HD
ENDROOT
BRANCH   1  12
ATOM      5  C   UNL     1       0.034   1.459  -0.014  0.00  0.00    +0.045 C 
ATOM      6  C   UNL     1       0.059  -0.048  -0.015  0.00  0.00    -0.032 C 
ATOM      7  C   UNL     1       0.073  -0.703  -1.166  0.00  0.00    -0.021 C 
ATOM      8  C   UNL     1       0.088  -2.200  -1.260  0.00  0.00    +0.035 C 
ATOM      9  C   UNL     1       0.621  -2.829   0.026  0.00  0.00    +0.024 C 
ATOM     10  C   UNL     1      -0.170  -2.274   1.220  0.00  0.00    +0.065 C 
ATOM     11  C   UNL     1       0.075  -0.778   1.262  0.00  0.00    +0.062 C 
ATOM     12  N   UNL     1       0.286  -0.161   2.386  0.00  0.00    -0.184 NA
BRANCH   9  13
ATOM     13  C   UNL     1       0.456  -4.325  -0.038  0.00  0.00    -0.076 C 
ATOM     14  C   UNL     1       1.506  -5.104   0.041  0.00  0.00    +0.007 C 
ATOM     15  C   UNL     1      -0.918  -4.926  -0.194  0.00  0.00    +0.039 C 
ENDBRANCH   9  13
ENDBRANCH   1  12
BRANCH   2  16
ATOM     16  C   UNL     1       0.525  -0.998   6.021  0.00  0.00    +0.038 A 
ATOM     17  C   UNL     1       0.313  -2.380   6.012  0.00  0.00    +0.015 A 
ATOM     18  C   UNL     1       0.324  -3.083   7.196  0.00  0.00    +0.024 A 
ATOM     19  C   UNL     1       0.545  -2.421   8.399  0.00  0.00    +0.033 A 
ATOM     20  C   UNL     1       0.757  -1.046   8.411  0.00  0.00    +0.024 A 
ATOM     21  C   UNL     1       0.753  -0.337   7.231  0.00  0.00    +0.015 A 
BRANCH  19  22
ATOM     22  N   UNL     1       0.555  -3.136   9.596  0.00  0.00    -0.285 N 
ATOM     23  C   UNL     1      -0.273  -4.188   9.759  0.00  0.00    +0.220 C 
ATOM     24  O   UNL     1      -0.966  -4.562   8.837  0.00  0.00    -0.275 OA
ATOM     25  H   UNL     1       1.157  -2.878  10.311  0.00  0.00    +0.155 HD
BRANCH  23  26
ATOM     26  C   UNL     1      -0.337  -4.897  11.087  0.00  0.00    +0.075 C 
ATOM     27  C   UNL     1       0.213  -6.323  11.154  0.00  0.00    +0.013 C 
ATOM     28  C   UNL     1      -1.297  -6.082  11.209  0.00  0.00    +0.013 C 
ENDBRANCH  23  26
ENDBRANCH  19  22
ENDBRANCH   2  16
TORSDOF 5
