REMARK  Name = ZINC35577700
REMARK  4 active torsions:
REMARK  status: ('A' for Active; 'I' for Inactive)
REMARK    1  A    between atoms: C_5  and  C_7
REMARK    2  A    between atoms: C_9  and  N_30
REMARK    3  A    between atoms: N_10  and  C_23
REMARK    4  A    between atoms: N_16  and  C_17
REMARK                            x       y       z     vdW  Elec       q    Type
REMARK                         _______ _______ _______ _____ _____    ______ ____
ROOT
ATOM      1  C   UNL     1       1.215  -2.166  -0.262  0.00  0.00    +0.091 A 
ATOM      2  C   UNL     1       0.039  -2.911  -0.021  0.00  0.00    +0.086 A 
ATOM      3  C   UNL     1      -1.298  -2.613   0.212  0.00  0.00    +0.131 A 
ATOM      4  N   UNL     1      -1.951  -3.781   0.373  0.00  0.00    -0.216 N 
ATOM      5  N   UNL     1      -1.056  -4.849   0.248  0.00  0.00    -0.144 NA
ATOM      6  C   UNL     1       0.151  -4.381   0.011  0.00  0.00    +0.189 A 
ATOM      7  N   UNL     1       1.366  -4.925  -0.192  0.00  0.00    -0.193 NA
ATOM      8  C   UNL     1       2.412  -4.154  -0.410  0.00  0.00    +0.218 A 
ATOM      9  N   UNL     1       2.351  -2.827  -0.451  0.00  0.00    -0.214 NA
ATOM     10  N   UNL     1       3.639  -4.759  -0.613  0.00  0.00    -0.311 N 
ATOM     11  H   UNL     1       4.426  -4.216  -0.776  0.00  0.00    +0.149 HD
ENDROOT
BRANCH   1  16
ATOM     12  C   UNL     1       0.678   1.415   0.738  0.00  0.00    +0.001 A 
ATOM     13  C   UNL     1       1.115   2.081  -0.394  0.00  0.00    +0.003 A 
ATOM     14  C   UNL     1       1.584   1.372  -1.484  0.00  0.00    +0.039 A 
ATOM     15  C   UNL     1       1.620  -0.010  -1.448  0.00  0.00    +0.133 A 
ATOM     16  C   UNL     1       1.181  -0.688  -0.308  0.00  0.00    +0.036 A 
ATOM     17  C   UNL     1       0.709   0.037   0.787  0.00  0.00    +0.013 A 
ATOM     18  F   UNL     1       2.078  -0.704  -2.514  0.00  0.00    -0.205 F 
ENDBRANCH   1  16
BRANCH   4  19
ATOM     19  C   UNL     1      -3.322  -3.906   0.628  0.00  0.00    +0.068 A 
ATOM     20  C   UNL     1      -3.974  -2.962   1.411  0.00  0.00    +0.030 A 
ATOM     21  C   UNL     1      -5.326  -3.088   1.661  0.00  0.00    +0.040 A 
ATOM     22  C   UNL     1      -6.032  -4.155   1.133  0.00  0.00    +0.124 A 
ATOM     23  C   UNL     1      -5.385  -5.098   0.353  0.00  0.00    +0.040 A 
ATOM     24  C   UNL     1      -4.034  -4.973   0.095  0.00  0.00    +0.030 A 
ATOM     25  F   UNL     1      -7.355  -4.276   1.379  0.00  0.00    -0.205 F 
ENDBRANCH   4  19
BRANCH  10  26
ATOM     26  C   UNL     1       3.750  -6.219  -0.581  0.00  0.00    +0.073 C 
ATOM     27  C   UNL     1       3.408  -6.787  -1.959  0.00  0.00    +0.022 C 
ATOM     28  C   UNL     1       3.524  -8.312  -1.926  0.00  0.00    +0.002 C 
ATOM     29  C   UNL     1       4.954  -8.707  -1.553  0.00  0.00    +0.000 C 
ATOM     30  C   UNL     1       5.297  -8.139  -0.174  0.00  0.00    +0.002 C 
ATOM     31  C   UNL     1       5.181  -6.614  -0.207  0.00  0.00    +0.022 C 
ENDBRANCH  10  26
BRANCH   3  32
ATOM     32  N   UNL     1      -1.855  -1.350   0.269  0.00  0.00    -0.342 N 
ATOM     33  H   UNL     1      -1.296  -0.567   0.147  0.00  0.00    +0.144 HD
ATOM     34  H   UNL     1      -2.806  -1.246   0.432  0.00  0.00    +0.144 HD
ENDBRANCH   3  32
TORSDOF 4
