REMARK  Name = ZINC11873595
REMARK  6 active torsions:
REMARK  status: ('A' for Active; 'I' for Inactive)
REMARK    1  A    between atoms: C_1  and  N_2
REMARK    2  A    between atoms: C_4  and  C_11
REMARK    3  A    between atoms: C_11  and  N_12
REMARK    4  A    between atoms: C_16  and  C_19
REMARK    5  A    between atoms: C_19  and  N_20
REMARK    6  A    between atoms: C_21  and  C_23
REMARK                            x       y       z     vdW  Elec       q    Type
REMARK                         _______ _______ _______ _____ _____    ______ ____
ROOT
ATOM      1  N   UNL     1      -1.319  -3.808  -1.834  0.00  0.00    +0.383 N 
ATOM      2  C   UNL     1      -2.199  -2.812  -2.455  0.00  0.00    -0.078 C 
ATOM      3  C   UNL     1      -3.631  -3.349  -2.501  0.00  0.00    -0.018 C 
ATOM      4  C   UNL     1      -3.660  -4.640  -3.323  0.00  0.00    +0.001 C 
ATOM      5  C   UNL     1      -2.682  -5.646  -2.709  0.00  0.00    -0.011 C 
ATOM      6  C   UNL     1      -1.285  -5.024  -2.656  0.00  0.00    -0.073 C 
ATOM      7  H   UNL     1      -1.666  -4.035  -0.914  0.00  0.00    -0.081 HD
ENDROOT
BRANCH   1   8
ATOM      8  C   UNL     1       0.039  -3.258  -1.721  0.00  0.00    -0.041 C 
BRANCH   8  12
ATOM      9  C   UNL     1      -0.018   1.461   0.010  0.00  0.00    +0.149 C 
ATOM     10  N   UNL     1       0.002  -0.004   0.002  0.00  0.00    -0.349 N 
ATOM     11  C   UNL     1       0.008  -0.784  -1.122  0.00  0.00    +0.088 A 
ATOM     12  C   UNL     1       0.027  -2.082  -0.779  0.00  0.00    -0.039 A 
ATOM     13  C   UNL     1       0.034  -2.138   0.685  0.00  0.00    +0.001 A 
ATOM     14  C   UNL     1       0.024  -0.801   1.125  0.00  0.00    +0.049 A 
ATOM     15  C   UNL     1       0.032  -0.533   2.489  0.00  0.00    +0.026 A 
ATOM     16  C   UNL     1       0.055  -1.574   3.391  0.00  0.00    +0.002 A 
ATOM     17  C   UNL     1       0.069  -2.891   2.952  0.00  0.00    +0.001 A 
ATOM     18  C   UNL     1       0.051  -3.177   1.616  0.00  0.00    +0.010 A 
ENDBRANCH   8  12
ENDBRANCH   1   8
BRANCH   5  19
ATOM     19  C   UNL     1      -2.646  -6.912  -3.568  0.00  0.00    +0.106 C 
BRANCH  19  20
ATOM     20  N   UNL     1      -3.954  -7.569  -3.525  0.00  0.00    -0.311 N 
ATOM     21  C   UNL     1      -4.158  -8.711  -4.212  0.00  0.00    +0.244 C 
ATOM     22  O   UNL     1      -3.256  -9.195  -4.867  0.00  0.00    -0.270 OA
ATOM     23  H   UNL     1      -4.674  -7.183  -3.002  0.00  0.00    +0.149 HD
BRANCH  21  24
ATOM     24  C   UNL     1      -5.477  -9.373  -4.169  0.00  0.00    +0.040 A 
ATOM     25  C   UNL     1      -6.517  -8.814  -3.421  0.00  0.00    +0.017 A 
ATOM     26  C   UNL     1      -7.747  -9.433  -3.383  0.00  0.00    +0.050 A 
ATOM     27  C   UNL     1      -7.959 -10.611  -4.086  0.00  0.00    +0.166 A 
ATOM     28  C   UNL     1      -6.925 -11.175  -4.834  0.00  0.00    +0.167 A 
ATOM     29  C   UNL     1      -5.690 -10.556  -4.881  0.00  0.00    +0.062 A 
ATOM     30  O   UNL     1      -7.385 -12.317  -5.423  0.00  0.00    -0.453 OA
ATOM     31  C   UNL     1      -8.582 -12.665  -4.701  0.00  0.00    +0.466 C 
ATOM     32  O   UNL     1      -9.064 -11.401  -4.208  0.00  0.00    -0.453 OA
ENDBRANCH  21  24
ENDBRANCH  19  20
ENDBRANCH   5  19
TORSDOF 5
