REMARK  Name = ZINC39991205
REMARK  9 active torsions:
REMARK  status: ('A' for Active; 'I' for Inactive)
REMARK    1  A    between atoms: C_1  and  C_2
REMARK    2  A    between atoms: C_10  and  C_14
REMARK    3  A    between atoms: C_14  and  C_27
REMARK    4  A    between atoms: C_15  and  C_16
REMARK    5  A    between atoms: C_18  and  O_25
REMARK    6  A    between atoms: C_19  and  O_24
REMARK    7  A    between atoms: C_20  and  O_22
REMARK    8  A    between atoms: O_22  and  C_23
REMARK    9  A    between atoms: O_25  and  C_26
REMARK                            x       y       z     vdW  Elec       q    Type
REMARK                         _______ _______ _______ _____ _____    ______ ____
ROOT
ATOM      1  C   UNL     1       7.507  -3.073   0.779  0.00  0.00    +0.094 C 
ATOM      2  C   UNL     1       8.300  -3.431  -0.289  0.00  0.00    +0.030 C 
ENDROOT
BRANCH   1  11
ATOM      3  C   UNL     1      -0.710   0.122  -0.046  0.00  0.00    +0.007 C 
ATOM      4  C   UNL     1      -0.432  -1.369   0.150  0.00  0.00    -0.012 C 
ATOM      5  C   UNL     1       0.275  -1.915  -1.088  0.00  0.00    +0.008 C 
ATOM      6  C   UNL     1       1.573  -1.139  -1.348  0.00  0.00    +0.033 C 
ATOM      7  C   UNL     1       2.373  -1.179  -0.048  0.00  0.00    -0.042 C 
ATOM      8  C   UNL     1       3.629  -1.611   0.058  0.00  0.00    +0.071 C 
ATOM      9  C   UNL     1       4.206  -1.767   1.421  0.00  0.00    +0.112 C 
ATOM     10  N   UNL     1       5.415  -2.226   1.624  0.00  0.00    -0.222 NA
ATOM     11  C   UNL     1       6.144  -2.560   0.546  0.00  0.00    +0.164 C 
ATOM     12  N   UNL     1       5.735  -2.465  -0.706  0.00  0.00    -0.156 NA
ATOM     13  C   UNL     1       4.526  -2.018  -1.076  0.00  0.00    +0.272 C 
ATOM     14  O   UNL     1       4.181  -1.948  -2.244  0.00  0.00    -0.268 OA
ATOM     15  S   UNL     1       2.937  -1.211   2.514  0.00  0.00    -0.097 S 
ATOM     16  C   UNL     1       1.702  -0.723   1.248  0.00  0.00    +0.080 C 
ATOM     17  C   UNL     1       0.431  -1.560   1.402  0.00  0.00    +0.022 C 
ENDBRANCH   1  11
BRANCH   2  18
ATOM     18  C   UNL     1       9.586  -4.090  -0.057  0.00  0.00    -0.017 A 
ATOM     19  C   UNL     1      10.682  -3.806  -0.885  0.00  0.00    +0.057 A 
ATOM     20  C   UNL     1      11.893  -4.431  -0.662  0.00  0.00    +0.166 A 
ATOM     21  C   UNL     1      12.028  -5.342   0.384  0.00  0.00    +0.201 A 
ATOM     22  C   UNL     1      10.941  -5.628   1.209  0.00  0.00    +0.166 A 
ATOM     23  C   UNL     1       9.728  -5.003   0.998  0.00  0.00    +0.057 A 
BRANCH  22  24
ATOM     24  O   UNL     1      11.079  -6.519   2.228  0.00  0.00    -0.491 OA
ATOM     25  C   UNL     1       9.925  -6.764   3.034  0.00  0.00    +0.277 C 
ENDBRANCH  22  24
BRANCH  21  26
ATOM     26  O   UNL     1      13.221  -5.954   0.599  0.00  0.00    -0.501 OA
ATOM     27  H   UNL     1      13.806  -5.476   1.202  0.00  0.00    +0.292 HD
ENDBRANCH  21  26
BRANCH  20  28
ATOM     28  O   UNL     1      12.956  -4.156  -1.464  0.00  0.00    -0.491 OA
ATOM     29  C   UNL     1      12.748  -3.212  -2.517  0.00  0.00    +0.277 C 
ENDBRANCH  20  28
ENDBRANCH   2  18
BRANCH   1  30
ATOM     30  C   UNL     1       8.006  -3.198   2.115  0.00  0.00    +0.103 C 
ATOM     31  N   UNL     1       8.402  -3.298   3.175  0.00  0.00    -0.191 NA
ENDBRANCH   1  30
TORSDOF 6
