REMARK  Name = ZINC67201895
REMARK  8 active torsions:
REMARK  status: ('A' for Active; 'I' for Inactive)
REMARK    1  A    between atoms: C_1  and  C_2
REMARK    2  A    between atoms: C_2  and  C_4
REMARK    3  A    between atoms: C_2  and  N_16
REMARK    4  A    between atoms: C_17  and  C_19
REMARK    5  A    between atoms: C_19  and  C_20
REMARK    6  A    between atoms: C_20  and  C_21
REMARK    7  A    between atoms: C_20  and  C_22
REMARK    8  A    between atoms: C_20  and  C_23
REMARK                            x       y       z     vdW  Elec       q    Type
REMARK                         _______ _______ _______ _____ _____    ______ ____
ROOT
ATOM      1  C   UNL     1      -0.019   1.526   0.010  0.00  0.00    +0.033 C 
ATOM      2  C   UNL     1       0.002  -0.004   0.002  0.00  0.00    +0.100 C 
ENDROOT
BRANCH   2   3
ATOM      3  C   UNL     1      -1.412  -0.526   0.013  0.00  0.00    -0.025 A 
ATOM      4  C   UNL     1      -2.121  -0.570   1.201  0.00  0.00    +0.007 A 
ATOM      5  C   UNL     1      -3.417  -1.046   1.221  0.00  0.00    +0.028 A 
ATOM      6  C   UNL     1      -4.011  -1.482   0.046  0.00  0.00    +0.067 A 
ATOM      7  C   UNL     1      -3.295  -1.438  -1.153  0.00  0.00    +0.067 A 
ATOM      8  C   UNL     1      -1.996  -0.953  -1.164  0.00  0.00    +0.033 A 
ATOM      9  N   UNL     1      -4.139  -1.932  -2.144  0.00  0.00    -0.306 N 
ATOM     10  H   UNL     1      -3.918  -2.023  -3.084  0.00  0.00    +0.170 HD
ATOM     11  C   UNL     1      -5.314  -2.262  -1.575  0.00  0.00    +0.325 A 
ATOM     12  O   UNL     1      -6.272  -2.725  -2.165  0.00  0.00    -0.247 OA
ATOM     13  N   UNL     1      -5.267  -2.002  -0.255  0.00  0.00    -0.306 N 
ATOM     14  H   UNL     1      -5.986  -2.151   0.379  0.00  0.00    +0.170 HD
ENDBRANCH   2   3
BRANCH   2  15
ATOM     15  N   UNL     1       0.711  -0.489   1.189  0.00  0.00    -0.309 N 
ATOM     16  C   UNL     1       2.054  -0.600   1.174  0.00  0.00    +0.214 C 
ATOM     17  O   UNL     1       2.676  -0.297   0.177  0.00  0.00    -0.276 OA
ATOM     18  H   UNL     1       0.213  -0.731   1.986  0.00  0.00    +0.149 HD
BRANCH  16  19
ATOM     19  C   UNL     1       2.783  -1.099   2.395  0.00  0.00    +0.106 C 
BRANCH  19  20
ATOM     20  C   UNL     1       4.287  -1.129   2.114  0.00  0.00    -0.002 C 
ATOM     21  C   UNL     1       4.567  -2.062   0.935  0.00  0.00    +0.016 C 
ATOM     22  C   UNL     1       4.769   0.283   1.773  0.00  0.00    +0.016 C 
BRANCH  20  23
ATOM     23  C   UNL     1       5.015  -1.628   3.335  0.00  0.00    -0.041 A 
ATOM     24  C   UNL     1       4.306  -1.978   4.469  0.00  0.00    +0.004 A 
ATOM     25  C   UNL     1       4.974  -2.436   5.589  0.00  0.00    +0.000 A 
ATOM     26  C   UNL     1       6.352  -2.544   5.575  0.00  0.00    +0.000 A 
ATOM     27  C   UNL     1       7.062  -2.195   4.441  0.00  0.00    +0.000 A 
ATOM     28  C   UNL     1       6.393  -1.741   3.320  0.00  0.00    +0.004 A 
ENDBRANCH  20  23
ENDBRANCH  19  20
ENDBRANCH  16  19
ENDBRANCH   2  15
TORSDOF 5
