REMARK  Name = ZINC00234611
REMARK  8 active torsions:
REMARK  status: ('A' for Active; 'I' for Inactive)
REMARK    1  A    between atoms: C_1  and  C_2
REMARK    2  A    between atoms: C_2  and  C_4
REMARK    3  A    between atoms: C_2  and  N_17
REMARK    4  A    between atoms: N_6  and  N_7
REMARK    5  A    between atoms: C_8  and  C_9
REMARK    6  A    between atoms: C_12  and  O_16
REMARK    7  A    between atoms: C_14  and  O_15
REMARK    8  A    between atoms: N_17  and  C_18
REMARK                            x       y       z     vdW  Elec       q    Type
REMARK                         _______ _______ _______ _____ _____    ______ ____
ROOT
ATOM      1  C   UNL     1       5.930   3.392  -0.035  0.00  0.00    +0.252 C 
ATOM      2  O   UNL     1       5.954   2.179  -0.041  0.00  0.00    -0.272 OA
ATOM      3  N   UNL     1       4.750   4.043  -0.020  0.00  0.00    -0.205 N 
ATOM      4  H   UNL     1       4.731   5.013  -0.015  0.00  0.00    +0.177 HD
ENDROOT
BRANCH   1   6
ATOM      5  C   UNL     1       7.296   5.045   1.211  0.00  0.00    +0.038 C 
ATOM      6  C   UNL     1       7.220   4.171  -0.042  0.00  0.00    +0.155 C 
BRANCH   6   7
ATOM      7  N   UNL     1       8.352   3.241  -0.058  0.00  0.00    -0.333 N 
ATOM      8  H   UNL     1       8.246   2.343   0.294  0.00  0.00    +0.147 HD
BRANCH   7   9
ATOM      9  C   UNL     1       9.580   3.646  -0.577  0.00  0.00    +0.035 A 
ATOM     10  C   UNL     1       9.737   4.921  -1.077  0.00  0.00    +0.023 A 
ATOM     11  C   UNL     1      10.959   5.335  -1.598  0.00  0.00    +0.002 A 
ATOM     12  C   UNL     1      12.031   4.496  -1.628  0.00  0.00    +0.008 A 
ATOM     13  C   UNL     1      11.913   3.189  -1.127  0.00  0.00    -0.016 A 
ATOM     14  C   UNL     1      10.676   2.757  -0.589  0.00  0.00    +0.003 A 
ATOM     15  C   UNL     1      10.558   1.448  -0.095  0.00  0.00    +0.010 A 
ATOM     16  C   UNL     1      11.635   0.616  -0.129  0.00  0.00    +0.001 A 
ATOM     17  C   UNL     1      12.854   1.041  -0.653  0.00  0.00    +0.001 A 
ATOM     18  C   UNL     1      13.003   2.301  -1.146  0.00  0.00    +0.008 A 
ENDBRANCH   7   9
ENDBRANCH   6   7
ENDBRANCH   1   6
BRANCH   3  19
ATOM     19  N   UNL     1       3.551   3.319  -0.013  0.00  0.00    -0.188 NA
ATOM     20  C   UNL     1       2.414   3.947   0.001  0.00  0.00    +0.142 C 
BRANCH  20  21
ATOM     21  C   UNL     1       1.153   3.186   0.008  0.00  0.00    +0.036 A 
ATOM     22  C   UNL     1      -0.072   3.858   0.024  0.00  0.00    +0.016 A 
ATOM     23  C   UNL     1      -1.249   3.142   0.031  0.00  0.00    +0.046 A 
ATOM     24  C   UNL     1      -1.224   1.752   0.017  0.00  0.00    +0.120 A 
ATOM     25  C   UNL     1      -0.013   1.076   0.008  0.00  0.00    +0.091 A 
ATOM     26  C   UNL     1       1.177   1.784   0.000  0.00  0.00    +0.129 A 
BRANCH  26  27
ATOM     27  O   UNL     1       2.363   1.122  -0.014  0.00  0.00    -0.506 OA
ATOM     28  H   UNL     1       2.698   0.935  -0.902  0.00  0.00    +0.292 HD
ENDBRANCH  26  27
BRANCH  24  29
ATOM     29  O   UNL     1      -2.389   1.054   0.019  0.00  0.00    -0.507 OA
ATOM     30  H   UNL     1      -2.722   0.847   0.902  0.00  0.00    +0.292 HD
ENDBRANCH  24  29
ENDBRANCH  20  21
ENDBRANCH   3  19
TORSDOF 7
