REMARK  Name = ZINC12547652
REMARK  7 active torsions:
REMARK  status: ('A' for Active; 'I' for Inactive)
REMARK    1  A    between atoms: C_1  and  N_2
REMARK    2  A    between atoms: C_10  and  C_11
REMARK    3  A    between atoms: C_11  and  C_12
REMARK    4  A    between atoms: N_14  and  N_15
REMARK    5  A    between atoms: C_16  and  C_18
REMARK    6  A    between atoms: N_23  and  S_25
REMARK    7  A    between atoms: S_25  and  C_28
REMARK                            x       y       z     vdW  Elec       q    Type
REMARK                         _______ _______ _______ _____ _____    ______ ____
ROOT
ATOM      1  N   UNL     1       4.034   4.300   2.331  0.00  0.00    -0.234 N 
ATOM      2  C   UNL     1       5.362   4.408   2.528  0.00  0.00    +0.233 C 
ATOM      3  O   UNL     1       5.992   3.461   2.950  0.00  0.00    -0.274 OA
ATOM      4  H   UNL     1       3.530   5.057   1.993  0.00  0.00    +0.173 HD
ENDROOT
BRANCH   2   5
ATOM      5  C   UNL     1       6.066   5.706   2.224  0.00  0.00    +0.092 C 
ATOM      6  C   UNL     1       5.883   6.052   0.745  0.00  0.00    +0.015 C 
ATOM      7  C   UNL     1       6.569   7.386   0.443  0.00  0.00    +0.018 C 
ATOM      8  C   UNL     1       8.069   7.260   0.727  0.00  0.00    +0.109 C 
ATOM      9  N   UNL     1       8.250   6.787   2.107  0.00  0.00    -0.176 NA
ATOM     10  C   UNL     1       7.560   5.561   2.529  0.00  0.00    +0.122 C 
BRANCH   9  11
ATOM     11  S   UNL     1       9.214   7.620   3.164  0.00  0.00    +0.061 S 
ATOM     12  O   UNL     1       9.634   6.689   4.152  0.00  0.00    -0.153 OA
ATOM     13  O   UNL     1      10.134   8.363   2.377  0.00  0.00    -0.153 OA
BRANCH  11  14
ATOM     14  C   UNL     1       8.191   8.797   3.985  0.00  0.00    +0.106 A 
ATOM     15  C   UNL     1       8.035  10.065   3.457  0.00  0.00    +0.031 A 
ATOM     16  C   UNL     1       7.228  10.987   4.097  0.00  0.00    +0.040 A 
ATOM     17  C   UNL     1       6.585  10.644   5.274  0.00  0.00    +0.124 A 
ATOM     18  C   UNL     1       6.746   9.375   5.805  0.00  0.00    +0.040 A 
ATOM     19  C   UNL     1       7.549   8.453   5.160  0.00  0.00    +0.031 A 
ATOM     20  F   UNL     1       5.801  11.546   5.904  0.00  0.00    -0.205 F 
ENDBRANCH  11  14
ENDBRANCH   9  11
ENDBRANCH   2   5
BRANCH   1  23
ATOM     21  C   UNL     1       2.051   2.985   2.416  0.00  0.00    +0.236 C 
ATOM     22  O   UNL     1       1.421   3.931   1.994  0.00  0.00    -0.274 OA
ATOM     23  N   UNL     1       3.380   3.093   2.613  0.00  0.00    -0.234 N 
ATOM     24  H   UNL     1       3.883   2.336   2.950  0.00  0.00    +0.173 HD
BRANCH  21  25
ATOM     25  C   UNL     1       1.347   1.687   2.720  0.00  0.00    +0.171 C 
BRANCH  25  35
ATOM     26  C   UNL     1      -0.013   1.086   0.008  0.00  0.00    +0.150 C 
ATOM     27  N   UNL     1      -0.698   1.558   1.213  0.00  0.00    -0.330 N 
ATOM     28  C   UNL     1      -2.049   1.817   1.338  0.00  0.00    +0.069 A 
ATOM     29  C   UNL     1      -3.132   1.738   0.474  0.00  0.00    +0.028 A 
ATOM     30  C   UNL     1      -4.390   2.079   0.923  0.00  0.00    +0.002 A 
ATOM     31  C   UNL     1      -4.580   2.500   2.232  0.00  0.00    +0.002 A 
ATOM     32  C   UNL     1      -3.526   2.577   3.098  0.00  0.00    +0.030 A 
ATOM     33  C   UNL     1      -2.241   2.241   2.664  0.00  0.00    +0.089 A 
ATOM     34  N   UNL     1      -1.024   2.228   3.264  0.00  0.00    -0.232 NA
ATOM     35  C   UNL     1      -0.122   1.829   2.415  0.00  0.00    +0.119 A 
ENDBRANCH  25  35
ENDBRANCH  21  25
ENDBRANCH   1  23
TORSDOF 6
