REMARK  Name = ZINC13119157
REMARK  7 active torsions:
REMARK  status: ('A' for Active; 'I' for Inactive)
REMARK    1  A    between atoms: C_4  and  O_23
REMARK    2  A    between atoms: C_5  and  C_7
REMARK    3  A    between atoms: N_11  and  C_15
REMARK    4  A    between atoms: C_15  and  C_16
REMARK    5  A    between atoms: O_23  and  C_24
REMARK    6  A    between atoms: C_24  and  C_25
REMARK    7  A    between atoms: C_28  and  C_31
REMARK                            x       y       z     vdW  Elec       q    Type
REMARK                         _______ _______ _______ _____ _____    ______ ____
ROOT
ATOM      1  C   UNL     1      -0.069   1.349   0.171  0.00  0.00    +0.001 A 
ATOM      2  C   UNL     1       1.105   2.084   0.149  0.00  0.00    +0.004 A 
ATOM      3  C   UNL     1       2.329   1.447   0.071  0.00  0.00    +0.046 A 
ATOM      4  C   UNL     1       2.390   0.064   0.015  0.00  0.00    +0.128 A 
ATOM      5  C   UNL     1       1.203  -0.686   0.037  0.00  0.00    +0.019 A 
ATOM      6  C   UNL     1      -0.030  -0.027   0.116  0.00  0.00    +0.011 A 
ENDROOT
BRANCH   5   7
ATOM      7  C   UNL     1       1.254  -2.152  -0.022  0.00  0.00    +0.040 C 
ATOM      8  C   UNL     1       0.198  -2.849  -0.513  0.00  0.00    +0.098 C 
ATOM      9  C   UNL     1       0.007  -4.307  -0.503  0.00  0.00    +0.269 C 
ATOM     10  O   UNL     1       0.769  -5.141  -0.050  0.00  0.00    -0.268 OA
ATOM     11  N   UNL     1      -1.183  -4.534  -1.096  0.00  0.00    -0.216 N 
ATOM     12  C   UNL     1      -1.737  -3.370  -1.466  0.00  0.00    +0.313 C 
ATOM     13  O   UNL     1      -2.812  -3.266  -2.025  0.00  0.00    -0.252 OA
ATOM     14  N   UNL     1      -0.949  -2.333  -1.133  0.00  0.00    -0.265 N 
ATOM     15  H   UNL     1      -1.138  -1.395  -1.294  0.00  0.00    +0.157 HD
BRANCH  11  16
ATOM     16  C   UNL     1      -1.780  -5.855  -1.305  0.00  0.00    +0.153 C 
BRANCH  16  17
ATOM     17  C   UNL     1      -2.632  -6.215  -0.115  0.00  0.00    -0.029 A 
ATOM     18  C   UNL     1      -2.074  -6.887   0.956  0.00  0.00    +0.008 A 
ATOM     19  C   UNL     1      -2.853  -7.218   2.048  0.00  0.00    +0.038 A 
ATOM     20  C   UNL     1      -4.195  -6.876   2.069  0.00  0.00    +0.123 A 
ATOM     21  C   UNL     1      -4.753  -6.203   0.995  0.00  0.00    +0.038 A 
ATOM     22  C   UNL     1      -3.970  -5.869  -0.093  0.00  0.00    +0.008 A 
ATOM     23  F   UNL     1      -4.958  -7.199   3.136  0.00  0.00    -0.205 F 
ENDBRANCH  16  17
ENDBRANCH  11  16
ENDBRANCH   5   7
BRANCH   4  24
ATOM     24  O   UNL     1       3.591  -0.563  -0.062  0.00  0.00    -0.487 OA
BRANCH  24  25
ATOM     25  C   UNL     1       4.755   0.266  -0.082  0.00  0.00    +0.264 C 
BRANCH  25  26
ATOM     26  C   UNL     1       5.986  -0.599  -0.169  0.00  0.00    -0.010 A 
ATOM     27  C   UNL     1       6.598  -1.045   0.989  0.00  0.00    +0.008 A 
ATOM     28  C   UNL     1       7.725  -1.837   0.916  0.00  0.00    +0.015 A 
ATOM     29  C   UNL     1       8.249  -2.188  -0.331  0.00  0.00    +0.063 A 
ATOM     30  C   UNL     1       7.625  -1.734  -1.496  0.00  0.00    +0.015 A 
ATOM     31  C   UNL     1       6.496  -0.948  -1.408  0.00  0.00    +0.008 A 
BRANCH  29  32
ATOM     32  C   UNL     1       9.454  -3.034  -0.416  0.00  0.00    +0.387 C 
ATOM     33  O   UNL     1       9.998  -3.429   0.605  0.00  0.00    -0.241 OA
ATOM     34  O   UNL     1       9.910  -3.340  -1.509  0.00  0.00    -0.241 OA
ENDBRANCH  29  32
ENDBRANCH  25  26
ENDBRANCH  24  25
ENDBRANCH   4  24
TORSDOF 7
