REMARK  Name = ZINC64899403
REMARK  6 active torsions:
REMARK  status: ('A' for Active; 'I' for Inactive)
REMARK    1  A    between atoms: C_1  and  O_2
REMARK    2  A    between atoms: O_2  and  C_3
REMARK    3  A    between atoms: C_3  and  C_4
REMARK    4  A    between atoms: C_4  and  N_5
REMARK    5  A    between atoms: N_8  and  N_9
REMARK    6  A    between atoms: C_10  and  C_12
REMARK                            x       y       z     vdW  Elec       q    Type
REMARK                         _______ _______ _______ _____ _____    ______ ____
ROOT
ATOM      1  N   UNL     1       2.839  -3.275  -2.351  0.00  0.00    -0.233 N 
ATOM      2  C   UNL     1       3.546  -3.665  -3.430  0.00  0.00    +0.235 C 
ATOM      3  O   UNL     1       3.640  -4.844  -3.700  0.00  0.00    -0.274 OA
ATOM      4  H   UNL     1       2.764  -2.333  -2.135  0.00  0.00    +0.173 HD
ENDROOT
BRANCH   2   5
ATOM      5  C   UNL     1       4.221  -2.637  -4.301  0.00  0.00    +0.050 C 
ATOM      6  C   UNL     1       5.228  -1.843  -3.466  0.00  0.00    +0.020 C 
ATOM      7  C   UNL     1       5.912  -0.799  -4.351  0.00  0.00    -0.008 C 
ATOM      8  C   UNL     1       6.642  -1.501  -5.498  0.00  0.00    +0.007 C 
ATOM      9  C   UNL     1       5.635  -2.295  -6.332  0.00  0.00    -0.008 C 
ATOM     10  C   UNL     1       4.950  -3.339  -5.448  0.00  0.00    +0.020 C 
ATOM     11  C   UNL     1       4.583  -1.342  -6.904  0.00  0.00    +0.021 C 
ATOM     12  C   UNL     1       3.853  -0.640  -5.757  0.00  0.00    +0.028 C 
ATOM     13  C   UNL     1       4.860   0.154  -4.923  0.00  0.00    +0.021 C 
ATOM     14  C   UNL     1       3.169  -1.684  -4.873  0.00  0.00    +0.034 C 
ATOM     15 BR   UNL     1       2.502   0.584  -6.492  0.00  0.00    -0.084 Br
ENDBRANCH   2   5
BRANCH   1  19
ATOM     16  N   UNL     1       1.401  -2.532  -0.162  0.00  0.00    -0.296 N 
ATOM     17  C   UNL     1       1.505  -3.841  -0.462  0.00  0.00    +0.316 C 
ATOM     18  O   UNL     1       0.961  -4.671   0.240  0.00  0.00    -0.251 OA
ATOM     19  N   UNL     1       2.212  -4.231  -1.541  0.00  0.00    -0.218 N 
ATOM     20  H   UNL     1       1.835  -1.870  -0.723  0.00  0.00    +0.150 HD
ATOM     21  H   UNL     1       2.288  -5.174  -1.757  0.00  0.00    +0.174 HD
BRANCH  16  22
ATOM     22  C   UNL     1       0.633  -2.108   1.011  0.00  0.00    +0.134 C 
BRANCH  22  23
ATOM     23  C   UNL     1       0.673  -0.582   1.123  0.00  0.00    +0.178 C 
BRANCH  23  25
ATOM     24  C   UNL     1      -0.017   1.425   0.010  0.00  0.00    +0.194 C 
ATOM     25  O   UNL     1       0.002  -0.004   0.002  0.00  0.00    -0.381 OA
ENDBRANCH  23  25
ENDBRANCH  22  23
ENDBRANCH  16  22
ENDBRANCH   1  19
TORSDOF 5
