REMARK  Name = ZINC21548833
REMARK  4 active torsions:
REMARK  status: ('A' for Active; 'I' for Inactive)
REMARK    1  A    between atoms: C_4  and  C_7
REMARK    2  A    between atoms: N_11  and  N_12
REMARK    3  A    between atoms: C_13  and  C_14
REMARK    4  A    between atoms: C_18  and  N_20
REMARK                            x       y       z     vdW  Elec       q    Type
REMARK                         _______ _______ _______ _____ _____    ______ ____
ROOT
ATOM      1  C   UNL     1       3.711  -0.707  -0.038  0.00  0.00    +0.136 C 
ATOM      2  C   UNL     1       4.021  -1.239  -1.454  0.00  0.00    +0.110 C 
ATOM      3  C   UNL     1       4.069  -2.738  -1.227  0.00  0.00    +0.173 C 
ATOM      4  N   UNL     1       4.309  -3.666  -2.159  0.00  0.00    -0.133 NA
ATOM      5  N   UNL     1       3.837  -2.965   0.034  0.00  0.00    -0.161 NA
ATOM      6  N   UNL     1       3.632  -1.936   0.769  0.00  0.00    -0.299 N 
ATOM      7  H   UNL     1       3.449  -1.960   1.721  0.00  0.00    +0.183 HD
ENDROOT
BRANCH   1  11
ATOM      8  C   UNL     1      -0.017   1.378   0.010  0.00  0.00    +0.000 A 
ATOM      9  C   UNL     1       1.171   2.086   0.002  0.00  0.00    +0.000 A 
ATOM     10  C   UNL     1       2.377   1.411  -0.013  0.00  0.00    +0.006 A 
ATOM     11  C   UNL     1       2.396   0.029  -0.020  0.00  0.00    -0.023 A 
ATOM     12  C   UNL     1       1.208  -0.679  -0.012  0.00  0.00    +0.006 A 
ATOM     13  C   UNL     1       0.002  -0.004   0.002  0.00  0.00    +0.000 A 
ENDBRANCH   1  11
BRANCH   4  14
ATOM     14  N   UNL     1       4.323  -4.915  -1.838  0.00  0.00    -0.156 NA
ATOM     15  C   UNL     1       4.564  -5.846  -2.774  0.00  0.00    +0.142 C 
BRANCH  15  16
ATOM     16  C   UNL     1       4.579  -7.162  -2.435  0.00  0.00    +0.021 C 
ATOM     17  C   UNL     1       4.335  -7.564  -1.094  0.00  0.00    +0.183 C 
ATOM     18  C   UNL     1       4.360  -9.003  -0.774  0.00  0.00    +0.049 C 
ATOM     19  C   UNL     1       4.221  -9.897  -1.748  0.00  0.00    +0.008 C 
ATOM     20  C   UNL     1       4.031  -9.468  -3.176  0.00  0.00    +0.197 C 
ATOM     21  C   UNL     1       4.848  -8.217  -3.478  0.00  0.00    +0.076 C 
ATOM     22  O   UNL     1       4.112  -6.737  -0.227  0.00  0.00    -0.288 OA
BRANCH  20  23
ATOM     23  N   UNL     1       2.613  -9.181  -3.409  0.00  0.00    +0.030 N 
ATOM     24  O   UNL     1       2.057  -8.321  -2.765  0.00  0.00    -0.131 OA
ATOM     25  O   UNL     1       2.000  -9.803  -4.244  0.00  0.00    -0.131 OA
ENDBRANCH  20  23
ENDBRANCH  15  16
ENDBRANCH   4  14
TORSDOF 4
