REMARK  Name = ZINC18198646
REMARK  5 active torsions:
REMARK  status: ('A' for Active; 'I' for Inactive)
REMARK    1  A    between atoms: C_5  and  C_7
REMARK    2  A    between atoms: C_7  and  S_8
REMARK    3  A    between atoms: S_8  and  C_9
REMARK    4  A    between atoms: C_14  and  C_24
REMARK    5  A    between atoms: C_27  and  C_30
REMARK                            x       y       z     vdW  Elec       q    Type
REMARK                         _______ _______ _______ _____ _____    ______ ____
ROOT
ATOM      1  C   UNL     1      -1.118   2.075   5.678  0.00  0.00    +0.211 A 
ATOM      2  N   UNL     1      -0.118   1.894   4.803  0.00  0.00    -0.187 NA
ATOM      3  C   UNL     1      -0.590   1.934   3.587  0.00  0.00    +0.219 A 
ATOM      4  N   UNL     1      -1.926   2.151   3.660  0.00  0.00    -0.220 N 
ATOM      5  N   UNL     1      -2.243   2.234   5.015  0.00  0.00    -0.141 NA
ATOM      6  C   UNL     1      -2.784   2.264   2.490  0.00  0.00    +0.175 C 
ATOM      7  C   UNL     1      -2.052   1.773   1.261  0.00  0.00    +0.041 C 
ATOM      8  C   UNL     1      -0.718   1.572   1.252  0.00  0.00    +0.020 C 
ATOM      9  N   UNL     1       0.053   1.792   2.368  0.00  0.00    -0.287 N 
ATOM     10  C   UNL     1      -0.013   1.086   0.008  0.00  0.00    +0.052 C 
ATOM     11  C   UNL     1      -0.751   1.592  -1.233  0.00  0.00    +0.014 C 
ATOM     12  C   UNL     1      -2.194   1.079  -1.177  0.00  0.00    +0.080 C 
ATOM     13  C   UNL     1      -2.824   1.536   0.109  0.00  0.00    +0.163 C 
ATOM     14  O   UNL     1      -4.027   1.703   0.155  0.00  0.00    -0.292 OA
ATOM     15  H   UNL     1       1.020   1.848   2.304  0.00  0.00    +0.155 HD
ENDROOT
BRANCH   6  16
ATOM     16  C   UNL     1      -3.176   3.707   2.296  0.00  0.00    -0.018 A 
ATOM     17  C   UNL     1      -2.199   4.664   2.086  0.00  0.00    +0.007 A 
ATOM     18  C   UNL     1      -2.552   5.984   1.902  0.00  0.00    +0.015 A 
ATOM     19  C   UNL     1      -3.897   6.356   1.940  0.00  0.00    +0.063 A 
ATOM     20  C   UNL     1      -4.877   5.386   2.159  0.00  0.00    +0.015 A 
ATOM     21  C   UNL     1      -4.511   4.068   2.335  0.00  0.00    +0.007 A 
BRANCH  19  22
ATOM     22  C   UNL     1      -4.282   7.770   1.751  0.00  0.00    +0.387 C 
ATOM     23  O   UNL     1      -5.453   8.091   1.785  0.00  0.00    -0.241 OA
ATOM     24  O   UNL     1      -3.333   8.704   1.540  0.00  0.00    -0.241 OA
ENDBRANCH  19  22
ENDBRANCH   6  16
BRANCH   1  25
ATOM     25  S   UNL     1      -0.952   2.095   7.432  0.00  0.00    -0.078 S 
BRANCH  25  26
ATOM     26  C   UNL     1       0.821   1.824   7.707  0.00  0.00    +0.132 C 
BRANCH  26  31
ATOM     27  C   UNL     1       1.676   2.987  11.190  0.00  0.00    +0.003 A 
ATOM     28  C   UNL     1       1.608   1.775  11.860  0.00  0.00    +0.020 A 
ATOM     29  C   UNL     1       1.288   0.631  11.153  0.00  0.00    +0.111 A 
ATOM     30  N   UNL     1       1.048   0.684   9.858  0.00  0.00    -0.259 NA
ATOM     31  C   UNL     1       1.103   1.818   9.188  0.00  0.00    +0.051 A 
ATOM     32  C   UNL     1       1.424   3.002   9.826  0.00  0.00    +0.024 A 
ENDBRANCH  26  31
ENDBRANCH  25  26
ENDBRANCH   1  25
TORSDOF 5
