REMARK  Name = ZINC15226109
REMARK  8 active torsions:
REMARK  status: ('A' for Active; 'I' for Inactive)
REMARK    1  A    between atoms: C_1  and  C_2
REMARK    2  A    between atoms: C_2  and  C_3
REMARK    3  A    between atoms: C_3  and  N_4
REMARK    4  A    between atoms: C_14  and  S_15
REMARK    5  A    between atoms: S_15  and  C_16
REMARK    6  A    between atoms: C_16  and  C_17
REMARK    7  A    between atoms: N_19  and  N_20
REMARK    8  A    between atoms: C_26  and  C_29
REMARK                            x       y       z     vdW  Elec       q    Type
REMARK                         _______ _______ _______ _____ _____    ______ ____
ROOT
ATOM      1  C   UNL     1      -5.219  -2.005   0.045  0.00  0.00    +0.240 C 
ATOM      2  O   UNL     1      -5.434  -3.199   0.041  0.00  0.00    -0.273 OA
ATOM      3  N   UNL     1      -6.248  -1.135   0.060  0.00  0.00    -0.223 N 
ATOM      4  H   UNL     1      -6.076  -0.180   0.063  0.00  0.00    +0.174 HD
ENDROOT
BRANCH   3   5
ATOM      5  N   UNL     1      -7.566  -1.609   0.070  0.00  0.00    -0.137 N 
ATOM      6  C   UNL     1      -8.367  -1.599   1.157  0.00  0.00    +0.263 C 
ATOM      7  O   UNL     1      -8.093  -1.195   2.266  0.00  0.00    -0.271 OA
ATOM      8  C   UNL     1      -9.676  -2.199   0.698  0.00  0.00    +0.114 C 
ATOM      9  C   UNL     1     -10.806  -1.187   0.852  0.00  0.00    +0.035 C 
ATOM     10  C   UNL     1     -12.117  -1.803   0.357  0.00  0.00    +0.006 C 
ATOM     11  C   UNL     1     -12.425  -3.063   1.167  0.00  0.00    -0.014 C 
ATOM     12  C   UNL     1     -11.295  -4.078   0.984  0.00  0.00    +0.006 C 
ATOM     13  C   UNL     1      -9.981  -3.471   1.481  0.00  0.00    +0.035 C 
ATOM     14  C   UNL     1     -13.742  -3.673   0.682  0.00  0.00    +0.007 C 
ATOM     15  N   UNL     1      -9.450  -2.508  -0.719  0.00  0.00    -0.284 N 
ATOM     16  C   UNL     1      -8.190  -2.123  -0.997  0.00  0.00    +0.326 C 
ATOM     17  O   UNL     1      -7.676  -2.232  -2.093  0.00  0.00    -0.251 OA
ATOM     18  H   UNL     1     -10.085  -2.906  -1.335  0.00  0.00    +0.151 HD
ENDBRANCH   3   5
BRANCH   1  19
ATOM     19  C   UNL     1      -3.801  -1.496   0.033  0.00  0.00    +0.174 C 
BRANCH  19  20
ATOM     20  S   UNL     1      -2.656  -2.897   0.014  0.00  0.00    -0.078 S 
BRANCH  20  31
ATOM     21  N   UNL     1       0.036  -2.766  -0.012  0.00  0.00    -0.287 N 
ATOM     22  C   UNL     1       1.239  -2.146  -0.021  0.00  0.00    +0.262 A 
ATOM     23  O   UNL     1       2.277  -2.782  -0.034  0.00  0.00    -0.267 OA
ATOM     24  C   UNL     1       1.245  -0.677  -0.013  0.00  0.00    +0.065 A 
ATOM     25  C   UNL     1       2.432   0.055  -0.021  0.00  0.00    +0.015 A 
ATOM     26  C   UNL     1       2.381   1.422  -0.013  0.00  0.00    +0.001 A 
ATOM     27  C   UNL     1       1.161   2.086   0.002  0.00  0.00    +0.002 A 
ATOM     28  C   UNL     1      -0.017   1.394   0.010  0.00  0.00    +0.028 A 
ATOM     29  C   UNL     1       0.002  -0.004   0.002  0.00  0.00    +0.079 A 
ATOM     30  N   UNL     1      -1.136  -0.726   0.009  0.00  0.00    -0.223 NA
ATOM     31  C   UNL     1      -1.119  -2.036   0.003  0.00  0.00    +0.173 A 
BRANCH  21  32
ATOM     32  C   UNL     1      -0.028  -4.229  -0.019  0.00  0.00    +0.127 C 
BRANCH  32  34
ATOM     33  C   UNL     1      -0.104  -6.275   1.414  0.00  0.00    +0.005 C 
ATOM     34  C   UNL     1      -0.037  -4.746   1.421  0.00  0.00    +0.018 C 
ENDBRANCH  32  34
ENDBRANCH  21  32
ENDBRANCH  20  31
ENDBRANCH  19  20
ENDBRANCH   1  19
TORSDOF 6
