REMARK  Name = ZINC44645908
REMARK  8 active torsions:
REMARK  status: ('A' for Active; 'I' for Inactive)
REMARK    1  A    between atoms: C_1  and  C_2
REMARK    2  A    between atoms: C_5  and  N_9
REMARK    3  A    between atoms: C_6  and  C_8
REMARK    4  A    between atoms: C_10  and  S_15
REMARK    5  A    between atoms: S_15  and  C_16
REMARK    6  A    between atoms: C_16  and  C_18
REMARK    7  A    between atoms: C_16  and  C_19
REMARK    8  A    between atoms: C_19  and  C_21
REMARK                            x       y       z     vdW  Elec       q    Type
REMARK                         _______ _______ _______ _____ _____    ______ ____
ROOT
ATOM      1  S   UNL     1      -2.701  -4.650  -0.117  0.00  0.00    -0.105 S 
ENDROOT
BRANCH   1   3
ATOM      2  N   UNL     1      -1.156  -5.361  -2.231  0.00  0.00    -0.173 N 
ATOM      3  C   UNL     1      -1.078  -5.120  -0.777  0.00  0.00    +0.260 C 
ATOM      4  N   UNL     1      -0.126  -3.997  -0.680  0.00  0.00    -0.218 N 
ATOM      5  N   UNL     1       0.247  -3.697  -1.996  0.00  0.00    -0.063 NA
ATOM      6  N   UNL     1      -0.297  -4.426  -2.820  0.00  0.00    -0.056 NA
ATOM      7  H   UNL     1       0.178  -3.557   0.129  0.00  0.00    +0.173 HD
BRANCH   2  12
ATOM      8  C   UNL     1      -4.275  -9.283  -4.883  0.00  0.00    +0.044 C 
ATOM      9  C   UNL     1      -3.446  -8.241  -4.178  0.00  0.00    -0.050 A 
ATOM     10  C   UNL     1      -4.010  -7.024  -3.838  0.00  0.00    +0.005 A 
ATOM     11  C   UNL     1      -3.254  -6.067  -3.192  0.00  0.00    +0.025 A 
ATOM     12  C   UNL     1      -1.924  -6.326  -2.883  0.00  0.00    +0.059 A 
ATOM     13  C   UNL     1      -1.360  -7.550  -3.226  0.00  0.00    -0.027 A 
ATOM     14  C   UNL     1      -2.124  -8.505  -3.867  0.00  0.00    +0.008 A 
ATOM     15  C   UNL     1       0.081  -7.836  -2.893  0.00  0.00    +0.046 C 
ENDBRANCH   2  12
ENDBRANCH   1   3
BRANCH   1  16
ATOM     16  C   UNL     1      -2.538  -4.909   1.671  0.00  0.00    +0.117 C 
ATOM     17  C   UNL     1      -1.529  -3.911   2.241  0.00  0.00    +0.027 C 
BRANCH  16  18
ATOM     18  C   UNL     1      -3.877  -4.703   2.333  0.00  0.00    +0.174 C 
ATOM     19  O   UNL     1      -4.713  -3.998   1.804  0.00  0.00    -0.291 OA
BRANCH  18  20
ATOM     20  C   UNL     1      -4.158  -5.329   3.566  0.00  0.00    +0.024 C 
ATOM     21  C   UNL     1      -5.330  -5.248   4.296  0.00  0.00    +0.006 A 
ATOM     22  C   UNL     1      -6.552  -4.568   4.083  0.00  0.00    +0.010 A 
ATOM     23  C   UNL     1      -7.554  -4.668   4.985  0.00  0.00    +0.001 A 
ATOM     24  C   UNL     1      -7.440  -5.434   6.156  0.00  0.00    +0.002 A 
ATOM     25  C   UNL     1      -6.316  -6.121   6.454  0.00  0.00    +0.026 A 
ATOM     26  C   UNL     1      -5.176  -6.067   5.524  0.00  0.00    +0.043 A 
ATOM     27  N   UNL     1      -3.997  -6.619   5.560  0.00  0.00    -0.380 N 
ATOM     28  C   UNL     1      -3.244  -6.234   4.362  0.00  0.00    +0.152 C 
ATOM     29  H   UNL     1      -3.670  -7.197   6.267  0.00  0.00    +0.160 HD
ENDBRANCH  18  20
ENDBRANCH  16  18
ENDBRANCH   1  16
TORSDOF 5
