REMARK  Name = ZINC39657924
REMARK  4 active torsions:
REMARK  status: ('A' for Active; 'I' for Inactive)
REMARK    1  A    between atoms: C_2  and  C_9
REMARK    2  A    between atoms: C_13  and  C_22
REMARK    3  A    between atoms: N_24  and  C_25
REMARK    4  A    between atoms: C_28  and  C_31
REMARK                            x       y       z     vdW  Elec       q    Type
REMARK                         _______ _______ _______ _____ _____    ______ ____
ROOT
ATOM      1  C   UNL     1       1.168   3.573   0.007  0.00  0.00    +0.247 C 
ATOM      2  O   UNL     1       0.116   4.174  -0.089  0.00  0.00    -0.270 OA
ATOM      3  N   UNL     1       2.327   4.254   0.102  0.00  0.00    -0.296 N 
ATOM      4  C   UNL     1       3.705   3.708   0.099  0.00  0.00    +0.121 C 
ATOM      5  C   UNL     1       4.522   4.717  -0.740  0.00  0.00    +0.100 C 
ATOM      6  C   UNL     1       3.735   6.035  -0.645  0.00  0.00    -0.004 C 
ATOM      7  C   UNL     1       2.512   5.720   0.228  0.00  0.00    +0.115 C 
ATOM      8  C   UNL     1       3.284   6.481  -2.033  0.00  0.00    -0.010 C 
ATOM      9  C   UNL     1       2.553   7.822  -1.920  0.00  0.00    -0.082 C 
ATOM     10  N   UNL     1       3.451   8.822  -1.329  0.00  0.00    +0.379 N 
ATOM     11  C   UNL     1       3.806   8.430   0.040  0.00  0.00    -0.082 C 
ATOM     12  C   UNL     1       4.589   7.115   0.010  0.00  0.00    -0.010 C 
ATOM     13  H   UNL     1       4.290   8.890  -1.886  0.00  0.00    -0.086 HD
ATOM     14  H   UNL     1       2.988   9.719  -1.312  0.00  0.00    -0.086 HD
ENDROOT
BRANCH   1  16
ATOM     15  C   UNL     1       0.131   1.382  -0.568  0.00  0.00    +0.033 A 
ATOM     16  C   UNL     1       1.177   2.094   0.021  0.00  0.00    +0.040 A 
ATOM     17  C   UNL     1       2.231   1.405   0.622  0.00  0.00    +0.033 A 
ATOM     18  C   UNL     1       2.234   0.025   0.631  0.00  0.00    +0.043 A 
ATOM     19  C   UNL     1       1.193  -0.676   0.045  0.00  0.00    +0.040 A 
ATOM     20  C   UNL     1       0.145   0.002  -0.553  0.00  0.00    +0.043 A 
ATOM     21 CL   UNL     1      -1.155  -0.886  -1.285  0.00  0.00    -0.083 Cl
ATOM     22 CL   UNL     1       3.545  -0.834   1.377  0.00  0.00    -0.083 Cl
ENDBRANCH   1  16
BRANCH   5  23
ATOM     23  C   UNL     1       4.611   4.257  -2.172  0.00  0.00    +0.218 C 
ATOM     24  O   UNL     1       3.676   3.677  -2.682  0.00  0.00    -0.275 OA
ATOM     25  N   UNL     1       5.729   4.492  -2.887  0.00  0.00    -0.312 N 
ATOM     26  H   UNL     1       6.477   4.956  -2.479  0.00  0.00    +0.149 HD
BRANCH  25  27
ATOM     27  C   UNL     1       5.816   4.045  -4.279  0.00  0.00    +0.073 C 
ATOM     28  C   UNL     1       5.187   5.099  -5.193  0.00  0.00    +0.023 C 
ATOM     29  C   UNL     1       5.278   4.633  -6.647  0.00  0.00    +0.016 C 
ATOM     30  C   UNL     1       6.746   4.436  -7.030  0.00  0.00    +0.102 C 
ATOM     31  C   UNL     1       7.374   3.382  -6.116  0.00  0.00    +0.016 C 
ATOM     32  C   UNL     1       7.284   3.849  -4.662  0.00  0.00    +0.023 C 
BRANCH  30  33
ATOM     33  C   UNL     1       6.835   3.977  -8.462  0.00  0.00    +0.359 C 
ATOM     34  O   UNL     1       7.710   4.415  -9.190  0.00  0.00    -0.246 OA
ATOM     35  O   UNL     1       6.031   3.168  -8.894  0.00  0.00    -0.246 OA
ENDBRANCH  30  33
ENDBRANCH  25  27
ENDBRANCH   5  23
TORSDOF 4
