REMARK  Name = ZINC66599559
REMARK  11 active torsions:
REMARK  status: ('A' for Active; 'I' for Inactive)
REMARK    1  A    between atoms: C_1  and  C_2
REMARK    2  A    between atoms: C_2  and  C_3
REMARK    3  A    between atoms: C_3  and  C_4
REMARK    4  A    between atoms: C_4  and  N_5
REMARK    5  A    between atoms: C_10  and  C_12
REMARK    6  A    between atoms: C_12  and  N_13
REMARK    7  A    between atoms: N_16  and  C_17
REMARK    8  A    between atoms: C_17  and  C_18
REMARK    9  A    between atoms: C_18  and  N_19
REMARK   10  A    between atoms: C_20  and  C_22
REMARK   11  A    between atoms: C_25  and  O_28
REMARK                            x       y       z     vdW  Elec       q    Type
REMARK                         _______ _______ _______ _____ _____    ______ ____
ROOT
ATOM      1  N   UNL     1      -0.925  -3.784   1.520  0.00  0.00    -0.301 N 
ATOM      2  C   UNL     1      -0.112  -4.077   2.555  0.00  0.00    +0.300 C 
ATOM      3  O   UNL     1      -0.441  -4.920   3.366  0.00  0.00    -0.253 OA
ATOM      4  N   UNL     1       1.065  -3.435   2.690  0.00  0.00    -0.298 N 
ATOM      5  H   UNL     1      -0.662  -3.111   0.873  0.00  0.00    +0.150 HD
ATOM      6  H   UNL     1       1.328  -2.762   2.042  0.00  0.00    +0.150 HD
ENDROOT
BRANCH   1   7
ATOM      7  C   UNL     1      -2.204  -4.482   1.374  0.00  0.00    +0.090 C 
BRANCH   7  13
ATOM      8  N   UNL     1      -1.940  -4.282  -1.051  0.00  0.00    +0.383 N 
ATOM      9  C   UNL     1      -2.596  -3.950  -2.322  0.00  0.00    -0.078 C 
ATOM     10  C   UNL     1      -2.953  -2.462  -2.342  0.00  0.00    -0.019 C 
ATOM     11  C   UNL     1      -3.902  -2.155  -1.180  0.00  0.00    -0.003 C 
ATOM     12  C   UNL     1      -3.237  -2.574   0.134  0.00  0.00    -0.014 C 
ATOM     13  C   UNL     1      -2.869  -4.058   0.063  0.00  0.00    -0.051 C 
ATOM     14  H   UNL     1      -1.126  -3.697  -0.932  0.00  0.00    -0.081 HD
BRANCH   8  15
ATOM     15  C   UNL     1      -1.529  -5.692  -1.068  0.00  0.00    -0.078 C 
BRANCH  15  16
ATOM     16  C   UNL     1      -0.458  -5.899  -2.141  0.00  0.00    -0.019 C 
BRANCH  16  18
ATOM     17  C   UNL     1       1.041  -7.574  -3.231  0.00  0.00    +0.004 C 
ATOM     18  C   UNL     1      -0.030  -7.368  -2.158  0.00  0.00    -0.005 C 
ENDBRANCH  16  18
ENDBRANCH  15  16
ENDBRANCH   8  15
ENDBRANCH   7  13
ENDBRANCH   1   7
BRANCH   4  19
ATOM     19  C   UNL     1       1.949  -3.753   3.814  0.00  0.00    +0.124 C 
BRANCH  19  20
ATOM     20  C   UNL     1       3.209  -2.890   3.733  0.00  0.00    +0.123 C 
BRANCH  20  21
ATOM     21  N   UNL     1       4.093  -3.208   4.857  0.00  0.00    -0.310 N 
ATOM     22  C   UNL     1       5.270  -2.566   4.992  0.00  0.00    +0.244 C 
ATOM     23  O   UNL     1       5.599  -1.723   4.181  0.00  0.00    -0.270 OA
ATOM     24  H   UNL     1       3.830  -3.881   5.505  0.00  0.00    +0.149 HD
BRANCH  22  25
ATOM     25  C   UNL     1       6.160  -2.887   6.125  0.00  0.00    +0.037 A 
ATOM     26  C   UNL     1       5.786  -3.860   7.056  0.00  0.00    +0.016 A 
ATOM     27  C   UNL     1       6.620  -4.157   8.111  0.00  0.00    +0.046 A 
ATOM     28  C   UNL     1       7.831  -3.490   8.251  0.00  0.00    +0.117 A 
ATOM     29  C   UNL     1       8.206  -2.521   7.328  0.00  0.00    +0.046 A 
ATOM     30  C   UNL     1       7.381  -2.223   6.266  0.00  0.00    +0.016 A 
BRANCH  28  31
ATOM     31  O   UNL     1       8.649  -3.784   9.293  0.00  0.00    -0.507 OA
ATOM     32  H   UNL     1       9.284  -4.490   9.107  0.00  0.00    +0.292 HD
ENDBRANCH  28  31
ENDBRANCH  22  25
ENDBRANCH  20  21
ENDBRANCH  19  20
ENDBRANCH   4  19
TORSDOF 10
