REMARK  Name = ZINC34993215
REMARK  10 active torsions:
REMARK  status: ('A' for Active; 'I' for Inactive)
REMARK    1  A    between atoms: C_1  and  C_2
REMARK    2  A    between atoms: C_2  and  C_3
REMARK    3  A    between atoms: C_3  and  N_4
REMARK    4  A    between atoms: C_5  and  C_7
REMARK    5  A    between atoms: C_7  and  C_9
REMARK    6  A    between atoms: C_7  and  N_10
REMARK    7  A    between atoms: N_10  and  C_11
REMARK    8  A    between atoms: C_11  and  C_12
REMARK    9  A    between atoms: C_17  and  O_18
REMARK   10  A    between atoms: O_18  and  C_19
REMARK                            x       y       z     vdW  Elec       q    Type
REMARK                         _______ _______ _______ _____ _____    ______ ____
ROOT
ATOM      1  N   UNL     1       2.029  -4.603  -3.502  0.00  0.00    +0.389 N 
ATOM      2  H   UNL     1       1.591  -4.202  -4.317  0.00  0.00    -0.084 HD
ATOM      3  H   UNL     1       2.998  -4.323  -3.469  0.00  0.00    -0.084 HD
ENDROOT
BRANCH   1   4
ATOM      4  C   UNL     1       1.341  -4.130  -2.293  0.00  0.00    +0.013 C 
ATOM      5  C   UNL     1       2.082  -4.636  -1.054  0.00  0.00    -0.004 C 
BRANCH   4   7
ATOM      6  N   UNL     1       0.738  -1.962  -1.265  0.00  0.00    -0.317 N 
ATOM      7  C   UNL     1       1.321  -2.623  -2.285  0.00  0.00    +0.199 C 
ATOM      8  O   UNL     1       1.829  -2.004  -3.196  0.00  0.00    -0.278 OA
ATOM      9  H   UNL     1       0.332  -2.457  -0.536  0.00  0.00    +0.149 HD
BRANCH   6  10
ATOM     10  C   UNL     1       0.718  -0.497  -1.257  0.00  0.00    +0.104 C 
BRANCH  10  12
ATOM     11  C   UNL     1      -0.019   1.526   0.010  0.00  0.00    +0.005 C 
ATOM     12  C   UNL     1       0.002  -0.004   0.002  0.00  0.00    +0.015 C 
ENDBRANCH  10  12
ENDBRANCH   6  10
ENDBRANCH   4   7
ENDBRANCH   1   4
BRANCH   1  13
ATOM     13  C   UNL     1       1.945  -6.068  -3.571  0.00  0.00    -0.042 C 
BRANCH  13  14
ATOM     14  C   UNL     1       2.650  -6.554  -4.811  0.00  0.00    -0.021 A 
ATOM     15  C   UNL     1       1.921  -6.881  -5.938  0.00  0.00    +0.020 A 
ATOM     16  C   UNL     1       2.567  -7.328  -7.076  0.00  0.00    +0.019 A 
ATOM     17  C   UNL     1       3.945  -7.448  -7.089  0.00  0.00    +0.034 A 
ATOM     18  C   UNL     1       4.679  -7.122  -5.964  0.00  0.00    +0.061 A 
ATOM     19  C   UNL     1       4.032  -6.668  -4.823  0.00  0.00    +0.135 A 
ATOM     20 BR   UNL     1       6.563  -7.287  -5.982  0.00  0.00    -0.046 Br
ATOM     21 BR   UNL     1       1.565  -7.775  -8.617  0.00  0.00    -0.050 Br
BRANCH  19  22
ATOM     22  O   UNL     1       4.752  -6.341  -3.717  0.00  0.00    -0.494 OA
ATOM     23  C   UNL     1       5.000  -7.384  -2.773  0.00  0.00    +0.277 C 
ENDBRANCH  19  22
ENDBRANCH  13  14
ENDBRANCH   1  13
TORSDOF 7
