REMARK  Name = ZINC06997471
REMARK  6 active torsions:
REMARK  status: ('A' for Active; 'I' for Inactive)
REMARK    1  A    between atoms: C_1  and  C_2
REMARK    2  A    between atoms: N_11  and  C_17
REMARK    3  A    between atoms: C_17  and  C_18
REMARK    4  A    between atoms: N_20  and  C_21
REMARK    5  A    between atoms: C_26  and  C_31
REMARK    6  A    between atoms: C_28  and  C_30
REMARK                            x       y       z     vdW  Elec       q    Type
REMARK                         _______ _______ _______ _____ _____    ______ ____
ROOT
ATOM      1  C   UNL     1      -4.958   3.481  -7.498  0.00  0.00    +0.044 C 
ATOM      2  C   UNL     1      -3.873   3.777  -6.494  0.00  0.00    -0.050 A 
ATOM      3  C   UNL     1      -3.148   4.956  -6.590  0.00  0.00    +0.005 A 
ATOM      4  C   UNL     1      -2.153   5.243  -5.683  0.00  0.00    +0.026 A 
ATOM      5  C   UNL     1      -1.869   4.345  -4.657  0.00  0.00    +0.048 A 
ATOM      6  C   UNL     1      -2.608   3.153  -4.565  0.00  0.00    +0.009 A 
ATOM      7  C   UNL     1      -3.611   2.882  -5.495  0.00  0.00    +0.014 A 
ATOM      8  C   UNL     1      -2.081   2.429  -3.399  0.00  0.00    +0.032 A 
ATOM      9  C   UNL     1      -2.396   1.196  -2.792  0.00  0.00    +0.143 A 
ATOM     10  N   UNL     1      -1.743   0.797  -1.736  0.00  0.00    -0.175 NA
ATOM     11  N   UNL     1      -0.721   1.571  -1.179  0.00  0.00    -0.219 N 
ATOM     12  C   UNL     1      -0.382   2.761  -1.715  0.00  0.00    +0.292 A 
ATOM     13  O   UNL     1       0.508   3.430  -1.217  0.00  0.00    -0.264 OA
ATOM     14  C   UNL     1      -1.066   3.222  -2.865  0.00  0.00    +0.116 A 
ATOM     15  N   UNL     1      -0.951   4.364  -3.628  0.00  0.00    -0.350 N 
ATOM     16  H   UNL     1      -0.316   5.078  -3.464  0.00  0.00    +0.166 HD
ENDROOT
BRANCH  11  17
ATOM     17  C   UNL     1      -0.013   1.086   0.008  0.00  0.00    +0.243 C 
BRANCH  17  18
ATOM     18  C   UNL     1      -0.718   1.572   1.248  0.00  0.00    +0.235 C 
ATOM     19  O   UNL     1      -1.714   2.256   1.150  0.00  0.00    -0.274 OA
ATOM     20  N   UNL     1      -0.242   1.246   2.466  0.00  0.00    -0.311 N 
ATOM     21  H   UNL     1       0.555   0.699   2.544  0.00  0.00    +0.149 HD
BRANCH  20  22
ATOM     22  C   UNL     1      -0.927   1.718   3.671  0.00  0.00    +0.076 C 
ATOM     23  C   UNL     1      -0.438   3.126   4.018  0.00  0.00    +0.022 C 
ATOM     24  C   UNL     1      -1.154   3.619   5.277  0.00  0.00    +0.002 C 
ATOM     25  C   UNL     1      -0.851   2.673   6.440  0.00  0.00    +0.003 C 
ATOM     26  C   UNL     1      -1.340   1.265   6.093  0.00  0.00    -0.009 C 
ATOM     27  C   UNL     1      -0.624   0.772   4.834  0.00  0.00    +0.009 C 
ATOM     28  C   UNL     1       0.885   0.740   5.086  0.00  0.00    +0.009 C 
ATOM     29  C   UNL     1      -1.037   0.319   7.256  0.00  0.00    +0.008 C 
ENDBRANCH  20  22
ENDBRANCH  17  18
ENDBRANCH  11  17
TORSDOF 3
