REMARK  Name = ZINC01760479
REMARK  18 active torsions:
REMARK  status: ('A' for Active; 'I' for Inactive)
REMARK    1  A    between atoms: C_1  and  C_2
REMARK    2  A    between atoms: C_3  and  S_18
REMARK    3  A    between atoms: C_5  and  C_14
REMARK    4  A    between atoms: C_6  and  O_13
REMARK    5  A    between atoms: C_7  and  C_8
REMARK    6  A    between atoms: C_8  and  N_85
REMARK    7  A    between atoms: C_14  and  C_15
REMARK    8  A    between atoms: C_14  and  C_16
REMARK    9  A    between atoms: C_14  and  C_17
REMARK   10  A    between atoms: S_18  and  C_20
REMARK   11  A    between atoms: C_22  and  C_33
REMARK   12  A    between atoms: C_23  and  O_32
REMARK   13  A    between atoms: C_24  and  C_27
REMARK   14  A    between atoms: C_25  and  C_26
REMARK   15  A    between atoms: C_27  and  N_87
REMARK   16  A    between atoms: C_33  and  C_34
REMARK   17  A    between atoms: C_33  and  C_35
REMARK   18  A    between atoms: C_33  and  C_36
REMARK                            x       y       z     vdW  Elec       q    Type
REMARK                         _______ _______ _______ _____ _____    ______ ____
ROOT
ATOM      1  S   UNL     1       4.075   4.603  -1.502  0.00  0.00    +0.086 S 
ATOM      2  O   UNL     1       5.017   4.219  -0.510  0.00  0.00    -0.247 OA
ENDROOT
BRANCH   1   5
ATOM      3  C   UNL     1       3.402   4.173   1.413  0.00  0.00    +0.045 C 
ATOM      4  C   UNL     1       2.335   3.770   0.428  0.00  0.00    -0.030 A 
ATOM      5  C   UNL     1       2.552   3.929  -0.928  0.00  0.00    +0.047 A 
ATOM      6  C   UNL     1       1.575   3.560  -1.834  0.00  0.00    +0.025 A 
ATOM      7  C   UNL     1       0.380   3.031  -1.386  0.00  0.00    +0.001 A 
ATOM      8  C   UNL     1       0.160   2.870  -0.026  0.00  0.00    +0.122 A 
ATOM      9  C   UNL     1       1.140   3.246   0.882  0.00  0.00    -0.018 A 
BRANCH   7  10
ATOM     10  C   UNL     1      -0.685   2.630  -2.374  0.00  0.00    -0.009 C 
ATOM     11  C   UNL     1      -0.193   2.909  -3.796  0.00  0.00    +0.015 C 
ATOM     12  C   UNL     1      -0.985   1.137  -2.223  0.00  0.00    +0.015 C 
ATOM     13  C   UNL     1      -1.958   3.436  -2.107  0.00  0.00    +0.015 C 
ENDBRANCH   7  10
BRANCH   8  14
ATOM     14  O   UNL     1      -1.014   2.350   0.418  0.00  0.00    -0.506 OA
ATOM     15  H   UNL     1      -1.010   1.387   0.505  0.00  0.00    +0.292 HD
ENDBRANCH   8  14
BRANCH   9  16
ATOM     16  C   UNL     1       0.903   3.079   2.361  0.00  0.00    -0.039 C 
BRANCH  16  21
ATOM     17  C   UNL     1      -0.724   4.887   2.257  0.00  0.00    -0.078 C 
ATOM     18  C   UNL     1      -1.301   5.894   3.284  0.00  0.00    -0.020 C 
ATOM     19  C   UNL     1      -1.031   5.199   4.639  0.00  0.00    -0.020 C 
ATOM     20  C   UNL     1       0.115   4.209   4.362  0.00  0.00    -0.078 C 
ATOM     21  N   UNL     1       0.470   4.380   2.952  0.00  0.00    +0.382 N 
ATOM     22  H   UNL     1       1.235   5.059   2.867  0.00  0.00    -0.081 HD
ENDBRANCH  16  21
ENDBRANCH   9  16
ENDBRANCH   1   5
BRANCH   1  23
ATOM     23  C   UNL     1       3.889   6.339  -1.265  0.00  0.00    +0.047 A 
ATOM     24  C   UNL     1       4.365   6.933  -0.111  0.00  0.00    +0.025 A 
ATOM     25  C   UNL     1       4.225   8.294   0.076  0.00  0.00    +0.001 A 
ATOM     26  C   UNL     1       3.596   9.064  -0.891  0.00  0.00    +0.122 A 
ATOM     27  C   UNL     1       3.114   8.466  -2.046  0.00  0.00    -0.018 A 
ATOM     28  C   UNL     1       3.262   7.104  -2.231  0.00  0.00    -0.030 A 
ATOM     29  C   UNL     1       2.738   6.453  -3.485  0.00  0.00    +0.045 C 
BRANCH  25  30
ATOM     30  C   UNL     1       4.750   8.941   1.332  0.00  0.00    -0.009 C 
ATOM     31  C   UNL     1       5.393   7.877   2.223  0.00  0.00    +0.015 C 
ATOM     32  C   UNL     1       5.794   9.997   0.964  0.00  0.00    +0.015 C 
ATOM     33  C   UNL     1       3.595   9.606   2.083  0.00  0.00    +0.015 C 
ENDBRANCH  25  30
BRANCH  26  34
ATOM     34  O   UNL     1       3.451  10.403  -0.708  0.00  0.00    -0.506 OA
ATOM     35  H   UNL     1       2.593  10.660  -0.343  0.00  0.00    +0.292 HD
ENDBRANCH  26  34
BRANCH  27  36
ATOM     36  C   UNL     1       2.430   9.299  -3.099  0.00  0.00    -0.039 C 
BRANCH  36  41
ATOM     37  C   UNL     1       0.505   9.554  -1.631  0.00  0.00    -0.078 C 
ATOM     38  C   UNL     1      -1.004   9.830  -1.850  0.00  0.00    -0.020 C 
ATOM     39  C   UNL     1      -1.037  10.473  -3.255  0.00  0.00    -0.020 C 
ATOM     40  C   UNL     1       0.266  10.018  -3.937  0.00  0.00    -0.078 C 
ATOM     41  N   UNL     1       0.949   9.152  -2.975  0.00  0.00    +0.382 N 
ATOM     42  H   UNL     1       0.692   8.173  -3.147  0.00  0.00    -0.081 HD
ENDBRANCH  36  41
ENDBRANCH  27  36
ENDBRANCH   1  23
TORSDOF 10
