REMARK  Name = ZINC01310388
REMARK  10 active torsions:
REMARK  status: ('A' for Active; 'I' for Inactive)
REMARK    1  A    between atoms: C_1  and  O_2
REMARK    2  A    between atoms: O_2  and  C_3
REMARK    3  A    between atoms: C_5  and  C_13
REMARK    4  A    between atoms: C_7  and  O_11
REMARK    5  A    between atoms: C_8  and  O_9
REMARK    6  A    between atoms: O_9  and  C_10
REMARK    7  A    between atoms: O_11  and  C_12
REMARK    8  A    between atoms: N_15  and  C_16
REMARK    9  A    between atoms: C_16  and  C_17
REMARK   10  A    between atoms: N_19  and  N_20
REMARK                            x       y       z     vdW  Elec       q    Type
REMARK                         _______ _______ _______ _____ _____    ______ ____
ROOT
ATOM      1  C   UNL     1       3.807  -3.068  -0.051  0.00  0.00    +0.249 C 
ATOM      2  O   UNL     1       3.058  -4.022  -0.049  0.00  0.00    -0.272 OA
ATOM      3  N   UNL     1       3.304  -1.817  -0.039  0.00  0.00    -0.205 N 
ATOM      4  H   UNL     1       3.903  -1.054  -0.041  0.00  0.00    +0.177 HD
ENDROOT
BRANCH   3   5
ATOM      5  N   UNL     1       1.917  -1.619  -0.025  0.00  0.00    -0.174 NA
ATOM      6  C   UNL     1       1.429  -0.403  -0.014  0.00  0.00    +0.153 C 
ATOM      7  C   UNL     1       0.002  -0.004   0.002  0.00  0.00    +0.030 A 
ATOM      8  C   UNL     1      -1.188  -0.724   0.009  0.00  0.00    +0.027 A 
ATOM      9  C   UNL     1      -2.395  -0.053   0.025  0.00  0.00    +0.020 A 
ATOM     10  C   UNL     1      -2.418   1.333   0.032  0.00  0.00    +0.032 A 
ATOM     11  C   UNL     1      -1.242   2.056   0.030  0.00  0.00    +0.041 A 
ATOM     12  C   UNL     1      -0.017   1.396   0.010  0.00  0.00    +0.057 A 
ATOM     13  N   UNL     1       1.290   1.874  -0.000  0.00  0.00    -0.279 N 
ATOM     14  C   UNL     1       2.181   0.868  -0.014  0.00  0.00    +0.269 C 
ATOM     15  O   UNL     1       3.392   0.984  -0.025  0.00  0.00    -0.268 OA
ATOM     16 BR   UNL     1      -1.296   3.946   0.041  0.00  0.00    -0.048 Br
ATOM     17 BR   UNL     1      -4.016  -1.025   0.035  0.00  0.00    -0.050 Br
ATOM     18  H   UNL     1       1.527   2.815   0.003  0.00  0.00    +0.155 HD
ENDBRANCH   3   5
BRANCH   1  19
ATOM     19  C   UNL     1       5.298  -3.280  -0.066  0.00  0.00    +0.202 C 
BRANCH  19  22
ATOM     20  C   UNL     1       6.864  -5.147  -0.091  0.00  0.00    +0.245 C 
ATOM     21  O   UNL     1       7.776  -4.344  -0.096  0.00  0.00    -0.270 OA
ATOM     22  N   UNL     1       5.587  -4.717  -0.077  0.00  0.00    -0.303 N 
ATOM     23  H   UNL     1       4.859  -5.358  -0.073  0.00  0.00    +0.150 HD
BRANCH  20  26
ATOM     24  C   UNL     1       8.747  -8.398  -0.127  0.00  0.00    +0.166 A 
ATOM     25  C   UNL     1       8.478  -7.043  -0.117  0.00  0.00    +0.062 A 
ATOM     26  C   UNL     1       7.154  -6.595  -0.102  0.00  0.00    +0.044 A 
ATOM     27  C   UNL     1       6.107  -7.519  -0.091  0.00  0.00    +0.062 A 
ATOM     28  C   UNL     1       6.381  -8.873  -0.106  0.00  0.00    +0.166 A 
ATOM     29  C   UNL     1       7.701  -9.317  -0.121  0.00  0.00    +0.204 A 
BRANCH  24  31
ATOM     30  C   UNL     1      11.058  -7.837  -0.146  0.00  0.00    +0.277 C 
ATOM     31  O   UNL     1      10.035  -8.835  -0.141  0.00  0.00    -0.491 OA
ENDBRANCH  24  31
BRANCH  29  32
ATOM     32  O   UNL     1       7.969 -10.650  -0.130  0.00  0.00    -0.488 OA
ATOM     33  C   UNL     1       8.108 -11.292   1.139  0.00  0.00    +0.277 C 
ENDBRANCH  29  32
BRANCH  28  34
ATOM     34  O   UNL     1       5.362  -9.774  -0.101  0.00  0.00    -0.491 OA
ATOM     35  C   UNL     1       4.033  -9.249  -0.085  0.00  0.00    +0.277 C 
ENDBRANCH  28  34
ENDBRANCH  20  26
ENDBRANCH  19  22
ENDBRANCH   1  19
TORSDOF 7
