REMARK  Name = ZINC15224295
REMARK  5 active torsions:
REMARK  status: ('A' for Active; 'I' for Inactive)
REMARK    1  A    between atoms: C_10  and  C_11
REMARK    2  A    between atoms: C_11  and  O_12
REMARK    3  A    between atoms: O_12  and  C_13
REMARK    4  A    between atoms: C_16  and  C_19
REMARK    5  A    between atoms: N_20  and  N_21
REMARK                            x       y       z     vdW  Elec       q    Type
REMARK                         _______ _______ _______ _____ _____    ______ ____
ROOT
ATOM      1  C   UNL     1       7.309  -0.214  -0.088  0.00  0.00    +0.121 A 
ATOM      2  C   UNL     1       7.464   1.167  -0.089  0.00  0.00    +0.046 A 
ATOM      3  C   UNL     1       8.726   1.720  -0.098  0.00  0.00    +0.013 A 
ATOM      4  C   UNL     1       9.850   0.890  -0.105  0.00  0.00    -0.005 A 
ATOM      5  C   UNL     1       9.689  -0.498  -0.104  0.00  0.00    +0.013 A 
ATOM      6  C   UNL     1       8.424  -1.042  -0.090  0.00  0.00    +0.046 A 
ENDROOT
BRANCH   4   7
ATOM      7  C   UNL     1      11.202   1.478  -0.115  0.00  0.00    +0.139 C 
ATOM      8  N   UNL     1      12.245   0.705  -0.122  0.00  0.00    -0.178 NA
BRANCH   8   9
ATOM      9  N   UNL     1      13.527   1.260  -0.239  0.00  0.00    -0.127 N 
ATOM     10  C   UNL     1      14.630   0.513  -0.368  0.00  0.00    +0.246 C 
ATOM     11  O   UNL     1      14.660  -0.699  -0.399  0.00  0.00    -0.273 OA
ATOM     12  C   UNL     1      15.836   1.422  -0.471  0.00  0.00    +0.097 C 
ATOM     13  C   UNL     1      16.523   1.197  -1.825  0.00  0.00    +0.027 C 
ATOM     14  C   UNL     1      15.494   1.518  -2.903  0.00  0.00    -0.026 C 
ATOM     15  C   UNL     1      14.962   2.732  -2.838  0.00  0.00    -0.026 C 
ATOM     16  C   UNL     1      15.468   3.606  -1.696  0.00  0.00    +0.027 C 
ATOM     17  C   UNL     1      15.234   2.834  -0.376  0.00  0.00    +0.097 C 
ATOM     18  C   UNL     1      13.748   2.580  -0.237  0.00  0.00    +0.246 C 
ATOM     19  O   UNL     1      12.895   3.436  -0.137  0.00  0.00    -0.273 OA
ATOM     20  C   UNL     1      17.006   3.700  -1.878  0.00  0.00    +0.001 C 
ATOM     21  C   UNL     1      17.640   2.268  -1.947  0.00  0.00    +0.001 C 
ATOM     22  C   UNL     1      17.856   3.186  -0.714  0.00  0.00    +0.009 C 
ENDBRANCH   8   9
ENDBRANCH   4   7
BRANCH   1  23
ATOM     23  O   UNL     1       6.063  -0.755  -0.079  0.00  0.00    -0.487 OA
BRANCH  23  24
ATOM     24  C   UNL     1       4.960   0.155  -0.078  0.00  0.00    +0.265 C 
BRANCH  24  34
ATOM     25  C   UNL     1      -0.018   1.347  -0.058  0.00  0.00    +0.001 A 
ATOM     26  C   UNL     1       1.167   2.082  -0.066  0.00  0.00    +0.001 A 
ATOM     27  C   UNL     1       2.377   1.460  -0.070  0.00  0.00    +0.009 A 
ATOM     28  C   UNL     1       2.438   0.056  -0.065  0.00  0.00    -0.011 A 
ATOM     29  C   UNL     1       1.234  -0.692  -0.057  0.00  0.00    -0.018 A 
ATOM     30  C   UNL     1       0.002  -0.014  -0.054  0.00  0.00    +0.008 A 
ATOM     31  C   UNL     1       1.294  -2.095  -0.051  0.00  0.00    +0.008 A 
ATOM     32  C   UNL     1       2.505  -2.717  -0.055  0.00  0.00    +0.001 A 
ATOM     33  C   UNL     1       3.689  -1.983  -0.063  0.00  0.00    +0.007 A 
ATOM     34  C   UNL     1       3.669  -0.622  -0.068  0.00  0.00    -0.003 A 
ENDBRANCH  24  34
ENDBRANCH  23  24
ENDBRANCH   1  23
TORSDOF 5
