REMARK  Name = ZINC13944145
REMARK  3 active torsions:
REMARK  status: ('A' for Active; 'I' for Inactive)
REMARK    1  A    between atoms: C_7  and  C_15
REMARK    2  A    between atoms: C_20  and  C_23
REMARK    3  A    between atoms: C_23  and  C_24
REMARK                            x       y       z     vdW  Elec       q    Type
REMARK                         _______ _______ _______ _____ _____    ______ ____
ROOT
ATOM      1  C   UNL     1      -5.033   3.329   1.273  0.00  0.00    +0.001 A 
ATOM      2  C   UNL     1      -5.752   3.604   0.124  0.00  0.00    +0.004 A 
ATOM      3  C   UNL     1      -5.415   2.989  -1.065  0.00  0.00    +0.046 A 
ATOM      4  C   UNL     1      -4.353   2.093  -1.111  0.00  0.00    +0.133 A 
ATOM      5  C   UNL     1      -3.635   1.819   0.042  0.00  0.00    +0.011 A 
ATOM      6  C   UNL     1      -3.978   2.438   1.231  0.00  0.00    +0.008 A 
ATOM      7  C   UNL     1      -2.482   0.853   0.018  0.00  0.00    +0.142 C 
ATOM      8  C   UNL     1      -2.545  -0.014  -1.210  0.00  0.00    +0.011 A 
ATOM      9  C   UNL     1      -1.821  -1.193  -1.246  0.00  0.00    +0.008 A 
ATOM     10  C   UNL     1      -1.865  -2.002  -2.365  0.00  0.00    +0.001 A 
ATOM     11  C   UNL     1      -2.635  -1.636  -3.454  0.00  0.00    +0.004 A 
ATOM     12  C   UNL     1      -3.359  -0.464  -3.422  0.00  0.00    +0.046 A 
ATOM     13  C   UNL     1      -3.318   0.353  -2.298  0.00  0.00    +0.133 A 
ATOM     14  O   UNL     1      -4.037   1.501  -2.287  0.00  0.00    -0.455 OA
ENDROOT
BRANCH   7  15
ATOM     15  C   UNL     1      -1.187   1.624   0.017  0.00  0.00    +0.231 C 
ATOM     16  O   UNL     1      -1.204   2.837   0.023  0.00  0.00    -0.274 OA
ATOM     17  N   UNL     1      -0.011   0.966   0.007  0.00  0.00    -0.264 N 
ATOM     18  C   UNL     1       1.183   1.677  -0.000  0.00  0.00    +0.165 A 
ATOM     19  N   UNL     1       2.420   1.220  -0.015  0.00  0.00    -0.229 NA
ATOM     20  C   UNL     1       3.452   2.041  -0.020  0.00  0.00    +0.061 A 
ATOM     21  C   UNL     1       3.216   3.375  -0.011  0.00  0.00    +0.072 A 
ATOM     22  S   UNL     1       1.429   3.396  -0.001  0.00  0.00    -0.060 S 
ATOM     23  H   UNL     1       0.002  -0.004   0.002  0.00  0.00    +0.157 HD
BRANCH  20  24
ATOM     24  C   UNL     1       4.861   1.507  -0.036  0.00  0.00    +0.181 C 
BRANCH  24  25
ATOM     25  C   UNL     1       5.053   0.561   1.121  0.00  0.00    +0.362 C 
ATOM     26  O   UNL     1       4.139   0.342   1.881  0.00  0.00    -0.246 OA
ATOM     27  O   UNL     1       6.239  -0.039   1.308  0.00  0.00    -0.246 OA
ENDBRANCH  24  25
ENDBRANCH  20  24
ENDBRANCH   7  15
TORSDOF 3
