REMARK  Name = ZINC43948881
REMARK  8 active torsions:
REMARK  status: ('A' for Active; 'I' for Inactive)
REMARK    1  A    between atoms: C_1  and  C_2
REMARK    2  A    between atoms: C_7  and  C_8
REMARK    3  A    between atoms: C_11  and  C_12
REMARK    4  A    between atoms: C_12  and  C_13
REMARK    5  A    between atoms: N_15  and  C_16
REMARK    6  A    between atoms: C_16  and  C_17
REMARK    7  A    between atoms: C_20  and  S_22
REMARK    8  A    between atoms: S_22  and  N_25
REMARK                            x       y       z     vdW  Elec       q    Type
REMARK                         _______ _______ _______ _____ _____    ______ ____
ROOT
ATOM      1  C   UNL     1       1.434  -2.653  -4.222  0.00  0.00    +0.218 C 
ATOM      2  O   UNL     1       2.356  -2.682  -3.435  0.00  0.00    -0.275 OA
ATOM      3  N   UNL     1       1.670  -2.426  -5.529  0.00  0.00    -0.310 N 
ATOM      4  H   UNL     1       0.932  -2.403  -6.158  0.00  0.00    +0.149 HD
ENDROOT
BRANCH   1   5
ATOM      5  C   UNL     1       0.023  -2.872  -3.738  0.00  0.00    +0.134 C 
BRANCH   5  16
ATOM      6  C   UNL     1      -0.018   1.503   0.010  0.00  0.00    +0.044 C 
ATOM      7  C   UNL     1       0.002  -0.004   0.002  0.00  0.00    -0.047 A 
ATOM      8  C   UNL     1       0.006  -0.683  -1.196  0.00  0.00    +0.015 A 
ATOM      9  C   UNL     1       0.025  -2.077  -1.198  0.00  0.00    +0.024 A 
ATOM     10  C   UNL     1       0.040  -2.784   0.017  0.00  0.00    +0.135 A 
ATOM     11  C   UNL     1       0.036  -2.080   1.214  0.00  0.00    +0.050 A 
ATOM     12  C   UNL     1       0.023  -0.701   1.201  0.00  0.00    -0.044 A 
ATOM     13  C   UNL     1       0.025   0.056   2.504  0.00  0.00    +0.044 C 
ATOM     14  O   UNL     1       0.056  -4.098  -0.286  0.00  0.00    -0.463 OA
ATOM     15  C   UNL     1       0.053  -4.284  -1.617  0.00  0.00    +0.200 A 
ATOM     16  C   UNL     1       0.034  -3.102  -2.248  0.00  0.00    +0.007 A 
ENDBRANCH   5  16
ENDBRANCH   1   5
BRANCH   3  17
ATOM     17  C   UNL     1       3.041  -2.214  -6.000  0.00  0.00    +0.146 C 
BRANCH  17  18
ATOM     18  C   UNL     1       3.031  -1.983  -7.489  0.00  0.00    +0.009 A 
ATOM     19  C   UNL     1       2.925  -0.817  -8.172  0.00  0.00    +0.015 A 
ATOM     20  C   UNL     1       2.940  -0.845  -9.553  0.00  0.00    +0.036 A 
ATOM     21  C   UNL     1       3.059  -2.039 -10.185  0.00  0.00    +0.142 A 
ATOM     22  S   UNL     1       3.162  -3.175  -8.812  0.00  0.00    -0.072 S 
BRANCH  21  23
ATOM     23  S   UNL     1       3.106  -2.380 -11.913  0.00  0.00    +0.062 S 
ATOM     24  O   UNL     1       2.682  -3.727 -12.073  0.00  0.00    -0.153 OA
ATOM     25  O   UNL     1       2.454  -1.294 -12.559  0.00  0.00    -0.153 OA
BRANCH  23  26
ATOM     26  N   UNL     1       4.693  -2.324 -12.380  0.00  0.00    -0.203 NA
ATOM     27  H   UNL     1       5.384  -2.130 -11.728  0.00  0.00    +0.144 HD
ATOM     28  H   UNL     1       4.933  -2.487 -13.306  0.00  0.00    +0.144 HD
ENDBRANCH  23  26
ENDBRANCH  21  23
ENDBRANCH  17  18
ENDBRANCH   3  17
TORSDOF 6
