REMARK  Name = ZINC33073481
REMARK  5 active torsions:
REMARK  status: ('A' for Active; 'I' for Inactive)
REMARK    1  A    between atoms: C_1  and  C_2
REMARK    2  A    between atoms: C_12  and  C_13
REMARK    3  A    between atoms: C_18  and  C_21
REMARK    4  A    between atoms: N_23  and  C_24
REMARK    5  A    between atoms: C_24  and  C_25
REMARK                            x       y       z     vdW  Elec       q    Type
REMARK                         _______ _______ _______ _____ _____    ______ ____
ROOT
ATOM      1  C   UNL     1       0.030  -0.168   2.547  0.00  0.00    +0.254 C 
ATOM      2  O   UNL     1      -0.079  -0.607   1.417  0.00  0.00    -0.269 OA
ATOM      3  N   UNL     1       0.153  -1.014   3.589  0.00  0.00    -0.297 N 
ATOM      4  C   UNL     1       0.288  -2.461   3.368  0.00  0.00    +0.109 C 
ATOM      5  C   UNL     1      -0.782  -3.187   4.188  0.00  0.00    +0.032 C 
ATOM      6  C   UNL     1      -0.671  -2.763   5.654  0.00  0.00    +0.078 C 
ATOM      7  C   UNL     1      -0.912  -1.256   5.771  0.00  0.00    +0.032 C 
ATOM      8  C   UNL     1       0.162  -0.507   4.968  0.00  0.00    +0.109 C 
ENDROOT
BRANCH   1  20
ATOM      9  C   UNL     1      -1.696   1.852   1.073  0.00  0.00    +0.046 C 
ATOM     10  C   UNL     1      -0.718   2.238   2.153  0.00  0.00    -0.017 A 
ATOM     11  C   UNL     1      -0.578   3.578   2.523  0.00  0.00    +0.076 A 
ATOM     12  C   UNL     1      -1.276   4.772   1.996  0.00  0.00    +0.260 A 
ATOM     13  O   UNL     1      -2.109   4.670   1.113  0.00  0.00    -0.267 OA
ATOM     14  N   UNL     1      -0.967   5.975   2.519  0.00  0.00    -0.313 N 
ATOM     15  H   UNL     1      -1.415   6.768   2.185  0.00  0.00    +0.170 HD
ATOM     16  C   UNL     1      -0.042   6.100   3.503  0.00  0.00    +0.200 A 
ATOM     17  N   UNL     1       0.592   5.068   3.989  0.00  0.00    -0.230 NA
ATOM     18  C   UNL     1       0.363   3.838   3.545  0.00  0.00    +0.116 A 
ATOM     19  S   UNL     1       0.998   2.227   3.935  0.00  0.00    -0.064 S 
ATOM     20  C   UNL     1       0.027   1.280   2.776  0.00  0.00    +0.080 A 
ENDBRANCH   1  20
BRANCH   6  21
ATOM     21  C   UNL     1      -1.700  -3.501   6.470  0.00  0.00    +0.216 C 
ATOM     22  O   UNL     1      -2.450  -4.289   5.932  0.00  0.00    -0.276 OA
ATOM     23  N   UNL     1      -1.789  -3.287   7.798  0.00  0.00    -0.311 N 
ATOM     24  H   UNL     1      -1.190  -2.657   8.228  0.00  0.00    +0.149 HD
BRANCH  23  25
ATOM     25  C   UNL     1      -2.790  -4.004   8.591  0.00  0.00    +0.139 C 
BRANCH  25  26
ATOM     26  C   UNL     1      -2.680  -3.587  10.035  0.00  0.00    -0.027 A 
ATOM     27  C   UNL     1      -1.838  -4.274  10.889  0.00  0.00    +0.009 A 
ATOM     28  C   UNL     1      -1.734  -3.895  12.215  0.00  0.00    +0.050 A 
ATOM     29  C   UNL     1      -2.474  -2.824  12.690  0.00  0.00    +0.166 A 
ATOM     30  C   UNL     1      -3.322  -2.132  11.829  0.00  0.00    +0.167 A 
ATOM     31  C   UNL     1      -3.417  -2.514  10.501  0.00  0.00    +0.054 A 
ATOM     32  O   UNL     1      -3.932  -1.132  12.529  0.00  0.00    -0.453 OA
ATOM     33  C   UNL     1      -3.760  -1.474  13.917  0.00  0.00    +0.466 C 
ATOM     34  O   UNL     1      -2.553  -2.258  13.929  0.00  0.00    -0.453 OA
ENDBRANCH  25  26
ENDBRANCH  23  25
ENDBRANCH   6  21
TORSDOF 4
