REMARK  Name = ZINC07398758
REMARK  6 active torsions:
REMARK  status: ('A' for Active; 'I' for Inactive)
REMARK    1  A    between atoms: C_6  and  C_7
REMARK    2  A    between atoms: C_7  and  N_8
REMARK    3  A    between atoms: C_9  and  C_11
REMARK    4  A    between atoms: C_11  and  C_12
REMARK    5  A    between atoms: C_12  and  N_13
REMARK    6  A    between atoms: C_14  and  C_16
REMARK                            x       y       z     vdW  Elec       q    Type
REMARK                         _______ _______ _______ _____ _____    ______ ____
ROOT
ATOM      1  C   UNL     1       1.058  -2.248  -0.020  0.00  0.00    +0.113 C 
ENDROOT
BRANCH   1   2
ATOM      2  N   UNL     1       2.337  -2.963  -0.036  0.00  0.00    -0.314 N 
ATOM      3  C   UNL     1       2.355  -4.310  -0.044  0.00  0.00    +0.219 C 
ATOM      4  O   UNL     1       1.313  -4.931  -0.037  0.00  0.00    -0.275 OA
ATOM      5  H   UNL     1       3.170  -2.466  -0.042  0.00  0.00    +0.149 HD
BRANCH   3   6
ATOM      6  C   UNL     1       3.670  -5.046  -0.060  0.00  0.00    +0.048 C 
ATOM      7  C   UNL     1       4.455  -4.659  -1.315  0.00  0.00    +0.019 C 
ATOM      8  C   UNL     1       5.790  -5.406  -1.332  0.00  0.00    -0.009 C 
ATOM      9  C   UNL     1       5.531  -6.914  -1.337  0.00  0.00    +0.007 C 
ATOM     10  C   UNL     1       4.746  -7.301  -0.083  0.00  0.00    -0.009 C 
ATOM     11  C   UNL     1       3.411  -6.554  -0.066  0.00  0.00    +0.019 C 
ATOM     12  C   UNL     1       5.555  -6.927   1.161  0.00  0.00    +0.007 C 
ATOM     13  C   UNL     1       5.814  -5.419   1.167  0.00  0.00    -0.009 C 
ATOM     14  C   UNL     1       6.599  -5.032  -0.088  0.00  0.00    +0.007 C 
ATOM     15  C   UNL     1       4.479  -4.672   1.183  0.00  0.00    +0.019 C 
ENDBRANCH   3   6
ENDBRANCH   1   2
BRANCH   1  16
ATOM     16  C   UNL     1       1.317  -0.740  -0.015  0.00  0.00    +0.114 C 
BRANCH  16  18
ATOM     17  N   UNL     1      -0.016   1.344   0.009  0.00  0.00    -0.311 N 
ATOM     18  C   UNL     1       0.002  -0.004   0.002  0.00  0.00    +0.215 C 
ATOM     19  O   UNL     1      -1.040  -0.625   0.009  0.00  0.00    -0.276 OA
ATOM     20  H   UNL     1       0.817   1.840   0.004  0.00  0.00    +0.149 HD
BRANCH  17  21
ATOM     21  C   UNL     1      -1.295   2.059   0.019  0.00  0.00    +0.139 C 
BRANCH  21  27
ATOM     22  C   UNL     1      -0.922   4.219   1.227  0.00  0.00    +0.008 A 
ATOM     23  C   UNL     1      -0.684   5.580   1.234  0.00  0.00    +0.038 A 
ATOM     24  C   UNL     1      -0.572   6.270   0.039  0.00  0.00    +0.123 A 
ATOM     25  C   UNL     1      -0.695   5.593  -1.163  0.00  0.00    +0.038 A 
ATOM     26  C   UNL     1      -0.928   4.231  -1.168  0.00  0.00    +0.008 A 
ATOM     27  C   UNL     1      -1.040   3.544   0.026  0.00  0.00    -0.030 A 
ATOM     28  F   UNL     1      -0.343   7.601   0.045  0.00  0.00    -0.205 F 
ENDBRANCH  21  27
ENDBRANCH  17  21
ENDBRANCH  16  18
ENDBRANCH   1  16
TORSDOF 6
