REMARK  Name = ZINC01040463
REMARK  6 active torsions:
REMARK  status: ('A' for Active; 'I' for Inactive)
REMARK    1  A    between atoms: C_4  and  C_8
REMARK    2  A    between atoms: C_5  and  O_7
REMARK    3  A    between atoms: N_9  and  N_10
REMARK    4  A    between atoms: N_13  and  N_14
REMARK    5  A    between atoms: C_15  and  C_16
REMARK    6  A    between atoms: C_17  and  O_23
REMARK                            x       y       z     vdW  Elec       q    Type
REMARK                         _______ _______ _______ _____ _____    ______ ____
ROOT
ATOM      1  N   UNL     1       4.968  -2.576  -0.244  0.00  0.00    -0.189 N 
ATOM      2  C   UNL     1       4.971  -3.906  -0.461  0.00  0.00    +0.339 C 
ATOM      3  O   UNL     1       6.022  -4.517  -0.478  0.00  0.00    -0.249 OA
ATOM      4  N   UNL     1       3.808  -4.560  -0.658  0.00  0.00    -0.189 N 
ATOM      5  H   UNL     1       4.126  -2.101  -0.157  0.00  0.00    +0.179 HD
ATOM      6  H   UNL     1       3.803  -5.526  -0.741  0.00  0.00    +0.179 HD
ENDROOT
BRANCH   1   8
ATOM      7  C   UNL     1       6.177  -0.587  -0.032  0.00  0.00    +0.142 C 
ATOM      8  N   UNL     1       6.179  -1.880  -0.144  0.00  0.00    -0.186 NA
BRANCH   7  12
ATOM      9  C   UNL     1       9.848   1.551  -0.048  0.00  0.00    +0.019 A 
ATOM     10  C   UNL     1       8.646   2.240  -0.031  0.00  0.00    +0.019 A 
ATOM     11  C   UNL     1       7.450   1.551  -0.026  0.00  0.00    +0.028 A 
ATOM     12  C   UNL     1       7.451   0.155  -0.038  0.00  0.00    +0.037 A 
ATOM     13  C   UNL     1       8.669  -0.537  -0.055  0.00  0.00    +0.126 A 
ATOM     14  C   UNL     1       9.861   0.169  -0.060  0.00  0.00    +0.047 A 
ATOM     15 BR   UNL     1       8.644   4.131  -0.014  0.00  0.00    -0.050 Br
BRANCH  13  16
ATOM     16  O   UNL     1       8.682  -1.895  -0.067  0.00  0.00    -0.506 OA
ATOM     17  H   UNL     1       8.755  -2.281  -0.951  0.00  0.00    +0.292 HD
ENDBRANCH  13  16
ENDBRANCH   7  12
ENDBRANCH   1   8
BRANCH   4  18
ATOM     18  N   UNL     1       2.608  -3.843  -0.744  0.00  0.00    -0.186 NA
ATOM     19  C   UNL     1       1.479  -4.476  -0.836  0.00  0.00    +0.142 C 
BRANCH  19  20
ATOM     20  C   UNL     1       0.227  -3.725  -1.037  0.00  0.00    +0.037 A 
ATOM     21  C   UNL     1       0.261  -2.339  -1.242  0.00  0.00    +0.126 A 
ATOM     22  C   UNL     1      -0.921  -1.643  -1.430  0.00  0.00    +0.047 A 
ATOM     23  C   UNL     1      -2.130  -2.312  -1.415  0.00  0.00    +0.019 A 
ATOM     24  C   UNL     1      -2.170  -3.682  -1.213  0.00  0.00    +0.019 A 
ATOM     25  C   UNL     1      -1.001  -4.392  -1.030  0.00  0.00    +0.028 A 
ATOM     26 BR   UNL     1      -3.832  -4.584  -1.195  0.00  0.00    -0.050 Br
BRANCH  21  27
ATOM     27  O   UNL     1       1.450  -1.682  -1.256  0.00  0.00    -0.506 OA
ATOM     28  H   UNL     1       1.819  -1.555  -2.141  0.00  0.00    +0.292 HD
ENDBRANCH  21  27
ENDBRANCH  19  20
ENDBRANCH   4  18
TORSDOF 6
