REMARK  Name = ZINC62247251
REMARK  6 active torsions:
REMARK  status: ('A' for Active; 'I' for Inactive)
REMARK    1  A    between atoms: C_1  and  C_2
REMARK    2  A    between atoms: C_3  and  N_11
REMARK    3  A    between atoms: C_7  and  N_8
REMARK    4  A    between atoms: N_14  and  C_15
REMARK    5  A    between atoms: N_14  and  C_16
REMARK    6  A    between atoms: C_16  and  C_17
REMARK                            x       y       z     vdW  Elec       q    Type
REMARK                         _______ _______ _______ _____ _____    ______ ____
ROOT
ATOM      1  N   UNL     1      -0.898   0.098  -2.321  0.00  0.00    -0.269 N 
ATOM      2  C   UNL     1      -1.186  -0.592  -3.442  0.00  0.00    +0.307 C 
ATOM      3  O   UNL     1      -0.948  -1.782  -3.502  0.00  0.00    -0.252 OA
ATOM      4  N   UNL     1      -1.738   0.039  -4.498  0.00  0.00    -0.284 N 
ATOM      5  C   UNL     1      -2.024   1.474  -4.427  0.00  0.00    +0.134 C 
ATOM      6  H   UNL     1      -1.028   1.059  -2.296  0.00  0.00    +0.156 HD
ENDROOT
BRANCH   1   9
ATOM      7  C   UNL     1      -1.515   1.163   0.245  0.00  0.00    +0.048 C 
ATOM      8  C   UNL     1      -0.690  -0.087   0.079  0.00  0.00    +0.001 A 
ATOM      9  C   UNL     1      -0.412  -0.572  -1.193  0.00  0.00    +0.040 A 
ATOM     10  C   UNL     1       0.349  -1.724  -1.342  0.00  0.00    +0.024 A 
ATOM     11  C   UNL     1       0.827  -2.384  -0.226  0.00  0.00    +0.004 A 
ATOM     12  C   UNL     1       0.548  -1.898   1.038  0.00  0.00    +0.033 A 
ATOM     13  C   UNL     1      -0.205  -0.748   1.190  0.00  0.00    +0.131 A 
BRANCH  13  14
ATOM     14  N   UNL     1      -0.496  -0.228   2.545  0.00  0.00    +0.057 N 
ATOM     15  O   UNL     1      -0.503   0.964   2.746  0.00  0.00    -0.126 OA
ATOM     16  O   UNL     1      -0.727  -0.996   3.450  0.00  0.00    -0.126 OA
ENDBRANCH  13  14
ENDBRANCH   1   9
BRANCH   4  17
ATOM     17  C   UNL     1      -2.051  -0.711  -5.717  0.00  0.00    +0.144 C 
BRANCH  17  18
ATOM     18  C   UNL     1      -3.454  -1.252  -5.628  0.00  0.00    -0.022 A 
ATOM     19  C   UNL     1      -3.692  -2.497  -5.076  0.00  0.00    +0.028 A 
ATOM     20  C   UNL     1      -4.967  -2.954  -5.011  0.00  0.00    +0.055 A 
ATOM     21  S   UNL     1      -5.881  -1.607  -5.743  0.00  0.00    -0.090 S 
ATOM     22  C   UNL     1      -4.503  -0.523  -6.082  0.00  0.00    +0.051 A 
ATOM     23 BR   UNL     1      -5.611  -4.594  -4.323  0.00  0.00    -0.043 Br
ENDBRANCH  17  18
ENDBRANCH   4  17
TORSDOF 4
