REMARK  Name = ZINC36089813
REMARK  5 active torsions:
REMARK  status: ('A' for Active; 'I' for Inactive)
REMARK    1  A    between atoms: C_1  and  C_2
REMARK    2  A    between atoms: N_12  and  N_13
REMARK    3  A    between atoms: C_14  and  C_15
REMARK    4  A    between atoms: C_17  and  N_22
REMARK    5  A    between atoms: C_20  and  O_21
REMARK                            x       y       z     vdW  Elec       q    Type
REMARK                         _______ _______ _______ _____ _____    ______ ____
ROOT
ATOM      1  N   UNL     1       0.024   0.079   2.388  0.00  0.00    -0.170 NA
ATOM      2  C   UNL     1       1.008  -0.046   3.227  0.00  0.00    +0.145 C 
ENDROOT
BRANCH   1  14
ATOM      3  C   UNL     1       0.249   1.488   0.012  0.00  0.00    +0.088 C 
ATOM      4  C   UNL     1       0.129  -0.014   0.005  0.00  0.00    +0.132 A 
ATOM      5  N   UNL     1       0.139  -0.628  -1.140  0.00  0.00    -0.232 NA
ATOM      6  C   UNL     1       0.035  -1.977  -1.224  0.00  0.00    +0.078 A 
ATOM      7  C   UNL     1       0.046  -2.640  -2.453  0.00  0.00    +0.028 A 
ATOM      8  C   UNL     1      -0.062  -4.012  -2.486  0.00  0.00    +0.002 A 
ATOM      9  C   UNL     1      -0.182  -4.745  -1.313  0.00  0.00    +0.001 A 
ATOM     10  C   UNL     1      -0.196  -4.119  -0.097  0.00  0.00    +0.015 A 
ATOM     11  C   UNL     1      -0.087  -2.731  -0.035  0.00  0.00    +0.067 A 
ATOM     12  C   UNL     1      -0.095  -2.007   1.244  0.00  0.00    +0.282 A 
ATOM     13  O   UNL     1      -0.197  -2.596   2.304  0.00  0.00    -0.265 OA
ATOM     14  N   UNL     1       0.020  -0.659   1.197  0.00  0.00    -0.182 N 
ENDBRANCH   1  14
BRANCH   2  15
ATOM     15  C   UNL     1       0.957   0.641   4.529  0.00  0.00    +0.038 A 
ATOM     16  C   UNL     1       2.016   0.514   5.432  0.00  0.00    +0.045 A 
ATOM     17  C   UNL     1       1.962   1.161   6.649  0.00  0.00    +0.127 A 
ATOM     18  C   UNL     1       0.863   1.935   6.981  0.00  0.00    +0.036 A 
ATOM     19  C   UNL     1      -0.191   2.068   6.097  0.00  0.00    +0.048 A 
ATOM     20  C   UNL     1      -0.151   1.431   4.867  0.00  0.00    +0.126 A 
BRANCH  17  21
ATOM     21  N   UNL     1       3.085   1.026   7.604  0.00  0.00    +0.056 N 
ATOM     22  O   UNL     1       4.045   0.350   7.317  0.00  0.00    -0.126 OA
ATOM     23  O   UNL     1       3.040   1.591   8.672  0.00  0.00    -0.126 OA
ENDBRANCH  17  21
BRANCH  20  24
ATOM     24  O   UNL     1      -1.183   1.566   3.996  0.00  0.00    -0.506 OA
ATOM     25  H   UNL     1      -1.876   0.899   4.100  0.00  0.00    +0.292 HD
ENDBRANCH  20  24
ENDBRANCH   2  15
TORSDOF 4
