REMARK  Name = ZINC63372238
REMARK  15 active torsions:
REMARK  status: ('A' for Active; 'I' for Inactive)
REMARK    1  A    between atoms: C_1  and  C_2
REMARK    2  A    between atoms: C_2  and  C_3
REMARK    3  A    between atoms: C_3  and  C_4
REMARK    4  A    between atoms: C_4  and  O_5
REMARK    5  A    between atoms: O_5  and  C_6
REMARK    6  A    between atoms: C_6  and  C_7
REMARK    7  A    between atoms: C_7  and  C_8
REMARK    8  A    between atoms: C_8  and  N_9
REMARK    9  A    between atoms: C_15  and  C_31
REMARK   10  A    between atoms: C_27  and  C_30
REMARK   11  A    between atoms: C_35  and  O_40
REMARK   12  A    between atoms: C_36  and  O_37
REMARK   13  A    between atoms: O_37  and  C_38
REMARK   14  A    between atoms: C_38  and  C_39
REMARK   15  A    between atoms: O_40  and  C_41
REMARK                            x       y       z     vdW  Elec       q    Type
REMARK                         _______ _______ _______ _____ _____    ______ ____
ROOT
ATOM      1  N   UNL     1      -5.830  -6.322   0.024  0.00  0.00    -0.291 N 
ATOM      2  C   UNL     1      -6.481  -6.510   1.310  0.00  0.00    +0.203 C 
ATOM      3  C   UNL     1      -7.904  -6.934   1.164  0.00  0.00    +0.234 C 
ATOM      4  O   UNL     1      -8.541  -7.121   2.179  0.00  0.00    -0.274 OA
ATOM      5  N   UNL     1      -8.530  -7.122  -0.003  0.00  0.00    -0.283 N 
ATOM      6  C   UNL     1      -9.932  -7.581   0.027  0.00  0.00    +0.121 C 
ATOM      7  C   UNL     1     -10.819  -6.556  -0.702  0.00  0.00    +0.069 C 
ATOM      8  C   UNL     1     -10.120  -6.223  -1.996  0.00  0.00    -0.027 C 
ATOM      9  C   UNL     1     -10.544  -6.226  -3.253  0.00  0.00    -0.000 A 
ATOM     10  C   UNL     1     -11.878  -6.443  -3.837  0.00  0.00    +0.010 A 
ATOM     11  C   UNL     1     -11.953  -6.398  -5.194  0.00  0.00    +0.001 A 
ATOM     12  C   UNL     1     -10.849  -6.163  -6.018  0.00  0.00    +0.002 A 
ATOM     13  C   UNL     1      -9.588  -5.945  -5.567  0.00  0.00    +0.026 A 
ATOM     14  C   UNL     1      -9.384  -5.958  -4.157  0.00  0.00    +0.043 A 
ATOM     15  N   UNL     1      -8.304  -5.757  -3.461  0.00  0.00    -0.375 N 
ATOM     16  C   UNL     1      -8.653  -5.809  -2.041  0.00  0.00    +0.139 C 
ATOM     17  C   UNL     1      -7.875  -6.895  -1.292  0.00  0.00    +0.135 C 
ATOM     18  C   UNL     1      -6.447  -6.487  -1.145  0.00  0.00    +0.242 C 
ATOM     19  O   UNL     1      -5.805  -6.296  -2.156  0.00  0.00    -0.273 OA
ATOM     20  C   UNL     1      -7.925  -8.189  -2.107  0.00  0.00    +0.044 C 
ATOM     21  H   UNL     1      -7.417  -5.600  -3.822  0.00  0.00    +0.160 HD
ENDROOT
BRANCH   7  22
ATOM     22  C   UNL     1     -12.173  -7.154  -0.984  0.00  0.00    +0.007 A 
ATOM     23  C   UNL     1     -12.278  -8.293  -1.760  0.00  0.00    +0.008 A 
ATOM     24  C   UNL     1     -13.518  -8.844  -2.021  0.00  0.00    +0.004 A 
ATOM     25  C   UNL     1     -14.660  -8.258  -1.507  0.00  0.00    +0.049 A 
ATOM     26  C   UNL     1     -14.563  -7.116  -0.729  0.00  0.00    +0.162 A 
ATOM     27  C   UNL     1     -13.313  -6.565  -0.461  0.00  0.00    +0.166 A 
BRANCH  26  28
ATOM     28  O   UNL     1     -15.685  -6.538  -0.222  0.00  0.00    -0.491 OA
ATOM     29  C   UNL     1     -16.932  -7.162  -0.533  0.00  0.00    +0.277 C 
ENDBRANCH  26  28
BRANCH  27  30
ATOM     30  O   UNL     1     -13.211  -5.448   0.307  0.00  0.00    -0.488 OA
BRANCH  30  31
ATOM     31  C   UNL     1     -13.266  -4.189  -0.367  0.00  0.00    +0.226 C 
ATOM     32  C   UNL     1     -13.136  -3.057   0.653  0.00  0.00    +0.048 C 
ENDBRANCH  30  31
ENDBRANCH  27  30
ENDBRANCH   7  22
BRANCH   1  33
ATOM     33  C   UNL     1      -4.420  -5.925   0.012  0.00  0.00    +0.110 C 
BRANCH  33  34
ATOM     34  C   UNL     1      -4.319  -4.399   0.020  0.00  0.00    +0.047 C 
BRANCH  34  35
ATOM     35  C   UNL     1      -2.847  -3.984   0.008  0.00  0.00    +0.161 C 
BRANCH  35  36
ATOM     36  O   UNL     1      -2.753  -2.558   0.015  0.00  0.00    -0.380 OA
BRANCH  36  37
ATOM     37  C   UNL     1      -1.413  -2.063   0.004  0.00  0.00    +0.160 C 
BRANCH  37  38
ATOM     38  C   UNL     1      -1.433  -0.534   0.013  0.00  0.00    +0.028 C 
BRANCH  38  40
ATOM     39  C   UNL     1      -0.019   1.526   0.010  0.00  0.00    +0.004 C 
ATOM     40  C   UNL     1       0.002  -0.004   0.002  0.00  0.00    -0.001 C 
ENDBRANCH  38  40
ENDBRANCH  37  38
ENDBRANCH  36  37
ENDBRANCH  35  36
ENDBRANCH  34  35
ENDBRANCH  33  34
ENDBRANCH   1  33
TORSDOF 11
