REMARK  Name = ZINC64612782
REMARK  6 active torsions:
REMARK  status: ('A' for Active; 'I' for Inactive)
REMARK    1  A    between atoms: C_1  and  C_2
REMARK    2  A    between atoms: C_5  and  N_9
REMARK    3  A    between atoms: N_9  and  S_10
REMARK    4  A    between atoms: S_10  and  C_13
REMARK    5  A    between atoms: C_16  and  C_18
REMARK    6  A    between atoms: C_22  and  C_25
REMARK                            x       y       z     vdW  Elec       q    Type
REMARK                         _______ _______ _______ _____ _____    ______ ____
ROOT
ATOM      1  C   UNL     1       0.335  -6.712   0.990  0.00  0.00    +0.111 C 
ATOM      2  C   UNL     1      -0.601  -7.647   1.112  0.00  0.00    +0.135 C 
ATOM      3  N   UNL     1      -0.169  -8.863   0.705  0.00  0.00    -0.258 NA
ATOM      4  C   UNL     1       1.052  -8.861   0.287  0.00  0.00    +0.069 C 
ATOM      5  C   UNL     1       1.542  -7.432   0.417  0.00  0.00    +0.113 C 
ENDROOT
BRANCH   4   6
ATOM      6  C   UNL     1       1.832 -10.042  -0.231  0.00  0.00    +0.248 C 
ATOM      7  N   UNL     1       1.284 -11.296   0.334  0.00  0.00    -0.222 NA
ATOM      8  N   UNL     1       2.481 -12.118   0.581  0.00  0.00    -0.223 NA
ATOM      9  C   UNL     1       3.478 -11.104   1.012  0.00  0.00    +0.233 C 
ATOM     10  O   UNL     1       3.200  -9.948   0.194  0.00  0.00    -0.332 OA
ATOM     11  H   UNL     1       0.784 -11.119   1.192  0.00  0.00    +0.144 HD
ATOM     12  H   UNL     1       2.780 -12.585  -0.262  0.00  0.00    +0.144 HD
BRANCH   9  13
ATOM     13  C   UNL     1       4.878 -11.603   0.758  0.00  0.00    -0.003 A 
ATOM     14  C   UNL     1       5.124 -12.465  -0.293  0.00  0.00    +0.007 A 
ATOM     15  C   UNL     1       6.408 -12.923  -0.526  0.00  0.00    +0.000 A 
ATOM     16  C   UNL     1       7.445 -12.517   0.292  0.00  0.00    +0.000 A 
ATOM     17  C   UNL     1       7.199 -11.653   1.343  0.00  0.00    +0.000 A 
ATOM     18  C   UNL     1       5.916 -11.193   1.573  0.00  0.00    +0.007 A 
ENDBRANCH   9  13
ENDBRANCH   4   6
BRANCH   1  19
ATOM     19  S   UNL     1       0.202  -5.004   1.400  0.00  0.00    +0.090 S 
ATOM     20  O   UNL     1       1.448  -4.624   1.969  0.00  0.00    -0.149 OA
ATOM     21  O   UNL     1      -1.030  -4.846   2.089  0.00  0.00    -0.149 OA
BRANCH  19  22
ATOM     22  N   UNL     1       0.059  -4.169  -0.023  0.00  0.00    -0.097 NA
BRANCH  22  27
ATOM     23  C   UNL     1      -0.080   1.502   0.018  0.00  0.00    +0.044 C 
ATOM     24  C   UNL     1      -0.043  -0.005   0.007  0.00  0.00    -0.049 A 
ATOM     25  C   UNL     1      -0.058  -0.705   1.200  0.00  0.00    +0.005 A 
ATOM     26  C   UNL     1      -0.025  -2.085   1.193  0.00  0.00    +0.028 A 
ATOM     27  C   UNL     1       0.024  -2.772  -0.013  0.00  0.00    +0.093 A 
ATOM     28  C   UNL     1       0.039  -2.066  -1.210  0.00  0.00    +0.066 A 
ATOM     29  C   UNL     1       0.001  -0.685  -1.197  0.00  0.00    +0.025 A 
ATOM     30 CL   UNL     1       0.100  -2.919  -2.721  0.00  0.00    -0.082 Cl
ENDBRANCH  22  27
ENDBRANCH  19  22
ENDBRANCH   1  19
TORSDOF 5
