REMARK  Name = ZINC02345956
REMARK  13 active torsions:
REMARK  status: ('A' for Active; 'I' for Inactive)
REMARK    1  A    between atoms: C_1  and  C_2
REMARK    2  A    between atoms: C_9  and  N_33
REMARK    3  A    between atoms: C_10  and  C_13
REMARK    4  A    between atoms: N_17  and  C_21
REMARK    5  A    between atoms: C_21  and  C_22
REMARK    6  A    between atoms: C_22  and  C_23
REMARK    7  A    between atoms: C_26  and  O_31
REMARK    8  A    between atoms: C_27  and  O_29
REMARK    9  A    between atoms: O_29  and  C_30
REMARK   10  A    between atoms: O_31  and  C_32
REMARK   11  A    between atoms: N_33  and  C_34
REMARK   12  A    between atoms: C_34  and  C_35
REMARK   13  A    between atoms: C_34  and  C_36
REMARK                            x       y       z     vdW  Elec       q    Type
REMARK                         _______ _______ _______ _____ _____    ______ ____
ROOT
ATOM      1  C   UNL     1      -3.688   5.838   0.069  0.00  0.00    +0.037 C 
ATOM      2  C   UNL     1      -4.864   5.152  -0.026  0.00  0.00    +0.077 C 
ATOM      3  C   UNL     1      -6.196   5.647  -0.121  0.00  0.00    +0.258 C 
ATOM      4  O   UNL     1      -6.420   6.844  -0.125  0.00  0.00    -0.269 OA
ATOM      5  N   UNL     1      -7.181   4.770  -0.209  0.00  0.00    -0.255 N 
ATOM      6  C   UNL     1      -6.932   3.442  -0.197  0.00  0.00    +0.121 C 
ATOM      7  S   UNL     1      -8.041   2.141  -0.291  0.00  0.00    -0.027 S 
ATOM      8  S   UNL     1      -5.152   3.388  -0.059  0.00  0.00    -0.061 S 
ENDROOT
BRANCH   1  18
ATOM      9  C   UNL     1       1.147   2.175   2.188  0.00  0.00    +0.047 C 
ATOM     10  C   UNL     1       1.031   3.074   0.984  0.00  0.00    -0.007 A 
ATOM     11  C   UNL     1       2.080   3.207   0.123  0.00  0.00    +0.008 A 
ATOM     12  C   UNL     1       1.956   4.046  -0.992  0.00  0.00    +0.019 A 
ATOM     13  C   UNL     1       0.806   4.723  -1.208  0.00  0.00    +0.096 A 
ATOM     14  N   UNL     1      -0.251   4.592  -0.356  0.00  0.00    -0.267 N 
ATOM     15  C   UNL     1      -0.160   3.780   0.741  0.00  0.00    +0.145 A 
ATOM     16  N   UNL     1      -1.181   3.644   1.588  0.00  0.00    -0.214 NA
ATOM     17  C   UNL     1      -2.326   4.286   1.407  0.00  0.00    +0.134 A 
ATOM     18  C   UNL     1      -2.477   5.140   0.289  0.00  0.00    +0.081 A 
ATOM     19  C   UNL     1      -1.388   5.277  -0.604  0.00  0.00    +0.267 A 
ATOM     20  O   UNL     1      -1.474   6.002  -1.580  0.00  0.00    -0.267 OA
BRANCH  17  21
ATOM     21  N   UNL     1      -3.361   4.124   2.301  0.00  0.00    -0.326 N 
ATOM     22  H   UNL     1      -4.197   4.595   2.166  0.00  0.00    +0.148 HD
BRANCH  21  23
ATOM     23  C   UNL     1      -3.198   3.239   3.458  0.00  0.00    +0.066 C 
ATOM     24  C   UNL     1      -2.528   4.007   4.598  0.00  0.00    +0.027 C 
ATOM     25  C   UNL     1      -4.570   2.740   3.916  0.00  0.00    +0.027 C 
ENDBRANCH  21  23
ENDBRANCH  17  21
ENDBRANCH   1  18
BRANCH   5  26
ATOM     26  C   UNL     1      -8.563   5.245  -0.313  0.00  0.00    +0.119 C 
BRANCH  26  27
ATOM     27  C   UNL     1      -9.155   5.403   1.088  0.00  0.00    +0.054 C 
BRANCH  27  28
ATOM     28  C   UNL     1     -10.577   5.891   0.981  0.00  0.00    -0.042 A 
ATOM     29  C   UNL     1     -11.614   4.981   0.895  0.00  0.00    +0.007 A 
ATOM     30  C   UNL     1     -12.920   5.424   0.796  0.00  0.00    +0.049 A 
ATOM     31  C   UNL     1     -13.192   6.783   0.783  0.00  0.00    +0.161 A 
ATOM     32  C   UNL     1     -12.148   7.699   0.869  0.00  0.00    +0.162 A 
ATOM     33  C   UNL     1     -10.841   7.248   0.973  0.00  0.00    +0.053 A 
BRANCH  32  34
ATOM     34  O   UNL     1     -12.409   9.033   0.857  0.00  0.00    -0.491 OA
ATOM     35  C   UNL     1     -11.288   9.915   0.949  0.00  0.00    +0.277 C 
ENDBRANCH  32  34
BRANCH  31  36
ATOM     36  O   UNL     1     -14.476   7.220   0.686  0.00  0.00    -0.491 OA
ATOM     37  C   UNL     1     -15.496   6.224   0.601  0.00  0.00    +0.277 C 
ENDBRANCH  31  36
ENDBRANCH  27  28
ENDBRANCH  26  27
ENDBRANCH   5  26
TORSDOF 8
