REMARK  Name = ZINC47388817
REMARK  8 active torsions:
REMARK  status: ('A' for Active; 'I' for Inactive)
REMARK    1  A    between atoms: C_1  and  C_2
REMARK    2  A    between atoms: N_4  and  C_5
REMARK    3  A    between atoms: C_9  and  N_11
REMARK    4  A    between atoms: C_18  and  C_20
REMARK    5  A    between atoms: C_23  and  C_26
REMARK    6  A    between atoms: C_26  and  C_27
REMARK    7  A    between atoms: C_26  and  C_28
REMARK    8  A    between atoms: C_26  and  C_29
REMARK                            x       y       z     vdW  Elec       q    Type
REMARK                         _______ _______ _______ _____ _____    ______ ____
ROOT
ATOM      1  N   UNL     1      -0.015  -4.989  -3.398  0.00  0.00    -0.269 N 
ATOM      2  C   UNL     1      -0.171  -6.327  -3.366  0.00  0.00    +0.307 C 
ATOM      3  O   UNL     1      -0.254  -6.904  -2.299  0.00  0.00    -0.252 OA
ATOM      4  N   UNL     1      -0.235  -7.025  -4.517  0.00  0.00    -0.278 N 
ATOM      5  C   UNL     1      -0.141  -6.456  -5.874  0.00  0.00    +0.110 C 
ATOM      6  C   UNL     1       0.351  -7.626  -6.762  0.00  0.00    +0.021 C 
ATOM      7  C   UNL     1      -0.395  -8.831  -6.131  0.00  0.00    +0.029 C 
ATOM      8  C   UNL     1      -0.402  -8.482  -4.628  0.00  0.00    +0.108 C 
ATOM      9  H   UNL     1       0.119  -4.536  -4.245  0.00  0.00    +0.156 HD
ENDROOT
BRANCH   1  14
ATOM     10  C   UNL     1      -0.628  -2.254  -1.011  0.00  0.00    +0.035 A 
ATOM     11  C   UNL     1      -0.101  -2.801   0.152  0.00  0.00    +0.023 A 
ATOM     12  C   UNL     1       0.450  -4.068   0.134  0.00  0.00    +0.004 A 
ATOM     13  C   UNL     1       0.479  -4.794  -1.042  0.00  0.00    +0.023 A 
ATOM     14  C   UNL     1      -0.046  -4.253  -2.208  0.00  0.00    +0.037 A 
ATOM     15  C   UNL     1      -0.605  -2.983  -2.191  0.00  0.00    +0.046 A 
BRANCH  10  19
ATOM     16  C   UNL     1      -2.920   0.660  -1.663  0.00  0.00    +0.109 C 
ATOM     17  C   UNL     1      -2.255  -0.689  -1.762  0.00  0.00    +0.214 C 
ATOM     18  O   UNL     1      -2.682  -1.521  -2.534  0.00  0.00    -0.276 OA
ATOM     19  N   UNL     1      -1.186  -0.971  -0.991  0.00  0.00    -0.286 N 
ATOM     20  H   UNL     1      -0.803  -0.284  -0.423  0.00  0.00    +0.155 HD
ENDBRANCH  10  19
ENDBRANCH   1  14
BRANCH   8  21
ATOM     21  C   UNL     1      -1.716  -8.895  -4.015  0.00  0.00    -0.027 A 
ATOM     22  C   UNL     1      -2.837  -8.104  -4.186  0.00  0.00    +0.006 A 
ATOM     23  C   UNL     1      -4.042  -8.483  -3.623  0.00  0.00    +0.004 A 
ATOM     24  C   UNL     1      -4.125  -9.652  -2.890  0.00  0.00    -0.042 A 
ATOM     25  C   UNL     1      -3.004 -10.443  -2.720  0.00  0.00    +0.004 A 
ATOM     26  C   UNL     1      -1.800 -10.066  -3.286  0.00  0.00    +0.006 A 
BRANCH  24  27
ATOM     27  C   UNL     1      -5.438 -10.064  -2.276  0.00  0.00    -0.013 C 
ATOM     28  C   UNL     1      -6.483 -10.244  -3.380  0.00  0.00    +0.015 C 
ATOM     29  C   UNL     1      -5.258 -11.384  -1.525  0.00  0.00    +0.015 C 
ATOM     30  C   UNL     1      -5.908  -8.982  -1.302  0.00  0.00    +0.015 C 
ENDBRANCH  24  27
ENDBRANCH   8  21
TORSDOF 4
