REMARK  Name = ZINC39469631
REMARK  8 active torsions:
REMARK  status: ('A' for Active; 'I' for Inactive)
REMARK    1  A    between atoms: C_1  and  C_2
REMARK    2  A    between atoms: C_2  and  O_3
REMARK    3  A    between atoms: O_3  and  C_4
REMARK    4  A    between atoms: C_16  and  C_17
REMARK    5  A    between atoms: C_22  and  O_23
REMARK    6  A    between atoms: P_26  and  S_29
REMARK    7  A    between atoms: S_29  and  O_32
REMARK    8  A    between atoms: O_32  and  C_33
REMARK                            x       y       z     vdW  Elec       q    Type
REMARK                         _______ _______ _______ _____ _____    ______ ____
ROOT
ATOM      1  C   UNL     1      -1.498  -1.848   0.006  0.00  0.00    +0.124 C 
ATOM      2  C   UNL     1      -0.430  -2.652  -0.003  0.00  0.00    +0.021 C 
ATOM      3  C   UNL     1      -0.642  -4.140   0.004  0.00  0.00    +0.008 C 
ATOM      4  C   UNL     1       0.580  -4.880   0.536  0.00  0.00    -0.046 C 
ATOM      5  N   UNL     1       0.347  -6.333   0.482  0.00  0.00    +0.398 N 
ATOM      6  C   UNL     1      -0.809  -6.720   1.291  0.00  0.00    -0.020 C 
ATOM      7  C   UNL     1      -2.074  -5.976   0.839  0.00  0.00    -0.003 C 
ATOM      8  C   UNL     1      -1.829  -4.472   0.916  0.00  0.00    +0.016 C 
ATOM      9  C   UNL     1      -3.032  -3.698   0.451  0.00  0.00    -0.011 C 
ATOM     10  C   UNL     1      -2.858  -2.438   0.016  0.00  0.00    +0.023 C 
ATOM     11  C   UNL     1      -1.112  -8.218   1.157  0.00  0.00    +0.158 C 
ATOM     12  O   UNL     1       0.012  -8.977   1.639  0.00  0.00    -0.301 OA
ATOM     13  P   UNL     1       1.486  -8.590   1.069  0.00  0.00    +0.431 P 
ATOM     14  O   UNL     1       1.697  -9.198  -0.264  0.00  0.00    -0.246 OA
ATOM     15  N   UNL     1       1.493  -6.927   0.967  0.00  0.00    -0.271 NA
ATOM     16  H   UNL     1       2.265  -6.397   1.218  0.00  0.00    +0.113 HD
ATOM     17  H   UNL     1       0.200  -6.616  -0.475  0.00  0.00    -0.055 HD
ENDROOT
BRANCH  10  18
ATOM     18  C   UNL     1      -4.020  -1.647  -0.456  0.00  0.00    +0.027 A 
ATOM     19  C   UNL     1      -4.919  -1.109   0.462  0.00  0.00    +0.012 A 
ATOM     20  C   UNL     1      -5.998  -0.372   0.018  0.00  0.00    +0.001 A 
ATOM     21  C   UNL     1      -6.191  -0.166  -1.337  0.00  0.00    +0.004 A 
ATOM     22  C   UNL     1      -5.306  -0.695  -2.256  0.00  0.00    +0.046 A 
ATOM     23  C   UNL     1      -4.214  -1.431  -1.824  0.00  0.00    +0.125 A 
BRANCH  23  24
ATOM     24  O   UNL     1      -3.339  -1.948  -2.726  0.00  0.00    -0.506 OA
ATOM     25  H   UNL     1      -3.570  -2.835  -3.034  0.00  0.00    +0.292 HD
ENDBRANCH  23  24
ENDBRANCH  10  18
BRANCH  13  26
ATOM     26  S   UNL     1       2.988  -9.240   2.417  0.00  0.00    +0.209 S 
ATOM     27  O   UNL     1       4.236  -8.996   1.783  0.00  0.00    -0.126 OA
ATOM     28  O   UNL     1       2.659  -8.693   3.686  0.00  0.00    -0.126 OA
BRANCH  26  29
ATOM     29  O   UNL     1       2.853 -10.751   2.546  0.00  0.00    -0.339 OA
BRANCH  29  30
ATOM     30  C   UNL     1       3.317 -11.441   1.471  0.00  0.00    +0.157 A 
ATOM     31  C   UNL     1       2.466 -11.735   0.415  0.00  0.00    +0.048 A 
ATOM     32  C   UNL     1       2.940 -12.437  -0.676  0.00  0.00    +0.004 A 
ATOM     33  C   UNL     1       4.260 -12.846  -0.717  0.00  0.00    +0.000 A 
ATOM     34  C   UNL     1       5.109 -12.555   0.334  0.00  0.00    +0.004 A 
ATOM     35  C   UNL     1       4.642 -11.848   1.426  0.00  0.00    +0.048 A 
ENDBRANCH  29  30
ENDBRANCH  26  29
ENDBRANCH  13  26
BRANCH   1  36
ATOM     36  O   UNL     1      -1.339  -0.499   0.012  0.00  0.00    -0.492 OA
BRANCH  36  38
ATOM     37  C   UNL     1      -0.019   1.526   0.010  0.00  0.00    +0.048 C 
ATOM     38  C   UNL     1       0.002  -0.004   0.002  0.00  0.00    +0.225 C 
ENDBRANCH  36  38
ENDBRANCH   1  36
TORSDOF 7
