REMARK  Name = ZINC12104942
REMARK  12 active torsions:
REMARK  status: ('A' for Active; 'I' for Inactive)
REMARK    1  A    between atoms: C_1  and  C_2
REMARK    2  A    between atoms: C_2  and  C_3
REMARK    3  A    between atoms: C_3  and  C_4
REMARK    4  A    between atoms: C_4  and  N_5
REMARK    5  A    between atoms: N_14  and  C_32
REMARK    6  A    between atoms: C_15  and  C_17
REMARK    7  A    between atoms: C_17  and  S_18
REMARK    8  A    between atoms: S_18  and  C_19
REMARK    9  A    between atoms: C_22  and  C_25
REMARK   10  A    between atoms: C_25  and  C_26
REMARK   11  A    between atoms: C_26  and  C_27
REMARK   12  A    between atoms: C_32  and  C_33
REMARK                            x       y       z     vdW  Elec       q    Type
REMARK                         _______ _______ _______ _____ _____    ______ ____
ROOT
ATOM      1  N   UNL     1       4.437   3.438   1.404  0.00  0.00    -0.277 N 
ATOM      2  C   UNL     1       3.313   3.030   0.704  0.00  0.00    +0.168 A 
ATOM      3  C   UNL     1       3.343   3.054  -0.685  0.00  0.00    +0.151 A 
ATOM      4  C   UNL     1       4.514   3.491  -1.340  0.00  0.00    +0.280 A 
ATOM      5  O   UNL     1       4.565   3.521  -2.557  0.00  0.00    -0.265 OA
ATOM      6  N   UNL     1       5.577   3.876  -0.603  0.00  0.00    -0.273 N 
ATOM      7  H   UNL     1       6.409   4.187  -1.063  0.00  0.00    +0.173 HD
ATOM      8  C   UNL     1       5.534   3.848   0.740  0.00  0.00    +0.331 A 
ATOM      9  O   UNL     1       6.511   4.202   1.371  0.00  0.00    -0.246 OA
ATOM     10  N   UNL     1       2.108   2.602  -1.106  0.00  0.00    -0.322 N 
ATOM     11  C   UNL     1       1.391   2.327   0.001  0.00  0.00    +0.123 A 
ATOM     12  N   UNL     1       2.106   2.588   1.066  0.00  0.00    -0.213 NA
ENDROOT
BRANCH  10  13
ATOM     13  C   UNL     1       1.663   2.449  -2.493  0.00  0.00    +0.120 C 
ATOM     14  C   UNL     1       1.008   3.749  -2.964  0.00  0.00    +0.027 C 
ENDBRANCH  10  13
BRANCH   1  15
ATOM     15  C   UNL     1       4.432   3.422   2.869  0.00  0.00    +0.128 C 
BRANCH  15  16
ATOM     16  C   UNL     1       3.931   4.770   3.391  0.00  0.00    +0.021 C 
BRANCH  16  18
ATOM     17  C   UNL     1       3.425   6.102   5.444  0.00  0.00    +0.004 C 
ATOM     18  C   UNL     1       3.925   4.754   4.921  0.00  0.00    -0.002 C 
ENDBRANCH  16  18
ENDBRANCH  15  16
ENDBRANCH   1  15
BRANCH  11  19
ATOM     19  C   UNL     1      -0.022   1.806   0.012  0.00  0.00    +0.151 C 
BRANCH  19  20
ATOM     20  S   UNL     1       0.002  -0.004   0.002  0.00  0.00    -0.078 S 
BRANCH  20  21
ATOM     21  C   UNL     1      -1.729  -0.334   0.017  0.00  0.00    +0.189 A 
ATOM     22  N   UNL     1      -2.321  -1.564   0.010  0.00  0.00    -0.320 N 
ATOM     23  H   UNL     1      -1.879  -2.427  -0.003  0.00  0.00    +0.169 HD
ATOM     24  C   UNL     1      -3.668  -1.327   0.030  0.00  0.00    +0.132 A 
ATOM     25  N   UNL     1      -3.834  -0.034   0.038  0.00  0.00    -0.134 NA
ATOM     26  N   UNL     1      -2.693   0.557   0.030  0.00  0.00    -0.123 NA
BRANCH  24  27
ATOM     27  C   UNL     1      -4.758  -2.367   0.035  0.00  0.00    +0.076 C 
BRANCH  27  28
ATOM     28  C   UNL     1      -5.687  -2.126   1.227  0.00  0.00    +0.011 C 
BRANCH  28  29
ATOM     29  C   UNL     1      -6.794  -3.183   1.232  0.00  0.00    -0.011 C 
ATOM     30  C   UNL     1      -7.730  -2.974   0.024  0.00  0.00    +0.003 C 
ATOM     31  C   UNL     1      -9.138  -3.313   0.571  0.00  0.00    +0.000 C 
ATOM     32  C   UNL     1      -9.096  -2.733   2.007  0.00  0.00    +0.000 C 
ATOM     33  C   UNL     1      -7.663  -3.030   2.493  0.00  0.00    +0.003 C 
ENDBRANCH  28  29
ENDBRANCH  27  28
ENDBRANCH  24  27
ENDBRANCH  20  21
ENDBRANCH  19  20
ENDBRANCH  11  19
TORSDOF 10
