REMARK  Name = ZINC03017119
REMARK  9 active torsions:
REMARK  status: ('A' for Active; 'I' for Inactive)
REMARK    1  A    between atoms: C_1  and  C_2
REMARK    2  A    between atoms: C_4  and  C_32
REMARK    3  A    between atoms: C_5  and  S_9
REMARK    4  A    between atoms: C_6  and  C_8
REMARK    5  A    between atoms: S_9  and  N_12
REMARK    6  A    between atoms: C_17  and  C_19
REMARK    7  A    between atoms: C_19  and  N_20
REMARK    8  A    between atoms: C_21  and  C_23
REMARK    9  A    between atoms: N_25  and  C_26
REMARK                            x       y       z     vdW  Elec       q    Type
REMARK                         _______ _______ _______ _____ _____    ______ ____
ROOT
ATOM      1  N   UNL     1      -1.214   1.875   1.586  0.00  0.00    -0.147 NA
ATOM      2  C   UNL     1      -0.489   1.476   0.369  0.00  0.00    +0.114 C 
ATOM      3  C   UNL     1      -1.120   2.203  -0.825  0.00  0.00    +0.045 C 
ATOM      4  C   UNL     1      -1.188   3.701  -0.517  0.00  0.00    +0.163 C 
ATOM      5  O   UNL     1      -1.967   3.910   0.664  0.00  0.00    -0.358 OA
ATOM      6  C   UNL     1      -1.413   3.310   1.839  0.00  0.00    +0.226 C 
ENDROOT
BRANCH   1   7
ATOM      7  S   UNL     1      -1.791   0.738   2.642  0.00  0.00    +0.064 S 
ATOM      8  O   UNL     1      -2.171   1.434   3.821  0.00  0.00    -0.153 OA
ATOM      9  O   UNL     1      -2.700  -0.072   1.910  0.00  0.00    -0.153 OA
BRANCH   7  14
ATOM     10  C   UNL     1       2.848  -2.812   4.155  0.00  0.00    +0.044 C 
ATOM     11  C   UNL     1       1.690  -1.925   3.776  0.00  0.00    -0.050 A 
ATOM     12  C   UNL     1       0.858  -2.282   2.732  0.00  0.00    +0.008 A 
ATOM     13  C   UNL     1      -0.205  -1.469   2.385  0.00  0.00    -0.024 A 
ATOM     14  C   UNL     1      -0.437  -0.299   3.084  0.00  0.00    +0.111 A 
ATOM     15  C   UNL     1       0.398   0.061   4.125  0.00  0.00    -0.024 A 
ATOM     16  C   UNL     1       1.458  -0.754   4.475  0.00  0.00    +0.008 A 
ATOM     17  C   UNL     1       0.149   1.340   4.883  0.00  0.00    +0.046 C 
ATOM     18  C   UNL     1      -1.111  -1.858   1.246  0.00  0.00    +0.046 C 
ENDBRANCH   7  14
ENDBRANCH   1   7
BRANCH   6  19
ATOM     19  C   UNL     1      -2.377   3.495   3.013  0.00  0.00    +0.154 C 
BRANCH  19  20
ATOM     20  N   UNL     1      -3.598   2.723   2.769  0.00  0.00    -0.304 N 
ATOM     21  C   UNL     1      -4.595   2.735   3.675  0.00  0.00    +0.299 C 
ATOM     22  O   UNL     1      -4.482   3.386   4.693  0.00  0.00    -0.265 OA
ATOM     23  H   UNL     1      -3.688   2.202   1.956  0.00  0.00    +0.149 HD
BRANCH  21  24
ATOM     24  C   UNL     1      -5.840   1.947   3.427  0.00  0.00    +0.299 C 
ATOM     25  O   UNL     1      -5.953   1.296   2.409  0.00  0.00    -0.265 OA
ATOM     26  N   UNL     1      -6.838   1.959   4.333  0.00  0.00    -0.305 N 
ATOM     27  H   UNL     1      -6.748   2.480   5.147  0.00  0.00    +0.149 HD
BRANCH  26  28
ATOM     28  C   UNL     1      -8.058   1.186   4.090  0.00  0.00    +0.073 C 
ATOM     29  C   UNL     1      -9.022   2.011   3.235  0.00  0.00    +0.022 C 
ATOM     30  C   UNL     1     -10.297   1.204   2.980  0.00  0.00    +0.002 C 
ATOM     31  C   UNL     1     -10.962   0.866   4.316  0.00  0.00    +0.000 C 
ATOM     32  C   UNL     1      -9.998   0.041   5.171  0.00  0.00    +0.002 C 
ATOM     33  C   UNL     1      -8.723   0.848   5.426  0.00  0.00    +0.022 C 
ENDBRANCH  26  28
ENDBRANCH  21  24
ENDBRANCH  19  20
ENDBRANCH   6  19
TORSDOF 6
