REMARK  Name = ZINC46057517
REMARK  5 active torsions:
REMARK  status: ('A' for Active; 'I' for Inactive)
REMARK    1  A    between atoms: C_1  and  C_2
REMARK    2  A    between atoms: C_5  and  N_8
REMARK    3  A    between atoms: C_11  and  C_13
REMARK    4  A    between atoms: C_14  and  C_20
REMARK    5  A    between atoms: C_20  and  C_22
REMARK                            x       y       z     vdW  Elec       q    Type
REMARK                         _______ _______ _______ _____ _____    ______ ____
ROOT
ATOM      1  N   UNL     1       0.124  -4.264   0.108  0.00  0.00    -0.218 N 
ATOM      2  C   UNL     1       0.733  -5.054   1.015  0.00  0.00    +0.133 A 
ATOM      3  C   UNL     1       0.525  -6.354   0.636  0.00  0.00    +0.026 A 
ATOM      4  C   UNL     1      -0.218  -6.346  -0.535  0.00  0.00    +0.066 A 
ATOM      5  N   UNL     1      -0.466  -5.098  -0.856  0.00  0.00    -0.170 NA
ATOM      6  C   UNL     1      -0.668  -7.562  -1.303  0.00  0.00    +0.068 C 
ATOM      7  C   UNL     1       1.051  -7.520   1.435  0.00  0.00    +0.107 C 
ATOM      8  C   UNL     1       2.320  -7.069   2.166  0.00  0.00    +0.112 C 
ATOM      9  C   UNL     1       2.138  -5.712   2.785  0.00  0.00    +0.219 C 
ATOM     10  O   UNL     1       2.624  -5.493   3.874  0.00  0.00    -0.275 OA
ATOM     11  N   UNL     1       1.451  -4.729   2.166  0.00  0.00    -0.270 N 
ATOM     12  H   UNL     1       1.456  -3.823   2.511  0.00  0.00    +0.156 HD
ENDROOT
BRANCH   1  17
ATOM     13  C   UNL     1      -0.047   1.409   0.183  0.00  0.00    +0.044 C 
ATOM     14  C   UNL     1      -0.002  -0.098   0.163  0.00  0.00    -0.050 A 
ATOM     15  C   UNL     1       0.065  -0.770  -1.043  0.00  0.00    +0.005 A 
ATOM     16  C   UNL     1       0.107  -2.150  -1.065  0.00  0.00    +0.028 A 
ATOM     17  C   UNL     1       0.082  -2.863   0.126  0.00  0.00    +0.067 A 
ATOM     18  C   UNL     1       0.015  -2.185   1.336  0.00  0.00    +0.028 A 
ATOM     19  C   UNL     1      -0.021  -0.804   1.352  0.00  0.00    +0.005 A 
ENDBRANCH   1  17
BRANCH   7  20
ATOM     20  C   UNL     1       1.376  -8.664   0.510  0.00  0.00    +0.206 C 
ATOM     21  O   UNL     1       2.259  -8.546  -0.315  0.00  0.00    -0.288 OA
BRANCH  20  22
ATOM     22  C   UNL     1       0.651  -9.879   0.603  0.00  0.00    +0.172 A 
ATOM     23  C   UNL     1       0.857 -10.979  -0.172  0.00  0.00    +0.061 A 
ATOM     24  C   UNL     1      -0.076 -11.959   0.249  0.00  0.00    +0.021 A 
ATOM     25  C   UNL     1      -0.352 -13.271  -0.155  0.00  0.00    +0.011 A 
ATOM     26  C   UNL     1      -1.343 -13.977   0.465  0.00  0.00    +0.001 A 
ATOM     27  C   UNL     1      -2.080 -13.403   1.493  0.00  0.00    +0.004 A 
ATOM     28  C   UNL     1      -1.825 -12.114   1.906  0.00  0.00    +0.047 A 
ATOM     29  C   UNL     1      -0.821 -11.376   1.291  0.00  0.00    +0.136 A 
ATOM     30  O   UNL     1      -0.349 -10.127   1.477  0.00  0.00    -0.452 OA
ENDBRANCH  20  22
ENDBRANCH   7  20
TORSDOF 3
