REMARK  Name = ZINC65386473
REMARK  5 active torsions:
REMARK  status: ('A' for Active; 'I' for Inactive)
REMARK    1  A    between atoms: C_1  and  C_2
REMARK    2  A    between atoms: C_4  and  C_10
REMARK    3  A    between atoms: C_5  and  C_8
REMARK    4  A    between atoms: C_8  and  O_9
REMARK    5  A    between atoms: C_17  and  C_23
REMARK                            x       y       z     vdW  Elec       q    Type
REMARK                         _______ _______ _______ _____ _____    ______ ____
ROOT
ATOM      1  C   UNL     1      -4.233   2.498  -2.290  0.00  0.00    +0.143 A 
ATOM      2  N   UNL     1      -4.945   2.924  -3.301  0.00  0.00    -0.223 NA
ATOM      3  C   UNL     1      -6.246   3.028  -2.923  0.00  0.00    +0.147 A 
ATOM      4  H   UNL     1      -4.804   1.995  -0.344  0.00  0.00    +0.167 HD
ATOM      5  C   UNL     1      -6.322   2.632  -1.623  0.00  0.00    +0.049 A 
ATOM      6  N   UNL     1      -5.064   2.306  -1.226  0.00  0.00    -0.341 N 
ATOM      7  C   UNL     1      -7.538   2.535  -0.756  0.00  0.00    +0.065 C 
ATOM      8  C   UNL     1      -8.578   3.574  -1.080  0.00  0.00    +0.042 C 
ATOM      9  C   UNL     1      -9.319   3.309  -2.362  0.00  0.00    +0.113 C 
ATOM     10  N   UNL     1      -8.588   3.646  -3.554  0.00  0.00    -0.309 N 
ATOM     11  C   UNL     1      -7.308   3.503  -3.807  0.00  0.00    +0.264 C 
ATOM     12  O   UNL     1      -6.958   3.807  -4.932  0.00  0.00    -0.268 OA
ATOM     13  H   UNL     1      -9.115   4.034  -4.271  0.00  0.00    +0.149 HD
ENDROOT
BRANCH   1  17
ATOM     14  C   UNL     1      -0.013   1.086   0.008  0.00  0.00    +0.067 C 
ATOM     15  C   UNL     1      -0.742   1.585  -1.213  0.00  0.00    +0.061 A 
ATOM     16  C   UNL     1      -2.110   1.794  -1.155  0.00  0.00    +0.209 A 
ATOM     17  C   UNL     1      -2.774   2.260  -2.301  0.00  0.00    +0.072 A 
ATOM     18  C   UNL     1      -2.016   2.492  -3.453  0.00  0.00    +0.008 A 
ATOM     19  C   UNL     1      -0.657   2.256  -3.420  0.00  0.00    +0.089 A 
ATOM     20  N   UNL     1      -0.068   1.823  -2.321  0.00  0.00    -0.361 N 
ATOM     21  O   UNL     1      -2.798   1.552  -0.009  0.00  0.00    -0.285 OA
ATOM     22  H   UNL     1       0.889   1.670  -2.331  0.00  0.00    +0.165 HD
BRANCH  18  23
ATOM     23  C   UNL     1      -2.674   2.991  -4.713  0.00  0.00    +0.193 C 
BRANCH  23  24
ATOM     24  O   UNL     1      -1.688   3.145  -5.737  0.00  0.00    -0.390 OA
ATOM     25  H   UNL     1      -2.042   3.465  -6.578  0.00  0.00    +0.210 HD
ENDBRANCH  23  24
ENDBRANCH  18  23
ENDBRANCH   1  17
BRANCH   8  26
ATOM     26  C   UNL     1      -9.576   3.624   0.048  0.00  0.00    -0.042 A 
ATOM     27  C   UNL     1     -10.300   2.494   0.381  0.00  0.00    +0.007 A 
ATOM     28  C   UNL     1     -11.215   2.539   1.416  0.00  0.00    +0.038 A 
ATOM     29  C   UNL     1     -11.407   3.716   2.119  0.00  0.00    +0.123 A 
ATOM     30  C   UNL     1     -10.682   4.847   1.784  0.00  0.00    +0.038 A 
ATOM     31  C   UNL     1      -9.763   4.799   0.753  0.00  0.00    +0.007 A 
ATOM     32  F   UNL     1     -12.302   3.761   3.130  0.00  0.00    -0.205 F 
ENDBRANCH   8  26
TORSDOF 4
