REMARK  Name = ZINC11286489
REMARK  6 active torsions:
REMARK  status: ('A' for Active; 'I' for Inactive)
REMARK    1  A    between atoms: C_1  and  C_2
REMARK    2  A    between atoms: C_5  and  C_8
REMARK    3  A    between atoms: C_8  and  C_30
REMARK    4  A    between atoms: N_11  and  C_15
REMARK    5  A    between atoms: C_15  and  C_16
REMARK    6  A    between atoms: C_27  and  C_29
REMARK                            x       y       z     vdW  Elec       q    Type
REMARK                         _______ _______ _______ _____ _____    ______ ____
ROOT
ATOM      1  C   UNL     1      -1.153  -4.924   4.385  0.00  0.00    +0.135 C 
ATOM      2  C   UNL     1      -0.928  -3.437   4.192  0.00  0.00    +0.251 C 
ATOM      3  O   UNL     1      -1.634  -2.533   4.586  0.00  0.00    -0.272 OA
ATOM      4  N   UNL     1       0.217  -3.330   3.490  0.00  0.00    -0.215 N 
ATOM      5  C   UNL     1       0.746  -4.529   3.222  0.00  0.00    +0.310 C 
ATOM      6  O   UNL     1       1.781  -4.688   2.605  0.00  0.00    -0.252 OA
ATOM      7  N   UNL     1       0.005  -5.539   3.713  0.00  0.00    -0.281 N 
ATOM      8  C   UNL     1      -2.458  -5.369   3.724  0.00  0.00    +0.047 C 
ATOM      9  H   UNL     1       0.196  -6.487   3.639  0.00  0.00    +0.152 HD
ENDROOT
BRANCH   1  14
ATOM     10  C   UNL     1      -1.176  -6.247  10.010  0.00  0.00    +0.044 C 
ATOM     11  C   UNL     1      -1.169  -5.902   8.543  0.00  0.00    -0.050 A 
ATOM     12  C   UNL     1      -0.652  -6.796   7.625  0.00  0.00    +0.004 A 
ATOM     13  C   UNL     1      -0.646  -6.480   6.279  0.00  0.00    +0.006 A 
ATOM     14  C   UNL     1      -1.159  -5.269   5.852  0.00  0.00    -0.015 A 
ATOM     15  C   UNL     1      -1.671  -4.372   6.771  0.00  0.00    +0.006 A 
ATOM     16  C   UNL     1      -1.681  -4.691   8.116  0.00  0.00    +0.004 A 
ENDBRANCH   1  14
BRANCH   4  17
ATOM     17  C   UNL     1       0.813  -2.057   3.077  0.00  0.00    +0.214 C 
BRANCH  17  18
ATOM     18  C   UNL     1       0.284  -1.671   1.720  0.00  0.00    +0.238 C 
ATOM     19  O   UNL     1      -0.351  -2.472   1.067  0.00  0.00    -0.273 OA
ATOM     20  N   UNL     1       0.516  -0.437   1.231  0.00  0.00    -0.267 N 
ATOM     21  C   UNL     1      -0.161   0.017   0.091  0.00  0.00    +0.040 A 
ATOM     22  C   UNL     1      -1.267  -0.690  -0.366  0.00  0.00    +0.024 A 
ATOM     23  C   UNL     1      -1.945  -0.261  -1.490  0.00  0.00    +0.002 A 
ATOM     24  C   UNL     1      -1.522   0.873  -2.159  0.00  0.00    +0.000 A 
ATOM     25  C   UNL     1      -0.424   1.577  -1.706  0.00  0.00    +0.005 A 
ATOM     26  C   UNL     1       0.260   1.155  -0.578  0.00  0.00    -0.026 A 
ATOM     27  C   UNL     1       1.447   1.952  -0.105  0.00  0.00    +0.039 C 
ATOM     28  C   UNL     1       2.344   1.098   0.790  0.00  0.00    +0.027 C 
ATOM     29  C   UNL     1       1.483   0.455   1.886  0.00  0.00    +0.079 C 
ATOM     30  C   UNL     1       2.370  -0.350   2.837  0.00  0.00    +0.028 C 
ENDBRANCH  17  18
ENDBRANCH   4  17
TORSDOF 3
