REMARK  Name = ZINC38776666
REMARK  13 active torsions:
REMARK  status: ('A' for Active; 'I' for Inactive)
REMARK    1  A    between atoms: C_1  and  C_2
REMARK    2  A    between atoms: C_2  and  O_3
REMARK    3  A    between atoms: O_3  and  C_4
REMARK    4  A    between atoms: C_6  and  C_16
REMARK    5  A    between atoms: C_8  and  O_13
REMARK    6  A    between atoms: C_9  and  O_10
REMARK    7  A    between atoms: O_10  and  C_11
REMARK    8  A    between atoms: C_11  and  C_12
REMARK    9  A    between atoms: O_13  and  C_14
REMARK   10  A    between atoms: C_14  and  C_15
REMARK   11  A    between atoms: N_18  and  C_19
REMARK   12  A    between atoms: C_19  and  C_21
REMARK   13  A    between atoms: C_19  and  C_22
REMARK                            x       y       z     vdW  Elec       q    Type
REMARK                         _______ _______ _______ _____ _____    ______ ____
ROOT
ATOM      1  C   UNL     1       1.638  -7.164  -0.036  0.00  0.00    +0.156 C 
ATOM      2  C   UNL     1       1.934  -7.362   1.452  0.00  0.00    +0.038 C 
ENDROOT
BRANCH   1   3
ATOM      3  C   UNL     1       1.216  -8.476  -0.643  0.00  0.00    +0.236 C 
ATOM      4  O   UNL     1       0.038  -8.734  -0.774  0.00  0.00    -0.274 OA
ATOM      5  N   UNL     1       2.148  -9.365  -1.042  0.00  0.00    -0.300 N 
ATOM      6  C   UNL     1       3.574  -9.120  -0.786  0.00  0.00    +0.106 C 
ATOM      7  C   UNL     1       4.337  -9.225  -2.110  0.00  0.00    +0.009 C 
ATOM      8  C   UNL     1       4.037 -10.575  -2.763  0.00  0.00    -0.037 C 
ATOM      9  C   UNL     1       2.541 -10.687  -3.056  0.00  0.00    +0.009 C 
ATOM     10  C   UNL     1       1.757 -10.599  -1.737  0.00  0.00    +0.106 C 
ATOM     11  C   UNL     1       4.829 -10.703  -4.065  0.00  0.00    +0.140 C 
ATOM     12  C   UNL     1       6.298 -10.715  -3.654  0.00  0.00    +0.042 C 
ATOM     13  N   UNL     1       6.853  -9.764  -4.298  0.00  0.00    -0.243 NA
ATOM     14  C   UNL     1       5.950  -9.051  -5.015  0.00  0.00    +0.216 C 
ATOM     15  N   UNL     1       4.724  -9.519  -4.918  0.00  0.00    -0.264 NA
ATOM     16  C   UNL     1       6.807 -11.645  -2.582  0.00  0.00    +0.034 C 
ATOM     17  C   UNL     1       5.829 -11.506  -1.401  0.00  0.00    -0.076 C 
ATOM     18  N   UNL     1       4.447 -11.661  -1.861  0.00  0.00    +0.385 N 
ATOM     19  H   UNL     1       3.834 -11.670  -1.060  0.00  0.00    -0.085 HD
ATOM     20  H   UNL     1       4.361 -12.541  -2.348  0.00  0.00    -0.085 HD
ENDBRANCH   1   3
BRANCH   1  23
ATOM     21  C   UNL     1       0.844  -4.866  -0.206  0.00  0.00    +0.245 C 
ATOM     22  O   UNL     1       1.994  -4.491  -0.087  0.00  0.00    -0.270 OA
ATOM     23  N   UNL     1       0.560  -6.184  -0.193  0.00  0.00    -0.300 N 
ATOM     24  H   UNL     1      -0.357  -6.484  -0.287  0.00  0.00    +0.150 HD
BRANCH  21  27
ATOM     25  C   UNL     1      -0.969  -1.591  -0.526  0.00  0.00    +0.166 A 
ATOM     26  C   UNL     1       0.050  -2.513  -0.377  0.00  0.00    +0.062 A 
ATOM     27  C   UNL     1      -0.242  -3.879  -0.364  0.00  0.00    +0.044 A 
ATOM     28  C   UNL     1      -1.564  -4.309  -0.501  0.00  0.00    +0.062 A 
ATOM     29  C   UNL     1      -2.580  -3.383  -0.649  0.00  0.00    +0.166 A 
ATOM     30  C   UNL     1      -2.286  -2.022  -0.657  0.00  0.00    +0.204 A 
BRANCH  25  31
ATOM     31  O   UNL     1      -0.684  -0.261  -0.539  0.00  0.00    -0.488 OA
BRANCH  31  33
ATOM     32  C   UNL     1       0.810   1.635  -0.437  0.00  0.00    +0.048 C 
ATOM     33  C   UNL     1       0.688   0.111  -0.400  0.00  0.00    +0.226 C 
ENDBRANCH  31  33
ENDBRANCH  25  31
BRANCH  30  34
ATOM     34  O   UNL     1      -3.286  -1.113  -0.798  0.00  0.00    -0.485 OA
BRANCH  34  35
ATOM     35  C   UNL     1      -3.624  -0.722  -2.130  0.00  0.00    +0.226 C 
ATOM     36  C   UNL     1      -4.763   0.299  -2.088  0.00  0.00    +0.048 C 
ENDBRANCH  34  35
ENDBRANCH  30  34
BRANCH  29  37
ATOM     37  O   UNL     1      -3.867  -3.801  -0.783  0.00  0.00    -0.488 OA
BRANCH  37  38
ATOM     38  C   UNL     1      -4.096  -5.212  -0.761  0.00  0.00    +0.226 C 
ATOM     39  C   UNL     1      -5.593  -5.487  -0.924  0.00  0.00    +0.048 C 
ENDBRANCH  37  38
ENDBRANCH  29  37
ENDBRANCH  21  27
ENDBRANCH   1  23
TORSDOF 9
