REMARK  Name = ZINC13012513
REMARK  3 active torsions:
REMARK  status: ('A' for Active; 'I' for Inactive)
REMARK    1  A    between atoms: C_3  and  C_6
REMARK    2  A    between atoms: C_13  and  C_15
REMARK    3  A    between atoms: N_17  and  C_18
REMARK                            x       y       z     vdW  Elec       q    Type
REMARK                         _______ _______ _______ _____ _____    ______ ____
ROOT
ATOM      1  C   UNL     1      -4.204   0.881   0.323  0.00  0.00    +0.238 C 
ATOM      2  O   UNL     1      -4.256  -0.116  -0.366  0.00  0.00    -0.273 OA
ATOM      3  N   UNL     1      -5.256   1.225   1.091  0.00  0.00    -0.284 N 
ATOM      4  H   UNL     1      -5.246   2.063   1.580  0.00  0.00    +0.155 HD
ENDROOT
BRANCH   3   5
ATOM      5  C   UNL     1      -6.364   0.372   1.185  0.00  0.00    +0.037 A 
ATOM      6  C   UNL     1      -6.204  -0.995   1.007  0.00  0.00    +0.027 A 
ATOM      7  C   UNL     1      -7.295  -1.837   1.099  0.00  0.00    +0.051 A 
ATOM      8  C   UNL     1      -8.552  -1.320   1.369  0.00  0.00    +0.173 A 
ATOM      9  C   UNL     1      -8.715   0.051   1.547  0.00  0.00    +0.174 A 
ATOM     10  C   UNL     1      -7.620   0.894   1.460  0.00  0.00    +0.073 A 
ATOM     11  O   UNL     1     -10.033   0.305   1.799  0.00  0.00    -0.395 OA
ATOM     12  C   UNL     1     -10.603  -0.962   2.177  0.00  0.00    +0.589 C 
ATOM     13  O   UNL     1      -9.768  -1.926   1.509  0.00  0.00    -0.395 OA
ATOM     14  F   UNL     1     -10.540  -1.135   3.564  0.00  0.00    -0.125 F 
ATOM     15  F   UNL     1     -11.925  -1.059   1.731  0.00  0.00    -0.125 F 
ENDBRANCH   3   5
BRANCH   1  23
ATOM     16  C   UNL     1      -3.615   2.031  -2.023  0.00  0.00    +0.254 C 
ATOM     17  O   UNL     1      -4.583   1.322  -1.822  0.00  0.00    -0.269 OA
ATOM     18  N   UNL     1      -2.717   2.242  -1.040  0.00  0.00    -0.286 N 
ATOM     19  C   UNL     1      -1.476   2.982  -1.304  0.00  0.00    +0.109 C 
ATOM     20  C   UNL     1      -0.287   2.130  -0.847  0.00  0.00    +0.019 C 
ATOM     21  C   UNL     1      -0.482   1.734   0.619  0.00  0.00    +0.004 C 
ATOM     22  C   UNL     1      -1.757   0.899   0.757  0.00  0.00    +0.032 C 
ATOM     23  C   UNL     1      -2.963   1.736   0.318  0.00  0.00    +0.162 C 
BRANCH  16  26
ATOM     24  C   UNL     1      -3.890   3.446  -5.503  0.00  0.00    +0.008 A 
ATOM     25  C   UNL     1      -4.334   2.811  -4.370  0.00  0.00    +0.021 A 
ATOM     26  C   UNL     1      -3.424   2.656  -3.335  0.00  0.00    +0.074 A 
ATOM     27  S   UNL     1      -1.959   3.410  -4.019  0.00  0.00    -0.092 S 
ATOM     28  C   UNL     1      -2.601   3.874  -5.561  0.00  0.00    +0.046 A 
ENDBRANCH  16  26
ENDBRANCH   1  23
TORSDOF 3
