REMARK  Name = ZINC39449879
REMARK  3 active torsions:
REMARK  status: ('A' for Active; 'I' for Inactive)
REMARK    1  A    between atoms: C_1  and  S_2
REMARK    2  A    between atoms: S_2  and  C_3
REMARK    3  A    between atoms: N_19  and  C_20
REMARK                            x       y       z     vdW  Elec       q    Type
REMARK                         _______ _______ _______ _____ _____    ______ ____
ROOT
ATOM      1  C   UNL     1       0.873  -0.423  -1.533  0.00  0.00    +0.136 C 
ATOM      2  C   UNL     1       1.913  -1.515  -1.256  0.00  0.00    +0.114 C 
ATOM      3  C   UNL     1       3.017  -0.949  -0.403  0.00  0.00    +0.184 C 
ATOM      4  O   UNL     1       3.619  -1.676   0.362  0.00  0.00    -0.290 OA
ATOM      5  C   UNL     1       3.360   0.420  -0.483  0.00  0.00    +0.115 A 
ATOM      6  C   UNL     1       2.638   1.261  -1.310  0.00  0.00    +0.082 A 
ATOM      7  C   UNL     1       3.000   2.682  -1.399  0.00  0.00    +0.099 A 
ATOM      8  C   UNL     1       4.081   3.145  -0.618  0.00  0.00    +0.070 A 
ATOM      9  C   UNL     1       4.443   4.491  -0.685  0.00  0.00    +0.055 A 
ATOM     10  C   UNL     1       3.715   5.319  -1.526  0.00  0.00    +0.142 A 
ATOM     11  C   UNL     1       2.662   4.791  -2.265  0.00  0.00    +0.149 A 
ATOM     12  N   UNL     1       2.337   3.519  -2.188  0.00  0.00    -0.250 NA
ATOM     13  F   UNL     1       4.026   6.630  -1.625  0.00  0.00    -0.204 F 
ATOM     14  C   UNL     1       4.795   2.193   0.244  0.00  0.00    +0.266 A 
ATOM     15  O   UNL     1       5.728   2.573   0.927  0.00  0.00    -0.267 OA
ATOM     16  N   UNL     1       4.418   0.902   0.278  0.00  0.00    -0.268 N 
ATOM     17  N   UNL     1       1.577   0.764  -2.044  0.00  0.00    -0.328 N 
ATOM     18  H   UNL     1       1.304   1.186  -2.873  0.00  0.00    +0.147 HD
ENDROOT
BRANCH  16  19
ATOM     19  C   UNL     1       5.113   0.016   1.110  0.00  0.00    +0.097 A 
ATOM     20  C   UNL     1       6.221  -0.667   0.627  0.00  0.00    +0.030 A 
ATOM     21  C   UNL     1       6.905  -1.541   1.450  0.00  0.00    +0.002 A 
ATOM     22  C   UNL     1       6.489  -1.738   2.754  0.00  0.00    +0.004 A 
ATOM     23  C   UNL     1       5.386  -1.062   3.242  0.00  0.00    +0.053 A 
ATOM     24  C   UNL     1       4.698  -0.179   2.426  0.00  0.00    +0.203 A 
ATOM     25  O   UNL     1       3.617   0.491   2.906  0.00  0.00    -0.286 OA
ENDBRANCH  16  19
BRANCH   1  27
ATOM     26  C   UNL     1      -0.022   1.810   0.012  0.00  0.00    +0.086 C 
ATOM     27  S   UNL     1       0.002  -0.004   0.002  0.00  0.00    -0.142 S 
ENDBRANCH   1  27
TORSDOF 2
