REMARK  Name = ZINC16923119
REMARK  6 active torsions:
REMARK  status: ('A' for Active; 'I' for Inactive)
REMARK    1  A    between atoms: C_1  and  C_2
REMARK    2  A    between atoms: C_6  and  N_8
REMARK    3  A    between atoms: C_11  and  C_16
REMARK    4  A    between atoms: C_16  and  C_17
REMARK    5  A    between atoms: N_19  and  C_20
REMARK    6  A    between atoms: C_25  and  C_26
REMARK                            x       y       z     vdW  Elec       q    Type
REMARK                         _______ _______ _______ _____ _____    ______ ____
ROOT
ATOM      1  N   UNL     1      -5.575  -5.055   0.320  0.00  0.00    -0.200 N 
ATOM      2  C   UNL     1      -5.081  -4.466  -0.757  0.00  0.00    +0.241 C 
ATOM      3  O   UNL     1      -4.662  -5.095  -1.706  0.00  0.00    -0.274 OA
ATOM      4  C   UNL     1      -5.074  -2.945  -0.723  0.00  0.00    +0.151 C 
ATOM      5  S   UNL     1      -5.819  -2.663   0.933  0.00  0.00    -0.054 S 
ATOM      6  C   UNL     1      -6.046  -4.377   1.383  0.00  0.00    +0.286 C 
ATOM      7  O   UNL     1      -6.516  -4.826   2.411  0.00  0.00    -0.262 OA
ENDROOT
BRANCH   1  13
ATOM      8  C   UNL     1      -8.184  -9.224   0.332  0.00  0.00    +0.044 C 
ATOM      9  C   UNL     1      -6.862  -8.501   0.362  0.00  0.00    -0.049 A 
ATOM     10  C   UNL     1      -5.683  -9.221   0.424  0.00  0.00    +0.003 A 
ATOM     11  C   UNL     1      -4.468  -8.561   0.451  0.00  0.00    +0.002 A 
ATOM     12  C   UNL     1      -4.429  -7.181   0.417  0.00  0.00    +0.024 A 
ATOM     13  C   UNL     1      -5.612  -6.456   0.355  0.00  0.00    +0.045 A 
ATOM     14  C   UNL     1      -6.830  -7.121   0.334  0.00  0.00    +0.027 A 
ENDBRANCH   1  13
BRANCH   4  15
ATOM     15  C   UNL     1      -3.649  -2.393  -0.794  0.00  0.00    +0.120 C 
BRANCH  15  16
ATOM     16  C   UNL     1      -3.693  -0.886  -0.781  0.00  0.00    +0.219 C 
ATOM     17  O   UNL     1      -4.759  -0.311  -0.721  0.00  0.00    -0.275 OA
ATOM     18  N   UNL     1      -2.547  -0.179  -0.836  0.00  0.00    -0.285 N 
ATOM     19  H   UNL     1      -1.701  -0.635  -0.964  0.00  0.00    +0.155 HD
BRANCH  18  20
ATOM     20  C   UNL     1      -2.579   1.208  -0.710  0.00  0.00    +0.048 A 
ATOM     21  C   UNL     1      -3.558   1.946  -1.360  0.00  0.00    +0.024 A 
ATOM     22  C   UNL     1      -3.588   3.320  -1.232  0.00  0.00    +0.002 A 
ATOM     23  C   UNL     1      -2.643   3.973  -0.457  0.00  0.00    +0.001 A 
ATOM     24  C   UNL     1      -1.666   3.257   0.200  0.00  0.00    +0.017 A 
ATOM     25  C   UNL     1      -1.620   1.866   0.076  0.00  0.00    +0.084 A 
BRANCH  25  26
ATOM     26  C   UNL     1      -0.575   1.094   0.772  0.00  0.00    +0.388 C 
ATOM     27  O   UNL     1      -0.544  -0.116   0.670  0.00  0.00    -0.241 OA
ATOM     28  O   UNL     1       0.349   1.731   1.518  0.00  0.00    -0.241 OA
ENDBRANCH  25  26
ENDBRANCH  18  20
ENDBRANCH  15  16
ENDBRANCH   4  15
TORSDOF 5
