REMARK  Name = ZINC38906041
REMARK  5 active torsions:
REMARK  status: ('A' for Active; 'I' for Inactive)
REMARK    1  A    between atoms: C_1  and  C_2
REMARK    2  A    between atoms: C_2  and  C_3
REMARK    3  A    between atoms: C_2  and  C_4
REMARK    4  A    between atoms: C_2  and  C_5
REMARK    5  A    between atoms: C_8  and  C_11
REMARK                            x       y       z     vdW  Elec       q    Type
REMARK                         _______ _______ _______ _____ _____    ______ ____
ROOT
ATOM      1  C   UNL     1       2.696  -1.861  -4.733  0.00  0.00    +0.162 C 
ATOM      2  N   UNL     1       2.034  -2.613  -5.589  0.00  0.00    -0.212 NA
ATOM      3  C   UNL     1       2.577  -3.007  -6.748  0.00  0.00    +0.144 C 
ATOM      4  N   UNL     1       1.941  -3.853  -7.505  0.00  0.00    -0.285 NA
ATOM      5  C   UNL     1       3.910  -2.481  -7.182  0.00  0.00    +0.214 C 
ATOM      6  C   UNL     1       4.617  -1.831  -6.013  0.00  0.00    +0.076 C 
ATOM      7  N   UNL     1       3.977  -1.509  -4.931  0.00  0.00    -0.230 NA
ATOM      8  C   UNL     1       6.070  -1.657  -6.142  0.00  0.00    +0.040 A 
ATOM      9  C   UNL     1       6.764  -0.763  -5.323  0.00  0.00    +0.013 A 
ATOM     10  C   UNL     1       8.129  -0.633  -5.460  0.00  0.00    +0.001 A 
ATOM     11  C   UNL     1       8.809  -1.386  -6.405  0.00  0.00    +0.004 A 
ATOM     12  C   UNL     1       8.133  -2.268  -7.224  0.00  0.00    +0.047 A 
ATOM     13  C   UNL     1       6.758  -2.412  -7.111  0.00  0.00    +0.141 A 
ATOM     14  O   UNL     1       6.101  -3.260  -7.941  0.00  0.00    -0.424 OA
ATOM     15  C   UNL     1       4.818  -3.587  -7.671  0.00  0.00    +0.329 C 
ATOM     16  O   UNL     1       4.413  -4.716  -7.815  0.00  0.00    -0.249 OA
ATOM     17  H   UNL     1       1.077  -4.196  -7.228  0.00  0.00    +0.188 HD
ENDROOT
BRANCH   1  21
ATOM     18  C   UNL     1       0.707  -0.490  -1.238  0.00  0.00    -0.042 A 
ATOM     19  C   UNL     1       0.033  -1.285  -2.147  0.00  0.00    +0.005 A 
ATOM     20  C   UNL     1       0.672  -1.733  -3.284  0.00  0.00    +0.012 A 
ATOM     21  C   UNL     1       2.004  -1.383  -3.516  0.00  0.00    +0.019 A 
ATOM     22  C   UNL     1       2.679  -0.581  -2.595  0.00  0.00    +0.012 A 
ATOM     23  C   UNL     1       2.026  -0.135  -1.464  0.00  0.00    +0.005 A 
BRANCH  18  25
ATOM     24  C   UNL     1      -0.019   1.526   0.010  0.00  0.00    +0.015 C 
ATOM     25  C   UNL     1       0.002  -0.004   0.002  0.00  0.00    -0.013 C 
ATOM     26  C   UNL     1       0.742  -0.511   1.242  0.00  0.00    +0.015 C 
ATOM     27  C   UNL     1      -1.433  -0.534   0.013  0.00  0.00    +0.015 C 
ENDBRANCH  18  25
ENDBRANCH   1  21
TORSDOF 2
