REMARK  Name = ZINC09012960
REMARK  7 active torsions:
REMARK  status: ('A' for Active; 'I' for Inactive)
REMARK    1  A    between atoms: C_1  and  C_2
REMARK    2  A    between atoms: C_2  and  C_3
REMARK    3  A    between atoms: C_2  and  C_4
REMARK    4  A    between atoms: C_2  and  C_5
REMARK    5  A    between atoms: C_5  and  C_7
REMARK    6  A    between atoms: C_9  and  C_31
REMARK    7  A    between atoms: C_31  and  C_33
REMARK                            x       y       z     vdW  Elec       q    Type
REMARK                         _______ _______ _______ _____ _____    ______ ____
ROOT
ATOM      1  C   UNL     1      -4.937   0.850  -1.239  0.00  0.00    +0.136 C 
ATOM      2  C   UNL     1      -4.058  -0.337  -1.702  0.00  0.00    +0.108 C 
ATOM      3  C   UNL     1      -2.828  -0.289  -0.780  0.00  0.00    +0.107 C 
ATOM      4  C   UNL     1      -1.551  -0.493  -1.518  0.00  0.00    -0.008 A 
ATOM      5  C   UNL     1      -0.861   0.282  -2.427  0.00  0.00    +0.006 A 
ATOM      6  C   UNL     1       0.316  -0.236  -2.954  0.00  0.00    +0.000 A 
ATOM      7  C   UNL     1       0.788  -1.475  -2.575  0.00  0.00    +0.002 A 
ATOM      8  C   UNL     1       0.131  -2.248  -1.631  0.00  0.00    +0.023 A 
ATOM      9  C   UNL     1      -1.046  -1.732  -1.088  0.00  0.00    +0.038 A 
ATOM     10  N   UNL     1      -1.876  -2.280  -0.125  0.00  0.00    -0.284 N 
ATOM     11  C   UNL     1      -2.895  -1.456   0.188  0.00  0.00    +0.231 C 
ATOM     12  O   UNL     1      -3.709  -1.607   1.072  0.00  0.00    -0.274 OA
ATOM     13  C   UNL     1      -2.906   1.031  -0.020  0.00  0.00    +0.107 C 
ATOM     14  C   UNL     1      -4.140   3.178  -0.568  0.00  0.00    +0.054 C 
ATOM     15  C   UNL     1      -3.014   3.901  -0.453  0.00  0.00    +0.022 C 
ATOM     16  C   UNL     1      -1.712   3.216  -0.341  0.00  0.00    -0.019 A 
ATOM     17  C   UNL     1      -1.643   1.840  -0.094  0.00  0.00    -0.020 A 
ATOM     18  C   UNL     1      -0.413   1.245   0.085  0.00  0.00    +0.006 A 
ATOM     19  C   UNL     1       0.751   1.982  -0.045  0.00  0.00    +0.000 A 
ATOM     20  C   UNL     1       0.687   3.336  -0.329  0.00  0.00    +0.001 A 
ATOM     21  C   UNL     1      -0.535   3.958  -0.466  0.00  0.00    +0.008 A 
ATOM     22  H   UNL     1      -1.744  -3.156   0.272  0.00  0.00    +0.155 HD
ATOM     23  N   UNL     1      -3.795   1.736  -0.908  0.00  0.00    -0.384 NA
ATOM     24  H   UNL     1      -3.264   1.819  -1.783  0.00  0.00    +0.127 HD
ENDROOT
BRANCH   1  25
ATOM     25  C   UNL     1      -5.977   0.400  -0.245  0.00  0.00    +0.158 C 
ATOM     26  O   UNL     1      -5.747   0.461   0.939  0.00  0.00    -0.295 OA
BRANCH  25  28
ATOM     27  C   UNL     1      -8.204  -0.423   0.472  0.00  0.00    +0.018 C 
ATOM     28  C   UNL     1      -7.304  -0.127  -0.729  0.00  0.00    +0.022 C 
ATOM     29  C   UNL     1      -7.973   0.920  -1.621  0.00  0.00    +0.018 C 
ATOM     30  C   UNL     1      -7.081  -1.412  -1.529  0.00  0.00    +0.018 C 
ENDBRANCH  25  28
ENDBRANCH   1  25
BRANCH   2  31
ATOM     31  C   UNL     1      -3.694  -0.204  -3.159  0.00  0.00    +0.176 C 
ATOM     32  O   UNL     1      -3.609   0.897  -3.666  0.00  0.00    -0.291 OA
BRANCH  31  33
ATOM     33  C   UNL     1      -3.452  -1.359  -3.935  0.00  0.00    +0.055 A 
ATOM     34  C   UNL     1      -3.007  -1.455  -5.250  0.00  0.00    +0.019 A 
ATOM     35  C   UNL     1      -2.851  -2.716  -5.763  0.00  0.00    +0.008 A 
ATOM     36  C   UNL     1      -3.144  -3.792  -4.984  0.00  0.00    +0.046 A 
ATOM     37  S   UNL     1      -3.645  -3.075  -3.487  0.00  0.00    -0.094 S 
ENDBRANCH  31  33
ENDBRANCH   2  31
TORSDOF 4
