REMARK  Name = ZINC39664938
REMARK  10 active torsions:
REMARK  status: ('A' for Active; 'I' for Inactive)
REMARK    1  A    between atoms: C_1  and  C_2
REMARK    2  A    between atoms: C_4  and  C_8
REMARK    3  A    between atoms: N_6  and  C_7
REMARK    4  A    between atoms: C_12  and  C_21
REMARK    5  A    between atoms: N_23  and  C_24
REMARK    6  A    between atoms: C_24  and  C_26
REMARK    7  A    between atoms: C_24  and  C_30
REMARK    8  A    between atoms: C_26  and  N_27
REMARK    9  A    between atoms: N_27  and  C_28
REMARK   10  A    between atoms: N_27  and  C_29
REMARK                            x       y       z     vdW  Elec       q    Type
REMARK                         _______ _______ _______ _____ _____    ______ ____
ROOT
ATOM      1  C   UNL     1       0.849  -2.834  -0.874  0.00  0.00    +0.267 C 
ATOM      2  O   UNL     1       0.969  -2.680  -2.074  0.00  0.00    -0.268 OA
ATOM      3  N   UNL     1       0.769  -4.077  -0.358  0.00  0.00    -0.295 N 
ATOM      4  C   UNL     1       0.616  -4.462   1.064  0.00  0.00    +0.121 C 
ATOM      5  C   UNL     1      -0.362  -5.658   1.042  0.00  0.00    +0.100 C 
ATOM      6  C   UNL     1      -0.227  -6.249  -0.371  0.00  0.00    -0.004 C 
ATOM      7  C   UNL     1       0.806  -5.367  -1.088  0.00  0.00    +0.115 C 
ATOM      8  C   UNL     1      -1.565  -6.183  -1.102  0.00  0.00    -0.010 C 
ATOM      9  C   UNL     1      -1.419  -6.828  -2.483  0.00  0.00    -0.082 C 
ATOM     10  N   UNL     1      -0.990  -8.223  -2.331  0.00  0.00    +0.379 N 
ATOM     11  C   UNL     1       0.340  -8.274  -1.711  0.00  0.00    -0.082 C 
ATOM     12  C   UNL     1       0.269  -7.690  -0.297  0.00  0.00    -0.010 C 
ATOM     13  H   UNL     1      -1.650  -8.715  -1.748  0.00  0.00    -0.086 HD
ATOM     14  H   UNL     1      -0.953  -8.664  -3.238  0.00  0.00    -0.086 HD
ENDROOT
BRANCH   1  18
ATOM     15  C   UNL     1       0.798   1.912   0.903  0.00  0.00    +0.065 C 
ATOM     16  C   UNL     1       0.772   0.411   0.777  0.00  0.00    +0.037 A 
ATOM     17  C   UNL     1       0.865  -0.300  -0.370  0.00  0.00    +0.057 A 
ATOM     18  C   UNL     1       0.793  -1.659   0.019  0.00  0.00    +0.147 A 
ATOM     19  N   UNL     1       0.666  -1.676   1.331  0.00  0.00    -0.167 NA
ATOM     20  N   UNL     1       0.657  -0.476   1.789  0.00  0.00    -0.271 N 
ATOM     21  C   UNL     1       0.535  -0.120   3.205  0.00  0.00    +0.172 C 
ENDBRANCH   1  18
BRANCH   5  22
ATOM     22  C   UNL     1       0.033  -6.678   2.079  0.00  0.00    +0.219 C 
ATOM     23  O   UNL     1       1.202  -6.836   2.360  0.00  0.00    -0.275 OA
ATOM     24  N   UNL     1      -0.914  -7.413   2.695  0.00  0.00    -0.310 N 
ATOM     25  H   UNL     1      -1.840  -7.344   2.416  0.00  0.00    +0.149 HD
BRANCH  24  26
ATOM     26  C   UNL     1      -0.544  -8.318   3.787  0.00  0.00    +0.087 C 
BRANCH  26  27
ATOM     27  C   UNL     1      -1.541  -9.445   3.865  0.00  0.00    -0.029 A 
ATOM     28  C   UNL     1      -2.887  -9.192   3.675  0.00  0.00    +0.005 A 
ATOM     29  C   UNL     1      -3.801 -10.225   3.748  0.00  0.00    +0.000 A 
ATOM     30  C   UNL     1      -3.371 -11.513   4.009  0.00  0.00    +0.000 A 
ATOM     31  C   UNL     1      -2.025 -11.766   4.197  0.00  0.00    +0.000 A 
ATOM     32  C   UNL     1      -1.110 -10.733   4.121  0.00  0.00    +0.005 A 
ENDBRANCH  26  27
BRANCH  26  33
ATOM     33  C   UNL     1      -0.540  -7.547   5.108  0.00  0.00    -0.052 C 
BRANCH  33  34
ATOM     34  N   UNL     1      -0.039  -8.417   6.181  0.00  0.00    +0.377 N 
ATOM     35  C   UNL     1       1.376  -8.729   5.939  0.00  0.00    -0.097 C 
ATOM     36  C   UNL     1      -0.175  -7.731   7.472  0.00  0.00    -0.097 C 
ATOM     37  H   UNL     1      -0.574  -9.273   6.197  0.00  0.00    -0.083 HD
ENDBRANCH  33  34
ENDBRANCH  26  33
ENDBRANCH  24  26
ENDBRANCH   5  22
TORSDOF 6
