REMARK  Name = ZINC16904552
REMARK  5 active torsions:
REMARK  status: ('A' for Active; 'I' for Inactive)
REMARK    1  A    between atoms: C_1  and  C_2
REMARK    2  A    between atoms: C_5  and  C_8
REMARK    3  A    between atoms: N_12  and  C_23
REMARK    4  A    between atoms: N_14  and  C_15
REMARK    5  A    between atoms: C_19  and  O_21
REMARK                            x       y       z     vdW  Elec       q    Type
REMARK                         _______ _______ _______ _____ _____    ______ ____
ROOT
ATOM      1  C   UNL     1       4.743   5.252   3.532  0.00  0.00    +0.028 C 
ATOM      2  C   UNL     1       3.583   5.076   2.853  0.00  0.00    +0.078 C 
ATOM      3  C   UNL     1       2.726   6.077   2.185  0.00  0.00    +0.259 C 
ATOM      4  O   UNL     1       3.011   7.260   2.185  0.00  0.00    -0.269 OA
ATOM      5  N   UNL     1       1.638   5.628   1.583  0.00  0.00    -0.249 N 
ATOM      6  C   UNL     1       1.330   4.285   1.599  0.00  0.00    +0.168 C 
ATOM      7  N   UNL     1       0.297   3.677   1.059  0.00  0.00    -0.225 NA
ATOM      8  S   UNL     1       2.679   3.570   2.524  0.00  0.00    -0.049 S 
ATOM      9  C   UNL     1       0.749   6.568   0.895  0.00  0.00    +0.140 C 
ENDROOT
BRANCH   1  14
ATOM     10  C   UNL     1       7.095   0.857   6.392  0.00  0.00    +0.044 C 
ATOM     11  C   UNL     1       6.478   2.009   5.642  0.00  0.00    -0.050 A 
ATOM     12  C   UNL     1       7.182   3.192   5.499  0.00  0.00    +0.004 A 
ATOM     13  C   UNL     1       6.625   4.251   4.814  0.00  0.00    +0.008 A 
ATOM     14  C   UNL     1       5.345   4.128   4.263  0.00  0.00    -0.024 A 
ATOM     15  C   UNL     1       4.638   2.930   4.417  0.00  0.00    +0.008 A 
ATOM     16  C   UNL     1       5.211   1.879   5.100  0.00  0.00    +0.004 A 
ENDBRANCH   1  14
BRANCH   7  17
ATOM     17  C   UNL     1       0.163   2.321   1.177  0.00  0.00    +0.070 A 
ATOM     18  C   UNL     1       1.262   1.486   0.959  0.00  0.00    +0.028 A 
ATOM     19  C   UNL     1       1.123   0.119   1.078  0.00  0.00    +0.006 A 
ATOM     20  C   UNL     1      -0.102  -0.430   1.413  0.00  0.00    +0.045 A 
ATOM     21  C   UNL     1      -1.200   0.392   1.630  0.00  0.00    +0.119 A 
ATOM     22  C   UNL     1      -1.072   1.765   1.514  0.00  0.00    +0.073 A 
BRANCH  21  23
ATOM     23  O   UNL     1      -2.401  -0.153   1.958  0.00  0.00    -0.507 OA
ATOM     24  H   UNL     1      -2.958  -0.364   1.196  0.00  0.00    +0.292 HD
ENDBRANCH  21  23
ENDBRANCH   7  17
TORSDOF 3
