REMARK  Name = ZINC31865561
REMARK  4 active torsions:
REMARK  status: ('A' for Active; 'I' for Inactive)
REMARK    1  A    between atoms: C_1  and  C_2
REMARK    2  A    between atoms: C_8  and  C_26
REMARK    3  A    between atoms: C_12  and  C_13
REMARK    4  A    between atoms: C_23  and  C_25
REMARK                            x       y       z     vdW  Elec       q    Type
REMARK                         _______ _______ _______ _____ _____    ______ ____
ROOT
ATOM      1  C   UNL     1       0.329   1.279  -0.188  0.00  0.00    +0.046 C 
ATOM      2  C   UNL     1       0.061  -0.203  -0.120  0.00  0.00    -0.017 A 
ATOM      3  C   UNL     1      -0.019  -0.954  -1.294  0.00  0.00    +0.076 A 
ATOM      4  C   UNL     1       0.124  -0.511  -2.700  0.00  0.00    +0.260 A 
ATOM      5  O   UNL     1       0.345   0.656  -2.968  0.00  0.00    -0.267 OA
ATOM      6  N   UNL     1       0.004  -1.433  -3.675  0.00  0.00    -0.311 N 
ATOM      7  H   UNL     1       0.096  -1.160  -4.601  0.00  0.00    +0.170 HD
ATOM      8  C   UNL     1      -0.241  -2.736  -3.389  0.00  0.00    +0.108 A 
ATOM      9  N   UNL     1      -0.373  -3.159  -2.161  0.00  0.00    -0.227 NA
ATOM     10  C   UNL     1      -0.273  -2.334  -1.126  0.00  0.00    +0.116 A 
ATOM     11  S   UNL     1      -0.387  -2.516   0.636  0.00  0.00    -0.064 S 
ATOM     12  C   UNL     1      -0.098  -0.814   1.089  0.00  0.00    +0.080 A 
ATOM     13  C   UNL     1      -0.366  -3.723  -4.520  0.00  0.00    +0.086 C 
ENDROOT
BRANCH  12  14
ATOM     14  C   UNL     1      -0.046  -0.220   2.429  0.00  0.00    +0.258 C 
ATOM     15  O   UNL     1       0.032   0.988   2.556  0.00  0.00    -0.269 OA
ATOM     16  N   UNL     1      -0.086  -1.012   3.519  0.00  0.00    -0.264 N 
ATOM     17  C   UNL     1      -0.179  -0.556   4.837  0.00  0.00    +0.040 A 
ATOM     18  C   UNL     1      -0.249   0.753   5.317  0.00  0.00    +0.024 A 
ATOM     19  C   UNL     1      -0.337   0.992   6.672  0.00  0.00    +0.002 A 
ATOM     20  C   UNL     1      -0.356  -0.063   7.566  0.00  0.00    +0.000 A 
ATOM     21  C   UNL     1      -0.287  -1.362   7.097  0.00  0.00    +0.005 A 
ATOM     22  C   UNL     1      -0.199  -1.607   5.740  0.00  0.00    -0.024 A 
ATOM     23  C   UNL     1      -0.111  -2.905   4.970  0.00  0.00    +0.059 C 
ATOM     24  C   UNL     1      -0.043  -2.476   3.495  0.00  0.00    +0.083 C 
ATOM     25  C   UNL     1       1.265  -2.959   2.865  0.00  0.00    +0.029 C 
ENDBRANCH  12  14
TORSDOF 1
