REMARK  Name = ZINC58169290
REMARK  7 active torsions:
REMARK  status: ('A' for Active; 'I' for Inactive)
REMARK    1  A    between atoms: C_1  and  C_2
REMARK    2  A    between atoms: C_3  and  C_23
REMARK    3  A    between atoms: C_7  and  N_16
REMARK    4  A    between atoms: C_9  and  C_11
REMARK    5  A    between atoms: N_16  and  C_17
REMARK    6  A    between atoms: C_17  and  C_19
REMARK    7  A    between atoms: C_17  and  C_20
REMARK                            x       y       z     vdW  Elec       q    Type
REMARK                         _______ _______ _______ _____ _____    ______ ____
ROOT
ATOM      1  C   UNL     1      -0.555   1.486   0.114  0.00  0.00    +0.045 C 
ATOM      2  C   UNL     1      -0.484  -0.019   0.096  0.00  0.00    -0.028 A 
ATOM      3  C   UNL     1      -0.772  -0.699  -1.025  0.00  0.00    -0.008 A 
ATOM      4  S   UNL     1      -0.548  -2.402  -0.548  0.00  0.00    -0.073 S 
ATOM      5  C   UNL     1      -0.074  -2.156   1.143  0.00  0.00    +0.114 A 
ATOM      6  C   UNL     1      -0.097  -0.751   1.289  0.00  0.00    +0.051 A 
ATOM      7  C   UNL     1       0.255  -0.262   2.579  0.00  0.00    +0.132 A 
ATOM      8  N   UNL     1       0.577  -1.120   3.531  0.00  0.00    -0.212 NA
ATOM      9  C   UNL     1       0.583  -2.435   3.324  0.00  0.00    +0.169 A 
ATOM     10  N   UNL     1       0.253  -2.948   2.143  0.00  0.00    -0.219 NA
ATOM     11  C   UNL     1      -1.185  -0.152  -2.367  0.00  0.00    +0.052 C 
ENDROOT
BRANCH   9  12
ATOM     12  C   UNL     1       0.952  -3.341   4.429  0.00  0.00    +0.056 A 
ATOM     13  C   UNL     1       1.029  -4.709   4.435  0.00  0.00    +0.019 A 
ATOM     14  C   UNL     1       1.400  -5.346   5.597  0.00  0.00    +0.008 A 
ATOM     15  C   UNL     1       1.678  -4.602   6.700  0.00  0.00    +0.046 A 
ATOM     16  S   UNL     1       1.423  -2.938   6.104  0.00  0.00    -0.094 S 
ENDBRANCH   9  12
BRANCH   7  17
ATOM     17  N   UNL     1       0.261   1.097   2.833  0.00  0.00    -0.317 N 
ATOM     18  H   UNL     1       0.110   1.727   2.111  0.00  0.00    +0.148 HD
BRANCH  17  19
ATOM     19  C   UNL     1       0.497   1.587   4.194  0.00  0.00    +0.154 C 
ATOM     20  C   UNL     1       2.003   1.682   4.448  0.00  0.00    +0.038 C 
BRANCH  19  21
ATOM     21  C   UNL     1      -0.125   2.951   4.352  0.00  0.00    +0.231 C 
ATOM     22  O   UNL     1      -0.709   3.463   3.420  0.00  0.00    -0.274 OA
ATOM     23  N   UNL     1      -0.034   3.601   5.529  0.00  0.00    -0.328 N 
ATOM     24  H   UNL     1       0.432   3.191   6.274  0.00  0.00    +0.145 HD
ATOM     25  H   UNL     1      -0.435   4.478   5.630  0.00  0.00    +0.145 HD
ENDBRANCH  19  21
ENDBRANCH  17  19
ENDBRANCH   7  17
TORSDOF 4
