REMARK  Name = ZINC65409092
REMARK  3 active torsions:
REMARK  status: ('A' for Active; 'I' for Inactive)
REMARK    1  A    between atoms: C_4  and  N_7
REMARK    2  A    between atoms: C_19  and  C_22
REMARK    3  A    between atoms: C_19  and  O_28
REMARK                            x       y       z     vdW  Elec       q    Type
REMARK                         _______ _______ _______ _____ _____    ______ ____
ROOT
ATOM      1  N   UNL     1       3.620  -0.649  -0.036  0.00  0.00    -0.297 N 
ATOM      2  C   UNL     1       3.773  -2.104   0.053  0.00  0.00    +0.117 C 
ATOM      3  C   UNL     1       5.289  -2.356  -0.007  0.00  0.00    +0.077 C 
ATOM      4  C   UNL     1       5.899  -0.979  -0.130  0.00  0.00    +0.069 A 
ATOM      5  C   UNL     1       4.874  -0.043  -0.146  0.00  0.00    +0.074 A 
ATOM      6  C   UNL     1       5.222   1.304  -0.260  0.00  0.00    +0.139 A 
ATOM      7  N   UNL     1       6.498   1.635  -0.351  0.00  0.00    -0.221 NA
ATOM      8  C   UNL     1       7.446   0.711  -0.336  0.00  0.00    +0.218 A 
ATOM      9  N   UNL     1       7.155  -0.577  -0.220  0.00  0.00    -0.217 NA
ATOM     10  N   UNL     1       8.773   1.099  -0.434  0.00  0.00    -0.299 N 
ATOM     11  C   UNL     1       9.849   0.098  -0.426  0.00  0.00    +0.111 C 
ATOM     12  C   UNL     1      10.858   0.467   0.666  0.00  0.00    +0.058 C 
ATOM     13  C   UNL     1      11.338   1.904   0.447  0.00  0.00    +0.095 C 
ATOM     14  C   UNL     1      10.148   2.861   0.545  0.00  0.00    +0.058 C 
ATOM     15  C   UNL     1       9.131   2.519  -0.554  0.00  0.00    +0.111 C 
ENDROOT
BRANCH   1  19
ATOM     16  C   UNL     1      -0.017   1.378   0.010  0.00  0.00    +0.000 A 
ATOM     17  C   UNL     1       0.757   1.376  -1.136  0.00  0.00    +0.002 A 
ATOM     18  C   UNL     1       1.964   0.705  -1.155  0.00  0.00    +0.023 A 
ATOM     19  C   UNL     1       2.400   0.031  -0.021  0.00  0.00    +0.034 A 
ATOM     20  C   UNL     1       1.620   0.035   1.129  0.00  0.00    +0.023 A 
ATOM     21  C   UNL     1       0.414   0.708   1.141  0.00  0.00    +0.002 A 
ENDBRANCH   1  19
BRANCH  13  22
ATOM     22  C   UNL     1      12.356   2.259   1.499  0.00  0.00    +0.002 A 
ATOM     23  C   UNL     1      13.362   3.173   1.223  0.00  0.00    +0.009 A 
ATOM     24  C   UNL     1      14.277   3.469   2.222  0.00  0.00    +0.020 A 
ATOM     25  C   UNL     1      14.157   2.848   3.451  0.00  0.00    +0.111 A 
ATOM     26  N   UNL     1      13.188   1.983   3.678  0.00  0.00    -0.263 NA
ATOM     27  C   UNL     1      12.297   1.682   2.753  0.00  0.00    +0.117 A 
ENDBRANCH  13  22
BRANCH  13  28
ATOM     28  O   UNL     1      11.933   2.014  -0.848  0.00  0.00    -0.384 OA
ATOM     29  H   UNL     1      12.261   2.900  -1.055  0.00  0.00    +0.211 HD
ENDBRANCH  13  28
TORSDOF 3
