REMARK  Name = ZINC64502626
REMARK  8 active torsions:
REMARK  status: ('A' for Active; 'I' for Inactive)
REMARK    1  A    between atoms: C_4  and  N_7
REMARK    2  A    between atoms: C_8  and  C_10
REMARK    3  A    between atoms: C_14  and  C_17
REMARK    4  A    between atoms: C_22  and  C_25
REMARK    5  A    between atoms: C_25  and  C_26
REMARK    6  A    between atoms: N_28  and  C_29
REMARK    7  A    between atoms: C_29  and  C_30
REMARK    8  A    between atoms: C_30  and  C_31
REMARK                            x       y       z     vdW  Elec       q    Type
REMARK                         _______ _______ _______ _____ _____    ______ ____
ROOT
ATOM      1  C   UNL     1       7.234  -5.361   0.980  0.00  0.00    +0.252 C 
ATOM      2  O   UNL     1       7.443  -5.418  -0.213  0.00  0.00    -0.272 OA
ATOM      3  N   UNL     1       8.205  -5.701   1.851  0.00  0.00    -0.299 N 
ATOM      4  C   UNL     1       7.965  -5.644   3.299  0.00  0.00    +0.108 C 
ATOM      5  C   UNL     1       9.061  -4.791   3.947  0.00  0.00    +0.023 C 
ATOM      6  C   UNL     1      10.432  -5.348   3.559  0.00  0.00    +0.001 C 
ATOM      7  C   UNL     1      10.601  -5.279   2.039  0.00  0.00    +0.023 C 
ATOM      8  C   UNL     1       9.521  -6.143   1.370  0.00  0.00    +0.108 C 
ENDROOT
BRANCH   1  12
ATOM      9  C   UNL     1       4.962  -2.721   0.153  0.00  0.00    +0.273 C 
ATOM     10  N   UNL     1       5.554  -2.587   1.503  0.00  0.00    -0.167 NA
ATOM     11  N   UNL     1       5.968  -3.563   2.099  0.00  0.00    -0.167 NA
ATOM     12  C   UNL     1       5.890  -4.910   1.489  0.00  0.00    +0.273 C 
ATOM     13  S   UNL     1       4.726  -4.554   0.096  0.00  0.00    -0.086 S 
BRANCH   9  15
ATOM     14  N   UNL     1       3.622  -0.651  -0.037  0.00  0.00    -0.283 N 
ATOM     15  C   UNL     1       3.645  -1.995   0.057  0.00  0.00    +0.254 C 
ATOM     16  O   UNL     1       2.606  -2.620   0.064  0.00  0.00    -0.272 OA
ATOM     17  H   UNL     1       4.452  -0.156  -0.121  0.00  0.00    +0.155 HD
BRANCH  14  21
ATOM     18  C   UNL     1      -0.015   1.381   0.029  0.00  0.00    +0.000 A 
ATOM     19  C   UNL     1       0.140   0.218   0.763  0.00  0.00    +0.002 A 
ATOM     20  C   UNL     1       1.344  -0.457   0.743  0.00  0.00    +0.023 A 
ATOM     21  C   UNL     1       2.400   0.031  -0.015  0.00  0.00    +0.033 A 
ATOM     22  C   UNL     1       2.241   1.198  -0.751  0.00  0.00    +0.023 A 
ATOM     23  C   UNL     1       1.034   1.870  -0.727  0.00  0.00    +0.002 A 
ENDBRANCH  14  21
ENDBRANCH   9  15
ENDBRANCH   1  12
BRANCH   6  24
ATOM     24  C   UNL     1      11.528  -4.520   4.232  0.00  0.00    +0.099 C 
BRANCH  24  25
ATOM     25  C   UNL     1      12.872  -5.141   3.950  0.00  0.00    +0.213 C 
ATOM     26  O   UNL     1      12.945  -6.147   3.277  0.00  0.00    -0.276 OA
ATOM     27  N   UNL     1      13.992  -4.579   4.446  0.00  0.00    -0.315 N 
ATOM     28  H   UNL     1      13.933  -3.774   4.984  0.00  0.00    +0.149 HD
BRANCH  27  29
ATOM     29  C   UNL     1      15.298  -5.183   4.172  0.00  0.00    +0.108 C 
BRANCH  29  30
ATOM     30  C   UNL     1      16.394  -4.354   4.845  0.00  0.00    +0.052 C 
BRANCH  30  31
ATOM     31  C   UNL     1      17.738  -4.975   4.563  0.00  0.00    -0.040 C 
ATOM     32  C   UNL     1      18.599  -4.638   3.576  0.00  0.00    -0.001 A 
ATOM     33  C   UNL     1      18.543  -3.631   2.509  0.00  0.00    +0.010 A 
ATOM     34  C   UNL     1      19.582  -3.528   1.650  0.00  0.00    +0.001 A 
ATOM     35  C   UNL     1      20.708  -4.357   1.752  0.00  0.00    +0.002 A 
ATOM     36  C   UNL     1      20.832  -5.305   2.705  0.00  0.00    +0.026 A 
ATOM     37  C   UNL     1      19.799  -5.500   3.662  0.00  0.00    +0.043 A 
ATOM     38  N   UNL     1      19.684  -6.338   4.664  0.00  0.00    -0.380 N 
ATOM     39  C   UNL     1      18.400  -6.098   5.331  0.00  0.00    +0.144 C 
ATOM     40  H   UNL     1      20.341  -7.003   4.924  0.00  0.00    +0.160 HD
ENDBRANCH  30  31
ENDBRANCH  29  30
ENDBRANCH  27  29
ENDBRANCH  24  25
ENDBRANCH   6  24
TORSDOF 8
