REMARK  Name = ZINC03347255
REMARK  9 active torsions:
REMARK  status: ('A' for Active; 'I' for Inactive)
REMARK    1  A    between atoms: C_1  and  C_2
REMARK    2  A    between atoms: C_2  and  N_3
REMARK    3  A    between atoms: C_4  and  C_27
REMARK    4  A    between atoms: C_7  and  S_8
REMARK    5  A    between atoms: S_8  and  C_9
REMARK    6  A    between atoms: C_9  and  C_10
REMARK    7  A    between atoms: N_12  and  N_13
REMARK    8  A    between atoms: C_16  and  C_20
REMARK    9  A    between atoms: C_16  and  C_21
REMARK                            x       y       z     vdW  Elec       q    Type
REMARK                         _______ _______ _______ _____ _____    ______ ____
ROOT
ATOM      1  C   UNL     1       3.710   4.697   3.879  0.00  0.00    +0.240 C 
ATOM      2  O   UNL     1       3.440   5.458   2.974  0.00  0.00    -0.273 OA
ATOM      3  N   UNL     1       4.689   5.009   4.751  0.00  0.00    -0.223 N 
ATOM      4  H   UNL     1       4.906   4.401   5.475  0.00  0.00    +0.174 HD
ENDROOT
BRANCH   3   5
ATOM      5  N   UNL     1       5.395   6.212   4.612  0.00  0.00    -0.137 N 
ATOM      6  C   UNL     1       5.215   7.290   5.399  0.00  0.00    +0.267 C 
ATOM      7  O   UNL     1       4.441   7.400   6.326  0.00  0.00    -0.271 OA
ATOM      8  C   UNL     1       6.181   8.339   4.885  0.00  0.00    +0.137 C 
ATOM      9  N   UNL     1       6.857   7.666   3.762  0.00  0.00    -0.280 N 
ATOM     10  C   UNL     1       6.334   6.429   3.684  0.00  0.00    +0.327 C 
ATOM     11  O   UNL     1       6.675   5.602   2.861  0.00  0.00    -0.251 OA
ATOM     12  C   UNL     1       7.191   8.719   5.970  0.00  0.00    +0.047 C 
ATOM     13  H   UNL     1       7.547   8.040   3.192  0.00  0.00    +0.152 HD
BRANCH   8  14
ATOM     14  C   UNL     1       5.436   9.556   4.402  0.00  0.00    -0.015 A 
ATOM     15  C   UNL     1       4.225   9.898   4.977  0.00  0.00    +0.006 A 
ATOM     16  C   UNL     1       3.544  11.018   4.538  0.00  0.00    +0.000 A 
ATOM     17  C   UNL     1       4.067  11.789   3.517  0.00  0.00    +0.000 A 
ATOM     18  C   UNL     1       5.274  11.444   2.939  0.00  0.00    +0.000 A 
ATOM     19  C   UNL     1       5.959  10.328   3.382  0.00  0.00    +0.006 A 
ENDBRANCH   8  14
ENDBRANCH   3   5
BRANCH   1  20
ATOM     20  C   UNL     1       2.951   3.404   4.029  0.00  0.00    +0.174 C 
BRANCH  20  21
ATOM     21  S   UNL     1       1.712   3.276   2.716  0.00  0.00    -0.077 S 
BRANCH  21  26
ATOM     22  N   UNL     1      -0.020   1.094   2.454  0.00  0.00    -0.302 N 
ATOM     23  C   UNL     1      -0.243  -0.084   3.132  0.00  0.00    +0.171 A 
ATOM     24  N   UNL     1       0.614  -0.120   4.129  0.00  0.00    -0.128 NA
ATOM     25  N   UNL     1       1.339   0.940   4.124  0.00  0.00    -0.122 NA
ATOM     26  C   UNL     1       0.996   1.718   3.123  0.00  0.00    +0.192 A 
BRANCH  23  27
ATOM     27  C   UNL     1      -1.247  -1.108   2.803  0.00  0.00    +0.056 A 
ATOM     28  C   UNL     1      -1.340  -2.402   3.249  0.00  0.00    +0.019 A 
ATOM     29  C   UNL     1      -2.380  -3.183   2.797  0.00  0.00    +0.008 A 
ATOM     30  C   UNL     1      -3.277  -2.652   1.926  0.00  0.00    +0.046 A 
ATOM     31  S   UNL     1      -2.664  -0.988   1.724  0.00  0.00    -0.094 S 
ENDBRANCH  23  27
BRANCH  22  33
ATOM     32  C   UNL     1      -0.013   1.086   0.008  0.00  0.00    +0.027 C 
ATOM     33  C   UNL     1      -0.729   1.579   1.267  0.00  0.00    +0.122 C 
ENDBRANCH  22  33
ENDBRANCH  21  26
ENDBRANCH  20  21
ENDBRANCH   1  20
TORSDOF 7
