REMARK  Name = ZINC55597738
REMARK  5 active torsions:
REMARK  status: ('A' for Active; 'I' for Inactive)
REMARK    1  A    between atoms: C_3  and  N_13
REMARK    2  A    between atoms: C_5  and  N_7
REMARK    3  A    between atoms: N_13  and  S_14
REMARK    4  A    between atoms: S_14  and  C_17
REMARK    5  A    between atoms: C_20  and  C_23
REMARK                            x       y       z     vdW  Elec       q    Type
REMARK                         _______ _______ _______ _____ _____    ______ ____
ROOT
ATOM      1  N   UNL     1       3.582   2.131   0.010  0.00  0.00    -0.098 NA
ENDROOT
BRANCH   1   4
ATOM      2  C   UNL     1      -0.017   1.377  -0.006  0.00  0.00    +0.004 A 
ATOM      3  C   UNL     1       1.169   2.087   0.002  0.00  0.00    +0.027 A 
ATOM      4  C   UNL     1       2.384   1.413   0.002  0.00  0.00    +0.076 A 
ATOM      5  C   UNL     1       2.406   0.025  -0.005  0.00  0.00    +0.050 A 
ATOM      6  C   UNL     1       1.214  -0.684  -0.013  0.00  0.00    +0.040 A 
ATOM      7  C   UNL     1       0.002  -0.004  -0.014  0.00  0.00    +0.024 A 
BRANCH   6   8
ATOM      8  N   UNL     1       1.232  -2.083  -0.021  0.00  0.00    -0.254 N 
ATOM      9  C   UNL     1       0.049  -2.951   0.084  0.00  0.00    +0.134 C 
ATOM     10  C   UNL     1       0.631  -4.377   0.023  0.00  0.00    +0.125 C 
ATOM     11  N   UNL     1       2.079  -4.161  -0.109  0.00  0.00    -0.297 N 
ATOM     12  C   UNL     1       2.328  -2.845  -0.131  0.00  0.00    +0.307 C 
ATOM     13  O   UNL     1       3.448  -2.383  -0.238  0.00  0.00    -0.252 OA
ATOM     14  H   UNL     1       2.748  -4.860  -0.173  0.00  0.00    +0.150 HD
ENDBRANCH   6   8
ENDBRANCH   1   4
BRANCH   1  15
ATOM     15  S   UNL     1       3.554   3.787   0.018  0.00  0.00    +0.092 S 
ATOM     16  O   UNL     1       3.001   4.191  -1.227  0.00  0.00    -0.148 OA
ATOM     17  O   UNL     1       2.993   4.178   1.264  0.00  0.00    -0.148 OA
BRANCH  15  18
ATOM     18  C   UNL     1       5.229   4.336   0.027  0.00  0.00    +0.110 A 
ATOM     19  C   UNL     1       5.883   4.540   1.227  0.00  0.00    +0.029 A 
ATOM     20  C   UNL     1       7.197   4.970   1.234  0.00  0.00    +0.014 A 
ATOM     21  C   UNL     1       7.856   5.196   0.040  0.00  0.00    +0.055 A 
ATOM     22  C   UNL     1       7.202   4.992  -1.161  0.00  0.00    +0.014 A 
ATOM     23  C   UNL     1       5.889   4.557  -1.167  0.00  0.00    +0.029 A 
BRANCH  21  24
ATOM     24  C   UNL     1       9.288   5.666   0.047  0.00  0.00    +0.417 C 
ATOM     25  F   UNL     1      10.142   4.559   0.038  0.00  0.00    -0.166 F 
ATOM     26  F   UNL     1       9.527   6.449  -1.088  0.00  0.00    -0.166 F 
ATOM     27  F   UNL     1       9.523   6.428   1.196  0.00  0.00    -0.166 F 
ENDBRANCH  21  24
ENDBRANCH  15  18
ENDBRANCH   1  15
TORSDOF 5
