REMARK  Name = ZINC15529634
REMARK  8 active torsions:
REMARK  status: ('A' for Active; 'I' for Inactive)
REMARK    1  A    between atoms: C_6  and  C_7
REMARK    2  A    between atoms: C_7  and  C_8
REMARK    3  A    between atoms: N_10  and  N_11
REMARK    4  A    between atoms: C_12  and  C_14
REMARK    5  A    between atoms: C_18  and  S_20
REMARK    6  A    between atoms: S_20  and  N_23
REMARK    7  A    between atoms: N_23  and  C_24
REMARK    8  A    between atoms: C_24  and  C_25
REMARK                            x       y       z     vdW  Elec       q    Type
REMARK                         _______ _______ _______ _____ _____    ______ ____
ROOT
ATOM      1  C   UNL     1      -5.877   6.291  -4.572  0.00  0.00    +0.040 A 
ATOM      2  C   UNL     1      -4.966   5.895  -5.555  0.00  0.00    +0.014 A 
ATOM      3  C   UNL     1      -3.688   5.525  -5.196  0.00  0.00    +0.023 A 
ATOM      4  C   UNL     1      -3.305   5.544  -3.865  0.00  0.00    +0.067 A 
ATOM      5  C   UNL     1      -4.204   5.935  -2.886  0.00  0.00    +0.124 A 
ATOM      6  C   UNL     1      -5.487   6.303  -3.232  0.00  0.00    +0.043 A 
ATOM      7 CL   UNL     1      -1.694   5.076  -3.421  0.00  0.00    -0.082 Cl
ENDROOT
BRANCH   1   9
ATOM      8  N   UNL     1      -7.624   6.671  -6.244  0.00  0.00    -0.230 N 
ATOM      9  C   UNL     1      -7.249   6.689  -4.950  0.00  0.00    +0.260 C 
ATOM     10  O   UNL     1      -8.040   7.032  -4.093  0.00  0.00    -0.269 OA
ATOM     11  H   UNL     1      -6.993   6.396  -6.928  0.00  0.00    +0.173 HD
BRANCH   8  14
ATOM     12  C   UNL     1      -9.300   7.030  -7.897  0.00  0.00    +0.233 C 
ATOM     13  O   UNL     1      -8.511   6.687  -8.752  0.00  0.00    -0.274 OA
ATOM     14  N   UNL     1      -8.925   7.048  -6.602  0.00  0.00    -0.234 N 
ATOM     15  H   UNL     1      -9.556   7.322  -5.918  0.00  0.00    +0.173 HD
BRANCH  12  16
ATOM     16  C   UNL     1     -10.699   7.436  -8.282  0.00  0.00    +0.132 C 
BRANCH  16  22
ATOM     17  C   UNL     1     -10.577   8.416 -10.582  0.00  0.00    +0.005 A 
ATOM     18  C   UNL     1     -10.719   8.316 -11.953  0.00  0.00    +0.020 A 
ATOM     19  C   UNL     1     -11.156   7.131 -12.518  0.00  0.00    +0.041 A 
ATOM     20  C   UNL     1     -11.444   6.045 -11.711  0.00  0.00    +0.020 A 
ATOM     21  C   UNL     1     -11.296   6.144 -10.341  0.00  0.00    +0.005 A 
ATOM     22  C   UNL     1     -10.860   7.328  -9.776  0.00  0.00    -0.038 A 
ATOM     23 CL   UNL     1     -11.341   7.007 -14.240  0.00  0.00    -0.084 Cl
ENDBRANCH  16  22
ENDBRANCH  12  16
ENDBRANCH   8  14
ENDBRANCH   1   9
BRANCH   5  24
ATOM     24  S   UNL     1      -3.708   5.957  -1.196  0.00  0.00    +0.060 S 
ATOM     25  O   UNL     1      -4.842   6.371  -0.445  0.00  0.00    -0.153 OA
ATOM     26  O   UNL     1      -2.467   6.648  -1.145  0.00  0.00    -0.153 OA
BRANCH  24  27
ATOM     27  N   UNL     1      -3.396   4.391  -0.757  0.00  0.00    -0.187 NA
ATOM     28  H   UNL     1      -3.947   3.956  -0.087  0.00  0.00    +0.148 HD
BRANCH  27  29
ATOM     29  C   UNL     1      -2.289   3.662  -1.380  0.00  0.00    +0.137 C 
BRANCH  29  30
ATOM     30  C   UNL     1      -1.978   2.408  -0.561  0.00  0.00    +0.134 C 
ATOM     31  C   UNL     1      -0.811   1.623  -1.201  0.00  0.00    +0.035 C 
ATOM     32  C   UNL     1      -0.013   1.086   0.008  0.00  0.00    +0.031 C 
ATOM     33  C   UNL     1      -0.788   1.610   1.237  0.00  0.00    +0.160 C 
ATOM     34  O   UNL     1      -1.501   2.772   0.753  0.00  0.00    -0.375 OA
ENDBRANCH  29  30
ENDBRANCH  27  29
ENDBRANCH  24  27
ENDBRANCH   5  24
TORSDOF 8
