REMARK  Name = ZINC20086612
REMARK  8 active torsions:
REMARK  status: ('A' for Active; 'I' for Inactive)
REMARK    1  A    between atoms: C_1  and  O_2
REMARK    2  A    between atoms: O_2  and  C_3
REMARK    3  A    between atoms: C_5  and  C_13
REMARK    4  A    between atoms: C_7  and  O_11
REMARK    5  A    between atoms: C_8  and  O_9
REMARK    6  A    between atoms: O_9  and  C_10
REMARK    7  A    between atoms: O_11  and  C_12
REMARK    8  A    between atoms: C_16  and  C_28
REMARK                            x       y       z     vdW  Elec       q    Type
REMARK                         _______ _______ _______ _____ _____    ______ ____
ROOT
ATOM      1  C   UNL     1       2.402   0.386  -4.230  0.00  0.00    +0.093 C 
ATOM      2  C   UNL     1       3.873   0.070  -4.352  0.00  0.00    +0.032 A 
ATOM      3  C   UNL     1       4.904   0.385  -3.458  0.00  0.00    +0.098 A 
ATOM      4  N   UNL     1       6.033  -0.083  -3.955  0.00  0.00    -0.172 NA
ATOM      5  N   UNL     1       5.753  -0.708  -5.180  0.00  0.00    -0.263 N 
ATOM      6  H   UNL     1       6.397  -1.141  -5.761  0.00  0.00    +0.190 HD
ATOM      7  C   UNL     1       4.427  -0.600  -5.406  0.00  0.00    +0.123 A 
ATOM      8  N   UNL     1       3.679  -1.057  -6.498  0.00  0.00    -0.300 N 
ATOM      9  C   UNL     1       2.385  -0.610  -6.558  0.00  0.00    +0.058 C 
ATOM     10  C   UNL     1       1.752   0.057  -5.558  0.00  0.00    +0.069 C 
ATOM     11  C   UNL     1       0.446   0.369  -5.963  0.00  0.00    +0.338 C 
ATOM     12  O   UNL     1      -0.362   0.971  -5.280  0.00  0.00    -0.245 OA
ATOM     13  O   UNL     1       0.204  -0.084  -7.210  0.00  0.00    -0.455 OA
ATOM     14  C   UNL     1       1.397  -0.735  -7.684  0.00  0.00    +0.283 C 
ATOM     15  H   UNL     1       4.052  -1.651  -7.168  0.00  0.00    +0.153 HD
ENDROOT
BRANCH   3  16
ATOM     16  C   UNL     1       4.753   1.117  -2.176  0.00  0.00    +0.003 A 
ATOM     17  C   UNL     1       3.811   2.137  -2.060  0.00  0.00    +0.011 A 
ATOM     18  C   UNL     1       3.674   2.814  -0.866  0.00  0.00    +0.016 A 
ATOM     19  C   UNL     1       4.471   2.483   0.216  0.00  0.00    +0.018 A 
ATOM     20  C   UNL     1       5.409   1.471   0.106  0.00  0.00    +0.016 A 
ATOM     21  C   UNL     1       5.550   0.784  -1.083  0.00  0.00    +0.011 A 
ATOM     22 BR   UNL     1       4.279   3.416   1.849  0.00  0.00    -0.050 Br
ENDBRANCH   3  16
BRANCH   1  25
ATOM     23  C   UNL     1       0.606  -0.608  -1.056  0.00  0.00    +0.165 A 
ATOM     24  C   UNL     1       1.173   0.160  -2.063  0.00  0.00    +0.054 A 
ATOM     25  C   UNL     1       1.787  -0.452  -3.139  0.00  0.00    -0.028 A 
ATOM     26  C   UNL     1       1.839  -1.831  -3.217  0.00  0.00    +0.054 A 
ATOM     27  C   UNL     1       1.275  -2.606  -2.215  0.00  0.00    +0.165 A 
ATOM     28  C   UNL     1       0.661  -1.994  -1.128  0.00  0.00    +0.204 A 
BRANCH  23  30
ATOM     29  C   UNL     1      -0.017   1.425   0.010  0.00  0.00    +0.277 C 
ATOM     30  O   UNL     1       0.002  -0.004   0.002  0.00  0.00    -0.491 OA
ENDBRANCH  23  30
BRANCH  28  31
ATOM     31  O   UNL     1       0.111  -2.751  -0.140  0.00  0.00    -0.488 OA
ATOM     32  C   UNL     1      -1.260  -3.124  -0.295  0.00  0.00    +0.277 C 
ENDBRANCH  28  31
BRANCH  27  33
ATOM     33  O   UNL     1       1.326  -3.963  -2.293  0.00  0.00    -0.491 OA
ATOM     34  C   UNL     1       1.977  -4.523  -3.435  0.00  0.00    +0.277 C 
ENDBRANCH  27  33
ENDBRANCH   1  25
TORSDOF 5
