REMARK  Name = ZINC57663300
REMARK  12 active torsions:
REMARK  status: ('A' for Active; 'I' for Inactive)
REMARK    1  A    between atoms: C_1  and  C_2
REMARK    2  A    between atoms: C_7  and  C_26
REMARK    3  A    between atoms: N_9  and  C_10
REMARK    4  A    between atoms: C_10  and  C_11
REMARK    5  A    between atoms: C_11  and  C_12
REMARK    6  A    between atoms: C_12  and  C_14
REMARK    7  A    between atoms: C_12  and  O_25
REMARK    8  A    between atoms: C_17  and  O_21
REMARK    9  A    between atoms: C_18  and  N_20
REMARK   10  A    between atoms: O_21  and  C_22
REMARK   11  A    between atoms: C_22  and  C_23
REMARK   12  A    between atoms: C_22  and  C_24
REMARK                            x       y       z     vdW  Elec       q    Type
REMARK                         _______ _______ _______ _____ _____    ______ ____
ROOT
ATOM      1  C   UNL     1       0.207   0.208   4.887  0.00  0.00    +0.143 C 
ENDROOT
BRANCH   1   2
ATOM      2  C   UNL     1       0.934  -0.289   6.110  0.00  0.00    -0.017 A 
ATOM      3  C   UNL     1       2.163   0.246   6.447  0.00  0.00    +0.010 A 
ATOM      4  C   UNL     1       2.834  -0.206   7.568  0.00  0.00    +0.048 A 
ATOM      5  C   UNL     1       2.275  -1.197   8.358  0.00  0.00    +0.141 A 
ATOM      6  C   UNL     1       1.036  -1.736   8.020  0.00  0.00    +0.067 A 
ATOM      7  C   UNL     1       0.366  -1.274   6.896  0.00  0.00    +0.032 A 
BRANCH   6   8
ATOM      8  N   UNL     1       0.466  -2.738   8.814  0.00  0.00    -0.355 N 
ATOM      9  H   UNL     1       0.933  -3.058   9.601  0.00  0.00    +0.142 HD
ATOM     10  H   UNL     1      -0.397  -3.112   8.577  0.00  0.00    +0.142 HD
ENDBRANCH   6   8
BRANCH   5  11
ATOM     11  O   UNL     1       2.934  -1.643   9.461  0.00  0.00    -0.488 OA
BRANCH  11  12
ATOM     12  C   UNL     1       4.140  -0.964   9.815  0.00  0.00    +0.167 C 
ATOM     13  C   UNL     1       4.400  -1.132  11.313  0.00  0.00    +0.051 C 
ATOM     14  C   UNL     1       5.309  -1.555   9.025  0.00  0.00    +0.051 C 
ENDBRANCH  11  12
ENDBRANCH   5  11
ENDBRANCH   1   2
BRANCH   1  15
ATOM     15  O   UNL     1       0.458   1.605   4.719  0.00  0.00    -0.387 OA
ATOM     16  H   UNL     1       1.393   1.826   4.605  0.00  0.00    +0.210 HD
ENDBRANCH   1  15
BRANCH   1  17
ATOM     17  C   UNL     1       0.704  -0.551   3.655  0.00  0.00    +0.017 C 
BRANCH  17  18
ATOM     18  C   UNL     1      -0.119  -0.136   2.434  0.00  0.00    -0.075 C 
BRANCH  18  25
ATOM     19  C   UNL     1      -0.148   1.132  -0.072  0.00  0.00    -0.013 C 
ATOM     20  C   UNL     1      -0.350  -0.379   0.060  0.00  0.00    -0.071 C 
ATOM     21  C   UNL     1       0.201  -1.077  -1.185  0.00  0.00    -0.016 C 
ATOM     22  C   UNL     1      -0.004  -2.589  -1.048  0.00  0.00    -0.003 C 
ATOM     23  C   UNL     1       0.676  -3.072   0.236  0.00  0.00    -0.016 C 
ATOM     24  C   UNL     1       0.107  -2.300   1.429  0.00  0.00    -0.071 C 
ATOM     25  N   UNL     1       0.358  -0.864   1.251  0.00  0.00    +0.383 N 
ATOM     26  C   UNL     1      -1.400  -2.545   1.523  0.00  0.00    -0.013 C 
ATOM     27  H   UNL     1       1.349  -0.708   1.139  0.00  0.00    -0.081 HD
ENDBRANCH  18  25
ENDBRANCH  17  18
ENDBRANCH   1  17
TORSDOF 8
