REMARK  Name = ZINC35747416
REMARK  13 active torsions:
REMARK  status: ('A' for Active; 'I' for Inactive)
REMARK    1  A    between atoms: C_1  and  O_2
REMARK    2  A    between atoms: O_2  and  C_3
REMARK    3  A    between atoms: C_6  and  O_9
REMARK    4  A    between atoms: O_9  and  C_10
REMARK    5  A    between atoms: C_10  and  C_11
REMARK    6  A    between atoms: C_11  and  C_13
REMARK    7  A    between atoms: C_11  and  O_37
REMARK    8  A    between atoms: C_13  and  N_14
REMARK    9  A    between atoms: N_14  and  C_15
REMARK   10  A    between atoms: N_14  and  C_18
REMARK   11  A    between atoms: C_15  and  C_16
REMARK   12  A    between atoms: C_18  and  C_19
REMARK   13  A    between atoms: C_25  and  C_30
REMARK                            x       y       z     vdW  Elec       q    Type
REMARK                         _______ _______ _______ _____ _____    ______ ____
ROOT
ATOM      1  N   UNL     1       3.601  -6.153  -6.817  0.00  0.00    +0.388 N 
ATOM      2  H   UNL     1       3.175  -5.465  -7.420  0.00  0.00    -0.081 HD
ENDROOT
BRANCH   1   3
ATOM      3  C   UNL     1       3.225  -5.883  -5.423  0.00  0.00    -0.043 C 
BRANCH   3   4
ATOM      4  C   UNL     1       3.541  -4.425  -5.083  0.00  0.00    +0.135 C 
BRANCH   4   5
ATOM      5  O   UNL     1       4.958  -4.236  -5.067  0.00  0.00    -0.390 OA
ATOM      6  H   UNL     1       5.421  -4.786  -4.420  0.00  0.00    +0.210 HD
ENDBRANCH   4   5
BRANCH   4   7
ATOM      7  C   UNL     1       2.966  -4.086  -3.706  0.00  0.00    +0.258 C 
BRANCH   7   8
ATOM      8  O   UNL     1       3.159  -2.695  -3.439  0.00  0.00    -0.489 OA
BRANCH   8  12
ATOM      9  C   UNL     1       1.767  -1.272   0.178  0.00  0.00    +0.120 A 
ATOM     10  C   UNL     1       2.389  -0.410  -0.713  0.00  0.00    +0.049 A 
ATOM     11  C   UNL     1       2.855  -0.887  -1.923  0.00  0.00    +0.049 A 
ATOM     12  C   UNL     1       2.701  -2.227  -2.247  0.00  0.00    +0.121 A 
ATOM     13  C   UNL     1       2.079  -3.088  -1.356  0.00  0.00    +0.049 A 
ATOM     14  C   UNL     1       1.617  -2.613  -0.144  0.00  0.00    +0.049 A 
BRANCH   9  16
ATOM     15  C   UNL     1       1.496   0.588   1.634  0.00  0.00    +0.277 C 
ATOM     16  O   UNL     1       1.308  -0.803   1.369  0.00  0.00    -0.495 OA
ENDBRANCH   9  16
ENDBRANCH   8  12
ENDBRANCH   7   8
ENDBRANCH   4   7
ENDBRANCH   3   4
ENDBRANCH   1   3
BRANCH   1  17
ATOM     17  C   UNL     1       5.062  -6.084  -6.952  0.00  0.00    -0.051 C 
BRANCH  17  18
ATOM     18  C   UNL     1       5.444  -6.303  -8.393  0.00  0.00    -0.053 C 
ATOM     19  C   UNL     1       6.182  -5.418  -9.017  0.00  0.00    +0.002 C 
ENDBRANCH  17  18
ENDBRANCH   1  17
BRANCH   1  20
ATOM     20  C   UNL     1       3.136  -7.493  -7.198  0.00  0.00    -0.003 C 
BRANCH  20  21
ATOM     21  C   UNL     1       1.630  -7.516  -7.217  0.00  0.00    +0.094 A 
ATOM     22  N   UNL     1       0.983  -8.692  -7.420  0.00  0.00    -0.312 N 
ATOM     23  H   UNL     1       1.500  -9.503  -7.550  0.00  0.00    +0.170 HD
ATOM     24  C   UNL     1      -0.361  -8.756  -7.443  0.00  0.00    +0.260 A 
ATOM     25  O   UNL     1      -0.927  -9.820  -7.625  0.00  0.00    -0.267 OA
ATOM     26  C   UNL     1      -1.116  -7.556  -7.249  0.00  0.00    +0.080 A 
ATOM     27  C   UNL     1      -2.562  -7.367  -7.230  0.00  0.00    +0.006 A 
ATOM     28  C   UNL     1      -3.054  -6.122  -7.026  0.00  0.00    +0.056 A 
ATOM     29  S   UNL     1      -1.589  -5.123  -6.846  0.00  0.00    -0.076 S 
ATOM     30  C   UNL     1      -0.362  -6.388  -7.047  0.00  0.00    +0.116 A 
ATOM     31  N   UNL     1       0.969  -6.405  -7.032  0.00  0.00    -0.229 NA
BRANCH  27  32
ATOM     32  C   UNL     1      -3.476  -8.517  -7.431  0.00  0.00    +0.019 A 
ATOM     33  C   UNL     1      -4.295  -8.572  -8.558  0.00  0.00    +0.011 A 
ATOM     34  C   UNL     1      -5.143  -9.645  -8.740  0.00  0.00    +0.001 A 
ATOM     35  C   UNL     1      -5.183 -10.666  -7.808  0.00  0.00    +0.003 A 
ATOM     36  C   UNL     1      -4.374 -10.619  -6.687  0.00  0.00    +0.039 A 
ATOM     37  C   UNL     1      -3.516  -9.553  -6.496  0.00  0.00    +0.131 A 
ATOM     38  F   UNL     1      -2.722  -9.510  -5.404  0.00  0.00    -0.205 F 
ENDBRANCH  27  32
ENDBRANCH  20  21
ENDBRANCH   1  20
TORSDOF 12
