REMARK  Name = ZINC63491604
REMARK  5 active torsions:
REMARK  status: ('A' for Active; 'I' for Inactive)
REMARK    1  A    between atoms: C_1  and  C_2
REMARK    2  A    between atoms: C_8  and  S_10
REMARK    3  A    between atoms: S_10  and  C_11
REMARK    4  A    between atoms: C_11  and  C_12
REMARK    5  A    between atoms: C_20  and  C_23
REMARK                            x       y       z     vdW  Elec       q    Type
REMARK                         _______ _______ _______ _____ _____    ______ ____
ROOT
ATOM      1  C   UNL     1       5.376  -1.973  -0.035  0.00  0.00    +0.060 A 
ATOM      2  C   UNL     1       6.130  -1.937  -1.172  0.00  0.00    +0.096 A 
ATOM      3  C   UNL     1       7.433  -2.445  -1.158  0.00  0.00    +0.272 A 
ATOM      4  O   UNL     1       8.107  -2.423  -2.175  0.00  0.00    -0.266 OA
ATOM      5  N   UNL     1       7.953  -2.965  -0.004  0.00  0.00    -0.205 N 
ATOM      6  C   UNL     1       7.112  -2.997   1.078  0.00  0.00    +0.191 A 
ATOM      7  N   UNL     1       5.900  -2.506   1.068  0.00  0.00    -0.226 NA
ATOM      8  S   UNL     1       8.055  -3.824   2.348  0.00  0.00    -0.058 S 
ATOM      9  C   UNL     1       9.423  -4.399   1.251  0.00  0.00    +0.183 C 
ATOM     10  N   UNL     1       9.229  -3.432   0.140  0.00  0.00    -0.262 N 
ATOM     11  H   UNL     1       9.578  -3.805  -0.730  0.00  0.00    +0.168 HD
ENDROOT
BRANCH   9  12
ATOM     12  C   UNL     1      10.769  -4.230   1.908  0.00  0.00    -0.016 A 
ATOM     13  C   UNL     1      11.459  -3.040   1.773  0.00  0.00    +0.006 A 
ATOM     14  C   UNL     1      12.694  -2.885   2.375  0.00  0.00    +0.000 A 
ATOM     15  C   UNL     1      13.238  -3.919   3.112  0.00  0.00    +0.000 A 
ATOM     16  C   UNL     1      12.548  -5.109   3.248  0.00  0.00    +0.000 A 
ATOM     17  C   UNL     1      11.311  -5.263   2.650  0.00  0.00    +0.006 A 
ENDBRANCH   9  12
BRANCH   1  18
ATOM     18  C   UNL     1       3.977  -1.414  -0.025  0.00  0.00    +0.133 C 
BRANCH  18  19
ATOM     19  S   UNL     1       2.781  -2.777  -0.027  0.00  0.00    -0.082 S 
BRANCH  19  27
ATOM     20  C   UNL     1      -0.018   1.503   0.010  0.00  0.00    +0.066 C 
ATOM     21  C   UNL     1       0.002  -0.004   0.002  0.00  0.00    +0.046 A 
ATOM     22  C   UNL     1      -1.171  -0.701   0.004  0.00  0.00    +0.093 A 
ATOM     23  C   UNL     1      -1.128  -2.107  -0.004  0.00  0.00    +0.252 A 
ATOM     24  O   UNL     1      -2.158  -2.761  -0.004  0.00  0.00    -0.268 OA
ATOM     25  N   UNL     1       0.076  -2.718  -0.014  0.00  0.00    -0.302 N 
ATOM     26  H   UNL     1       0.130  -3.687  -0.020  0.00  0.00    +0.171 HD
ATOM     27  C   UNL     1       1.214  -1.970  -0.015  0.00  0.00    +0.170 A 
ATOM     28  N   UNL     1       1.164  -0.652  -0.013  0.00  0.00    -0.228 NA
ENDBRANCH  19  27
ENDBRANCH  18  19
ENDBRANCH   1  18
TORSDOF 4
