REMARK  Name = ZINC22532248
REMARK  9 active torsions:
REMARK  status: ('A' for Active; 'I' for Inactive)
REMARK    1  A    between atoms: C_1  and  C_2
REMARK    2  A    between atoms: C_2  and  C_3
REMARK    3  A    between atoms: C_3  and  N_4
REMARK    4  A    between atoms: C_12  and  S_13
REMARK    5  A    between atoms: S_13  and  C_14
REMARK    6  A    between atoms: C_14  and  C_15
REMARK    7  A    between atoms: N_17  and  N_18
REMARK    8  A    between atoms: C_21  and  C_25
REMARK    9  A    between atoms: C_21  and  C_26
REMARK                            x       y       z     vdW  Elec       q    Type
REMARK                         _______ _______ _______ _____ _____    ______ ____
ROOT
ATOM      1  C   UNL     1      -2.164  -3.648   3.773  0.00  0.00    +0.240 C 
ATOM      2  O   UNL     1      -2.958  -3.629   2.857  0.00  0.00    -0.273 OA
ATOM      3  N   UNL     1      -2.142  -4.692   4.625  0.00  0.00    -0.223 N 
ATOM      4  H   UNL     1      -1.421  -4.709   5.456  0.00  0.00    +0.174 HD
ENDROOT
BRANCH   3   5
ATOM      5  N   UNL     1      -3.036  -5.756   4.451  0.00  0.00    -0.137 N 
ATOM      6  C   UNL     1      -2.692  -6.962   3.958  0.00  0.00    +0.267 C 
ATOM      7  O   UNL     1      -1.592  -7.317   3.593  0.00  0.00    -0.271 OA
ATOM      8  C   UNL     1      -3.967  -7.782   3.953  0.00  0.00    +0.137 C 
ATOM      9  N   UNL     1      -4.976  -6.856   4.495  0.00  0.00    -0.280 N 
ATOM     10  C   UNL     1      -4.337  -5.703   4.760  0.00  0.00    +0.327 C 
ATOM     11  O   UNL     1      -4.881  -4.720   5.226  0.00  0.00    -0.251 OA
ATOM     12  C   UNL     1      -4.330  -8.205   2.528  0.00  0.00    +0.047 C 
ATOM     13  H   UNL     1      -6.020  -7.184   4.607  0.00  0.00    +0.152 HD
BRANCH   8  14
ATOM     14  C   UNL     1      -3.824  -8.990   4.842  0.00  0.00    -0.015 A 
ATOM     15  C   UNL     1      -2.584  -9.578   5.015  0.00  0.00    +0.006 A 
ATOM     16  C   UNL     1      -2.452 -10.683   5.835  0.00  0.00    +0.000 A 
ATOM     17  C   UNL     1      -3.561 -11.207   6.474  0.00  0.00    +0.000 A 
ATOM     18  C   UNL     1      -4.801 -10.622   6.296  0.00  0.00    +0.000 A 
ATOM     19  C   UNL     1      -4.932  -9.514   5.481  0.00  0.00    +0.006 A 
ENDBRANCH   8  14
ENDBRANCH   3   5
BRANCH   1  20
ATOM     20  C   UNL     1      -1.201  -2.503   3.960  0.00  0.00    +0.174 C 
BRANCH  20  21
ATOM     21  S   UNL     1      -1.477  -1.266   2.668  0.00  0.00    -0.078 S 
BRANCH  21  30
ATOM     22  N   UNL     1      -0.020   1.094   2.454  0.00  0.00    -0.319 N 
ATOM     23  C   UNL     1       1.009   1.741   3.119  0.00  0.00    +0.070 A 
ATOM     24  C   UNL     1       1.669   2.945   2.927  0.00  0.00    +0.029 A 
ATOM     25  C   UNL     1       2.681   3.319   3.788  0.00  0.00    +0.022 A 
ATOM     26  C   UNL     1       3.043   2.496   4.845  0.00  0.00    +0.043 A 
ATOM     27  C   UNL     1       2.398   1.296   5.050  0.00  0.00    +0.050 A 
ATOM     28  C   UNL     1       1.371   0.905   4.187  0.00  0.00    +0.092 A 
ATOM     29  N   UNL     1       0.567  -0.189   4.130  0.00  0.00    -0.222 NA
ATOM     30  C   UNL     1      -0.255  -0.078   3.115  0.00  0.00    +0.170 A 
ATOM     31 CL   UNL     1       4.319   2.983   5.918  0.00  0.00    -0.083 Cl
BRANCH  22  32
ATOM     32  C   UNL     1      -0.729   1.579   1.267  0.00  0.00    +0.124 C 
BRANCH  32  34
ATOM     33  C   UNL     1      -0.753   1.593  -1.232  0.00  0.00    +0.005 C 
ATOM     34  C   UNL     1      -0.013   1.086   0.008  0.00  0.00    +0.018 C 
ENDBRANCH  32  34
ENDBRANCH  22  32
ENDBRANCH  21  30
ENDBRANCH  20  21
ENDBRANCH   1  20
TORSDOF 7
