REMARK  Name = ZINC28927186
REMARK  11 active torsions:
REMARK  status: ('A' for Active; 'I' for Inactive)
REMARK    1  A    between atoms: C_1  and  C_2
REMARK    2  A    between atoms: C_2  and  C_3
REMARK    3  A    between atoms: C_3  and  S_4
REMARK    4  A    between atoms: S_4  and  C_5
REMARK    5  A    between atoms: C_8  and  N_30
REMARK    6  A    between atoms: C_9  and  N_11
REMARK    7  A    between atoms: C_12  and  C_14
REMARK    8  A    between atoms: C_14  and  N_15
REMARK    9  A    between atoms: N_15  and  C_16
REMARK   10  A    between atoms: N_15  and  C_17
REMARK   11  A    between atoms: C_17  and  C_18
REMARK                            x       y       z     vdW  Elec       q    Type
REMARK                         _______ _______ _______ _____ _____    ______ ____
ROOT
ATOM      1  N   UNL     1       2.576  -5.736   4.207  0.00  0.00    -0.283 N 
ATOM      2  C   UNL     1       2.121  -6.564   3.246  0.00  0.00    +0.231 C 
ATOM      3  O   UNL     1       1.692  -6.109   2.206  0.00  0.00    -0.274 OA
ATOM      4  H   UNL     1       2.992  -6.100   5.004  0.00  0.00    +0.155 HD
ENDROOT
BRANCH   1   9
ATOM      5  C   UNL     1       2.605  -2.383   2.686  0.00  0.00    +0.010 A 
ATOM      6  C   UNL     1       2.196  -1.605   3.764  0.00  0.00    +0.017 A 
ATOM      7  C   UNL     1       1.916  -2.200   4.979  0.00  0.00    +0.036 A 
ATOM      8  C   UNL     1       2.041  -3.568   5.127  0.00  0.00    +0.147 A 
ATOM      9  C   UNL     1       2.449  -4.351   4.055  0.00  0.00    +0.065 A 
ATOM     10  C   UNL     1       2.726  -3.758   2.831  0.00  0.00    +0.040 A 
BRANCH   8  11
ATOM     11  N   UNL     1       1.741  -4.200   6.432  0.00  0.00    +0.058 N 
ATOM     12  O   UNL     1       1.415  -3.517   7.374  0.00  0.00    -0.126 OA
ATOM     13  O   UNL     1       1.821  -5.400   6.554  0.00  0.00    -0.126 OA
ENDBRANCH   8  11
BRANCH   5  14
ATOM     14  S   UNL     1       2.963  -1.624   1.137  0.00  0.00    -0.125 S 
BRANCH  14  15
ATOM     15  C   UNL     1       2.669   0.141   1.434  0.00  0.00    +0.074 C 
BRANCH  15  17
ATOM     16  C   UNL     1       2.698   2.416   0.402  0.00  0.00    +0.004 C 
ATOM     17  C   UNL     1       2.946   0.927   0.151  0.00  0.00    +0.008 C 
ENDBRANCH  15  17
ENDBRANCH  14  15
ENDBRANCH   5  14
ENDBRANCH   1   9
BRANCH   2  18
ATOM     18  C   UNL     1       2.144  -8.055   3.462  0.00  0.00    +0.181 C 
BRANCH  18  19
ATOM     19  N   UNL     1       1.599  -8.731   2.277  0.00  0.00    -0.290 NA
ATOM     20  C   UNL     1       0.173  -8.425   2.106  0.00  0.00    +0.105 C 
BRANCH  19  21
ATOM     21  C   UNL     1       1.822 -10.181   2.349  0.00  0.00    +0.158 C 
BRANCH  21  22
ATOM     22  C   UNL     1       1.477 -10.809   1.024  0.00  0.00    +0.124 A 
ATOM     23  N   UNL     1       1.613 -12.154   0.893  0.00  0.00    -0.309 N 
ATOM     24  H   UNL     1       1.926 -12.681   1.645  0.00  0.00    +0.170 HD
ATOM     25  C   UNL     1       1.316 -12.766  -0.277  0.00  0.00    +0.259 A 
ATOM     26  O   UNL     1       1.433 -13.971  -0.408  0.00  0.00    -0.267 OA
ATOM     27  C   UNL     1       0.846 -11.919  -1.384  0.00  0.00    +0.065 A 
ATOM     28  C   UNL     1       0.514 -12.450  -2.628  0.00  0.00    +0.015 A 
ATOM     29  C   UNL     1       0.080 -11.610  -3.631  0.00  0.00    +0.001 A 
ATOM     30  C   UNL     1      -0.030 -10.244  -3.409  0.00  0.00    +0.002 A 
ATOM     31  C   UNL     1       0.293  -9.699  -2.186  0.00  0.00    +0.028 A 
ATOM     32  C   UNL     1       0.736 -10.530  -1.155  0.00  0.00    +0.078 A 
ATOM     33  N   UNL     1       1.060 -10.037   0.067  0.00  0.00    -0.232 NA
ENDBRANCH  21  22
ENDBRANCH  19  21
ENDBRANCH  18  19
ENDBRANCH   2  18
TORSDOF 9
