REMARK  Name = ZINC39467416
REMARK  4 active torsions:
REMARK  status: ('A' for Active; 'I' for Inactive)
REMARK    1  A    between atoms: C_1  and  C_2
REMARK    2  A    between atoms: C_11  and  C_13
REMARK    3  A    between atoms: N_29  and  C_30
REMARK    4  A    between atoms: C_30  and  C_31
REMARK                            x       y       z     vdW  Elec       q    Type
REMARK                         _______ _______ _______ _____ _____    ______ ____
ROOT
ATOM      1  C   UNL     1      -0.148   1.568   0.213  0.00  0.00    +0.014 C 
ATOM      2  C   UNL     1      -0.090   0.043   0.102  0.00  0.00    +0.044 C 
ATOM      3  C   UNL     1      -1.475  -0.517   0.290  0.00  0.00    +0.028 A 
ATOM      4  C   UNL     1      -2.511  -0.579  -0.657  0.00  0.00    +0.127 A 
ATOM      5  N   UNL     1      -3.684  -1.096  -0.314  0.00  0.00    -0.221 NA
ATOM      6  C   UNL     1      -3.910  -1.557   0.899  0.00  0.00    +0.224 A 
ATOM      7  N   UNL     1      -2.967  -1.529   1.822  0.00  0.00    -0.229 NA
ATOM      8  C   UNL     1      -1.770  -1.035   1.549  0.00  0.00    +0.106 A 
ATOM      9  S   UNL     1      -0.288  -0.880   2.518  0.00  0.00    -0.092 S 
ATOM     10  C   UNL     1       0.895  -0.503   1.162  0.00  0.00    +0.146 C 
ATOM     11  N   UNL     1      -2.310  -0.102  -1.942  0.00  0.00    -0.325 N 
ATOM     12  H   UNL     1      -1.451   0.276  -2.190  0.00  0.00    +0.148 HD
ENDROOT
BRANCH  10  13
ATOM     13  C   UNL     1       1.890   0.549   1.580  0.00  0.00    +0.230 C 
ATOM     14  O   UNL     1       1.721   1.168   2.609  0.00  0.00    -0.274 OA
ATOM     15  N   UNL     1       2.968   0.800   0.811  0.00  0.00    -0.294 N 
ATOM     16  C   UNL     1       3.954   1.817   1.205  0.00  0.00    +0.113 C 
ATOM     17  C   UNL     1       5.298   1.130   1.473  0.00  0.00    +0.056 C 
ATOM     18  C   UNL     1       5.577   0.147   0.365  0.00  0.00    -0.016 A 
ATOM     19  C   UNL     1       6.841  -0.459  -0.000  0.00  0.00    +0.003 A 
ATOM     20  C   UNL     1       8.134  -0.340   0.518  0.00  0.00    +0.010 A 
ATOM     21  C   UNL     1       9.117  -1.081  -0.090  0.00  0.00    +0.001 A 
ATOM     22  C   UNL     1       8.853  -1.911  -1.167  0.00  0.00    +0.002 A 
ATOM     23  C   UNL     1       7.583  -2.048  -1.700  0.00  0.00    +0.026 A 
ATOM     24  C   UNL     1       6.565  -1.308  -1.103  0.00  0.00    +0.047 A 
ATOM     25  N   UNL     1       5.229  -1.208  -1.368  0.00  0.00    -0.356 N 
ATOM     26  C   UNL     1       4.647  -0.335  -0.488  0.00  0.00    +0.038 A 
ATOM     27  H   UNL     1       4.763  -1.683  -2.074  0.00  0.00    +0.166 HD
ATOM     28  C   UNL     1       3.192   0.059  -0.442  0.00  0.00    +0.161 C 
ENDBRANCH  10  13
BRANCH  11  29
ATOM     29  C   UNL     1      -3.393  -0.168  -2.927  0.00  0.00    +0.138 C 
BRANCH  29  30
ATOM     30  C   UNL     1      -2.919   0.412  -4.235  0.00  0.00    -0.027 A 
ATOM     31  C   UNL     1      -3.075   1.762  -4.488  0.00  0.00    +0.009 A 
ATOM     32  C   UNL     1      -2.642   2.298  -5.686  0.00  0.00    +0.050 A 
ATOM     33  C   UNL     1      -2.050   1.483  -6.637  0.00  0.00    +0.166 A 
ATOM     34  C   UNL     1      -1.892   0.123  -6.382  0.00  0.00    +0.167 A 
ATOM     35  C   UNL     1      -2.324  -0.407  -5.176  0.00  0.00    +0.054 A 
ATOM     36  O   UNL     1      -1.290  -0.457  -7.461  0.00  0.00    -0.453 OA
ATOM     37  C   UNL     1      -1.450   0.482  -8.541  0.00  0.00    +0.466 C 
ATOM     38  O   UNL     1      -1.546   1.756  -7.876  0.00  0.00    -0.453 OA
ENDBRANCH  29  30
ENDBRANCH  11  29
TORSDOF 3
