REMARK  Name = ZINC67304179
REMARK  6 active torsions:
REMARK  status: ('A' for Active; 'I' for Inactive)
REMARK    1  A    between atoms: C_1  and  C_2
REMARK    2  A    between atoms: C_3  and  C_14
REMARK    3  A    between atoms: N_6  and  C_7
REMARK    4  A    between atoms: N_24  and  C_25
REMARK    5  A    between atoms: C_25  and  C_26
REMARK    6  A    between atoms: C_25  and  C_27
REMARK                            x       y       z     vdW  Elec       q    Type
REMARK                         _______ _______ _______ _____ _____    ______ ____
ROOT
ATOM      1  C   UNL     1      -0.453  -0.589  -2.443  0.00  0.00    +0.269 C 
ATOM      2  O   UNL     1      -0.572   0.587  -2.729  0.00  0.00    -0.268 OA
ATOM      3  N   UNL     1      -0.556  -1.530  -3.403  0.00  0.00    -0.293 N 
ATOM      4  C   UNL     1      -0.317  -2.946  -3.091  0.00  0.00    +0.127 C 
ATOM      5  C   UNL     1      -1.547  -3.756  -3.517  0.00  0.00    +0.128 C 
ATOM      6  N   UNL     1      -1.901  -3.385  -4.894  0.00  0.00    -0.283 N 
ATOM      7  C   UNL     1      -2.141  -1.968  -5.206  0.00  0.00    +0.128 C 
ATOM      8  C   UNL     1      -0.915  -1.159  -4.779  0.00  0.00    +0.127 C 
ATOM      9  C   UNL     1      -2.004  -4.325  -5.854  0.00  0.00    +0.302 C 
ATOM     10  O   UNL     1      -1.893  -5.501  -5.566  0.00  0.00    -0.253 OA
ATOM     11  N   UNL     1      -2.230  -3.962  -7.131  0.00  0.00    -0.297 N 
ATOM     12  H   UNL     1      -2.247  -3.023  -7.373  0.00  0.00    +0.150 HD
ENDROOT
BRANCH   1  15
ATOM     13  C   UNL     1      -0.415   1.341   0.016  0.00  0.00    +0.068 C 
ATOM     14  C   UNL     1      -0.179  -0.147   0.032  0.00  0.00    +0.074 A 
ATOM     15  C   UNL     1      -0.197  -0.986  -1.046  0.00  0.00    +0.170 A 
ATOM     16  N   UNL     1       0.057  -2.235  -0.618  0.00  0.00    -0.124 NA
ATOM     17  N   UNL     1       0.232  -2.226   0.658  0.00  0.00    -0.060 NA
ATOM     18  N   UNL     1       0.095  -0.908   1.114  0.00  0.00    -0.215 N 
BRANCH  18  19
ATOM     19  C   UNL     1       0.216  -0.464   2.439  0.00  0.00    +0.086 A 
ATOM     20  C   UNL     1       0.987   0.652   2.731  0.00  0.00    +0.029 A 
ATOM     21  C   UNL     1       1.105   1.087   4.037  0.00  0.00    +0.002 A 
ATOM     22  C   UNL     1       0.455   0.411   5.054  0.00  0.00    +0.002 A 
ATOM     23  C   UNL     1      -0.313  -0.702   4.767  0.00  0.00    +0.022 A 
ATOM     24  C   UNL     1      -0.439  -1.139   3.462  0.00  0.00    +0.066 A 
ATOM     25 CL   UNL     1      -1.410  -2.532   3.101  0.00  0.00    -0.081 Cl
ENDBRANCH  18  19
ENDBRANCH   1  15
BRANCH  11  26
ATOM     26  C   UNL     1      -2.451  -4.986  -8.156  0.00  0.00    +0.068 C 
ATOM     27  C   UNL     1      -3.927  -5.389  -8.163  0.00  0.00    +0.027 C 
ATOM     28  C   UNL     1      -2.068  -4.426  -9.527  0.00  0.00    +0.027 C 
ENDBRANCH  11  26
TORSDOF 3
