REMARK  Name = ZINC50980274
REMARK  7 active torsions:
REMARK  status: ('A' for Active; 'I' for Inactive)
REMARK    1  A    between atoms: C_1  and  C_2
REMARK    2  A    between atoms: C_2  and  C_3
REMARK    3  A    between atoms: C_3  and  C_4
REMARK    4  A    between atoms: C_7  and  N_9
REMARK    5  A    between atoms: C_10  and  C_12
REMARK    6  A    between atoms: C_12  and  N_13
REMARK    7  A    between atoms: C_14  and  C_16
REMARK                            x       y       z     vdW  Elec       q    Type
REMARK                         _______ _______ _______ _____ _____    ______ ____
ROOT
ATOM      1  N   UNL     1       1.447  -5.944  -0.914  0.00  0.00    -0.184 NA
ATOM      2  C   UNL     1       0.677  -6.891  -1.367  0.00  0.00    +0.266 C 
ATOM      3  O   UNL     1      -0.464  -6.579  -2.015  0.00  0.00    -0.269 OA
ENDROOT
BRANCH   1   7
ATOM      4  C   UNL     1       0.739  -2.004  -1.265  0.00  0.00    +0.104 A 
ATOM      5  N   UNL     1      -0.128  -2.861  -1.772  0.00  0.00    -0.144 NA
ATOM      6  N   UNL     1       0.037  -4.109  -1.695  0.00  0.00    -0.121 NA
ATOM      7  C   UNL     1       1.101  -4.637  -1.094  0.00  0.00    +0.218 A 
ATOM      8  S   UNL     1       1.949  -3.141  -0.596  0.00  0.00    -0.031 S 
BRANCH   4   9
ATOM      9  C   UNL     1       0.718  -0.497  -1.257  0.00  0.00    +0.064 C 
BRANCH   9  11
ATOM     10  C   UNL     1      -0.019   1.526   0.010  0.00  0.00    +0.004 C 
ATOM     11  C   UNL     1       0.002  -0.004   0.002  0.00  0.00    +0.003 C 
ENDBRANCH   9  11
ENDBRANCH   4   9
ENDBRANCH   1   7
BRANCH   2  12
ATOM     12  C   UNL     1       1.059  -8.334  -1.167  0.00  0.00    +0.205 C 
BRANCH  12  13
ATOM     13  N   UNL     1       2.330  -8.407  -0.442  0.00  0.00    -0.302 N 
ATOM     14  C   UNL     1       2.870  -9.606  -0.148  0.00  0.00    +0.251 C 
ATOM     15  O   UNL     1       2.303 -10.629  -0.486  0.00  0.00    -0.270 OA
ATOM     16  H   UNL     1       2.782  -7.592  -0.172  0.00  0.00    +0.150 HD
BRANCH  14  17
ATOM     17  C   UNL     1       4.141  -9.679   0.578  0.00  0.00    +0.075 A 
ATOM     18  C   UNL     1       4.862 -10.798   0.968  0.00  0.00    +0.022 A 
ATOM     19  C   UNL     1       6.032 -10.548   1.643  0.00  0.00    +0.024 A 
ATOM     20  C   UNL     1       6.397  -9.262   1.877  0.00  0.00    +0.056 A 
ATOM     21  S   UNL     1       5.167  -8.352   1.182  0.00  0.00    -0.077 S 
ATOM     22 BR   UNL     1       7.940  -8.636   2.773  0.00  0.00    -0.043 Br
ENDBRANCH  14  17
ENDBRANCH  12  13
ENDBRANCH   2  12
TORSDOF 6
