REMARK  Name = ZINC09653639
REMARK  9 active torsions:
REMARK  status: ('A' for Active; 'I' for Inactive)
REMARK    1  A    between atoms: C_1  and  O_2
REMARK    2  A    between atoms: O_2  and  C_3
REMARK    3  A    between atoms: C_3  and  C_4
REMARK    4  A    between atoms: C_4  and  N_5
REMARK    5  A    between atoms: C_6  and  N_26
REMARK    6  A    between atoms: C_7  and  C_14
REMARK    7  A    between atoms: C_14  and  C_16
REMARK    8  A    between atoms: C_16  and  O_17
REMARK    9  A    between atoms: O_17  and  C_18
REMARK                            x       y       z     vdW  Elec       q    Type
REMARK                         _______ _______ _______ _____ _____    ______ ____
ROOT
ATOM      1  N   UNL     1       0.025  -0.004   0.007  0.00  0.00    -0.279 N 
ATOM      2  C   UNL     1       0.017  -0.662  -1.190  0.00  0.00    +0.116 A 
ATOM      3  C   UNL     1       0.017  -2.068  -1.192  0.00  0.00    +0.123 A 
ATOM      4  C   UNL     1       0.015  -2.757   0.105  0.00  0.00    +0.266 A 
ATOM      5  O   UNL     1       0.011  -3.973   0.162  0.00  0.00    -0.267 OA
ATOM      6  N   UNL     1       0.018  -2.014   1.231  0.00  0.00    -0.274 N 
ATOM      7  H   UNL     1       0.018  -2.468   2.122  0.00  0.00    +0.173 HD
ATOM      8  C   UNL     1       0.023  -0.672   1.171  0.00  0.00    +0.331 A 
ATOM      9  O   UNL     1       0.026  -0.040   2.209  0.00  0.00    -0.246 OA
ENDROOT
BRANCH   2  10
ATOM     10  N   UNL     1       0.014   0.032  -2.360  0.00  0.00    -0.344 N 
ATOM     11  H   UNL     1       0.364  -0.377  -3.167  0.00  0.00    +0.144 HD
ATOM     12  H   UNL     1      -0.339   0.935  -2.388  0.00  0.00    +0.144 HD
ENDBRANCH   2  10
BRANCH   3  13
ATOM     13  C   UNL     1       0.013  -2.794  -2.403  0.00  0.00    +0.209 C 
ATOM     14  O   UNL     1      -0.097  -2.209  -3.461  0.00  0.00    -0.288 OA
BRANCH  13  15
ATOM     15  C   UNL     1       0.146  -4.295  -2.381  0.00  0.00    +0.308 C 
BRANCH  15  16
ATOM     16  O   UNL     1       0.115  -4.795  -3.720  0.00  0.00    -0.483 OA
BRANCH  16  17
ATOM     17  C   UNL     1       0.225  -6.140  -3.879  0.00  0.00    +0.135 A 
ATOM     18  C   UNL     1       0.359  -6.962  -2.769  0.00  0.00    +0.048 A 
ATOM     19  C   UNL     1       0.470  -8.329  -2.933  0.00  0.00    +0.019 A 
ATOM     20  C   UNL     1       0.447  -8.880  -4.202  0.00  0.00    +0.019 A 
ATOM     21  C   UNL     1       0.314  -8.062  -5.310  0.00  0.00    +0.034 A 
ATOM     22  C   UNL     1       0.197  -6.694  -5.151  0.00  0.00    +0.061 A 
ATOM     23 BR   UNL     1       0.006  -5.578  -6.665  0.00  0.00    -0.046 Br
ATOM     24 BR   UNL     1       0.599 -10.752  -4.422  0.00  0.00    -0.050 Br
ENDBRANCH  16  17
ENDBRANCH  15  16
ENDBRANCH  13  15
ENDBRANCH   3  13
BRANCH   1  25
ATOM     25  C   UNL     1       0.030   1.461   0.021  0.00  0.00    +0.156 C 
BRANCH  25  26
ATOM     26  C   UNL     1       1.474   1.966   0.025  0.00  0.00    +0.181 C 
BRANCH  26  28
ATOM     27  C   UNL     1       3.472   2.023  -1.298  0.00  0.00    +0.194 C 
ATOM     28  O   UNL     1       2.112   1.597  -1.199  0.00  0.00    -0.381 OA
ENDBRANCH  26  28
ENDBRANCH  25  26
ENDBRANCH   1  25
TORSDOF 8
