REMARK  Name = ZINC38600210
REMARK  9 active torsions:
REMARK  status: ('A' for Active; 'I' for Inactive)
REMARK    1  A    between atoms: C_1  and  C_2
REMARK    2  A    between atoms: C_7  and  C_30
REMARK    3  A    between atoms: C_9  and  N_12
REMARK    4  A    between atoms: C_13  and  C_15
REMARK    5  A    between atoms: C_15  and  C_17
REMARK    6  A    between atoms: C_15  and  N_18
REMARK    7  A    between atoms: N_21  and  C_24
REMARK    8  A    between atoms: C_30  and  O_32
REMARK    9  A    between atoms: O_32  and  C_33
REMARK                            x       y       z     vdW  Elec       q    Type
REMARK                         _______ _______ _______ _____ _____    ______ ____
ROOT
ATOM      1  N   UNL     1      -1.102  -3.818   2.896  0.00  0.00    -0.285 N 
ATOM      2  C   UNL     1      -0.780  -2.911   3.840  0.00  0.00    +0.234 C 
ATOM      3  O   UNL     1      -0.683  -1.738   3.546  0.00  0.00    -0.274 OA
ATOM      4  H   UNL     1      -1.239  -4.746   3.142  0.00  0.00    +0.155 HD
ENDROOT
BRANCH   1  12
ATOM      5  C   UNL     1      -2.058  -7.672  -0.976  0.00  0.00    +0.044 C 
ATOM      6  C   UNL     1      -1.875  -6.181  -0.851  0.00  0.00    -0.050 A 
ATOM      7  C   UNL     1      -1.942  -5.388  -1.999  0.00  0.00    +0.005 A 
ATOM      8  C   UNL     1      -1.786  -4.043  -1.950  0.00  0.00    +0.026 A 
ATOM      9  C   UNL     1      -1.546  -3.405  -0.705  0.00  0.00    +0.045 A 
ATOM     10  N   UNL     1      -1.363  -2.137  -0.396  0.00  0.00    -0.367 N 
ATOM     11  C   UNL     1      -1.153  -2.022   1.051  0.00  0.00    +0.234 C 
ATOM     12  C   UNL     1      -1.236  -3.430   1.597  0.00  0.00    +0.053 C 
ATOM     13  C   UNL     1      -1.475  -4.244   0.503  0.00  0.00    +0.018 A 
ATOM     14  C   UNL     1      -1.654  -5.643   0.374  0.00  0.00    +0.015 A 
ATOM     15  H   UNL     1      -1.365  -1.399  -1.025  0.00  0.00    +0.161 HD
BRANCH  11  16
ATOM     16  C   UNL     1      -2.228  -1.162   1.664  0.00  0.00    +0.335 C 
ATOM     17  O   UNL     1      -3.374  -1.277   1.301  0.00  0.00    -0.248 OA
BRANCH  16  18
ATOM     18  O   UNL     1      -1.911  -0.268   2.614  0.00  0.00    -0.466 OA
ATOM     19  C   UNL     1      -2.980   0.513   3.151  0.00  0.00    +0.280 C 
ENDBRANCH  16  18
ENDBRANCH  11  16
ENDBRANCH   1  12
BRANCH   2  20
ATOM     20  C   UNL     1      -0.540  -3.354   5.260  0.00  0.00    +0.140 C 
ATOM     21  C   UNL     1       0.836  -4.014   5.363  0.00  0.00    +0.034 C 
BRANCH  20  22
ATOM     22  N   UNL     1      -0.592  -2.188   6.152  0.00  0.00    -0.295 NA
ATOM     23  C   UNL     1      -0.746  -2.603   7.553  0.00  0.00    +0.066 C 
ATOM     24  C   UNL     1      -0.855  -1.362   8.441  0.00  0.00    -0.063 C 
ATOM     25  N   UNL     1       0.353  -0.541   8.286  0.00  0.00    +0.383 N 
ATOM     26  C   UNL     1       0.480  -0.113   6.886  0.00  0.00    -0.063 C 
ATOM     27  C   UNL     1       0.600  -1.344   5.986  0.00  0.00    +0.066 C 
ATOM     28  H   UNL     1       1.164  -1.082   8.547  0.00  0.00    -0.081 HD
BRANCH  25  29
ATOM     29  C   UNL     1       0.256   0.642   9.152  0.00  0.00    -0.068 C 
ATOM     30  C   UNL     1       1.514   1.497   8.990  0.00  0.00    -0.015 C 
ATOM     31  C   UNL     1       1.413   2.729   9.892  0.00  0.00    -0.002 C 
ATOM     32  C   UNL     1       1.283   2.284  11.350  0.00  0.00    -0.000 C 
ATOM     33  C   UNL     1       0.024   1.429  11.512  0.00  0.00    -0.002 C 
ATOM     34  C   UNL     1       0.126   0.197  10.610  0.00  0.00    -0.015 C 
ENDBRANCH  25  29
ENDBRANCH  20  22
ENDBRANCH   2  20
TORSDOF 6
