REMARK  Name = ZINC21149836
REMARK  3 active torsions:
REMARK  status: ('A' for Active; 'I' for Inactive)
REMARK    1  A    between atoms: C_4  and  C_7
REMARK    2  A    between atoms: C_7  and  N_8
REMARK    3  A    between atoms: C_27  and  C_30
REMARK                            x       y       z     vdW  Elec       q    Type
REMARK                         _______ _______ _______ _____ _____    ______ ____
ROOT
ATOM      1  N   UNL     1      -0.806   5.751  -0.544  0.00  0.00    -0.217 N 
ATOM      2  C   UNL     1      -0.159   4.600  -0.821  0.00  0.00    +0.261 C 
ATOM      3  O   UNL     1       0.276   4.385  -1.938  0.00  0.00    -0.269 OA
ATOM      4  C   UNL     1       0.010   3.612   0.251  0.00  0.00    +0.116 C 
ATOM      5  C   UNL     1      -0.516   3.915   1.509  0.00  0.00    +0.258 C 
ATOM      6  N   UNL     1      -1.149   5.111   1.693  0.00  0.00    -0.235 N 
ATOM      7  H   UNL     1      -1.560   5.370   2.680  0.00  0.00    +0.159 HD
ATOM      8  C   UNL     1      -1.286   5.990   0.687  0.00  0.00    +0.316 C 
ATOM      9  O   UNL     1      -1.863   7.038   0.899  0.00  0.00    -0.252 OA
ATOM     10  O   UNL     1      -0.394   3.043   2.528  0.00  0.00    -0.270 OA
ATOM     11  C   UNL     1       0.704   2.346   0.008  0.00  0.00    +0.027 C 
ATOM     12  N   UNL     1       0.002   1.430  -0.462  0.00  0.00    -0.316 N 
ATOM     13  C   UNL     1      -0.021   0.127  -0.744  0.00  0.00    +0.045 A 
ATOM     14  C   UNL     1      -1.282  -0.372  -1.141  0.00  0.00    +0.024 A 
ATOM     15  C   UNL     1      -1.468  -1.696  -1.448  0.00  0.00    +0.002 A 
ATOM     16  C   UNL     1      -0.402  -2.577  -1.372  0.00  0.00    +0.001 A 
ATOM     17  C   UNL     1       0.836  -2.113  -0.995  0.00  0.00    +0.016 A 
ATOM     18  C   UNL     1       1.052  -0.765  -0.686  0.00  0.00    +0.030 A 
ATOM     19  S   UNL     1       2.683  -0.306  -0.252  0.00  0.00    -0.114 S 
ATOM     20  C   UNL     1       2.587   1.019   0.944  0.00  0.00    +0.094 C 
ATOM     21  C   UNL     1       2.151   2.329   0.355  0.00  0.00    +0.071 C 
ATOM     22  H   UNL     1      -1.016   1.645  -0.819  0.00  0.00    +0.152 HD
ENDROOT
BRANCH  20  23
ATOM     23  C   UNL     1       3.946   1.202   1.570  0.00  0.00    +0.003 A 
ATOM     24  C   UNL     1       4.306   1.100   2.873  0.00  0.00    +0.012 A 
ATOM     25  C   UNL     1       5.628   1.309   3.221  0.00  0.00    +0.008 A 
ATOM     26  C   UNL     1       6.521   1.621   2.251  0.00  0.00    +0.045 A 
ATOM     27  S   UNL     1       5.496   1.619   0.789  0.00  0.00    -0.100 S 
ENDBRANCH  20  23
BRANCH   1  28
ATOM     28  C   UNL     1      -0.987   6.752  -1.599  0.00  0.00    +0.153 C 
BRANCH  28  32
ATOM     29  C   UNL     1      -4.658   6.008  -3.654  0.00  0.00    +0.000 A 
ATOM     30  C   UNL     1      -4.640   6.838  -2.548  0.00  0.00    +0.000 A 
ATOM     31  C   UNL     1      -3.452   7.079  -1.883  0.00  0.00    +0.005 A 
ATOM     32  C   UNL     1      -2.282   6.489  -2.324  0.00  0.00    -0.030 A 
ATOM     33  C   UNL     1      -2.299   5.663  -3.432  0.00  0.00    +0.005 A 
ATOM     34  C   UNL     1      -3.487   5.418  -4.094  0.00  0.00    +0.000 A 
ENDBRANCH  28  32
ENDBRANCH   1  28
TORSDOF 3
