REMARK  Name = ZINC34892459
REMARK  8 active torsions:
REMARK  status: ('A' for Active; 'I' for Inactive)
REMARK    1  A    between atoms: C_1  and  C_2
REMARK    2  A    between atoms: C_11  and  S_15
REMARK    3  A    between atoms: S_15  and  C_16
REMARK    4  A    between atoms: C_16  and  C_17
REMARK    5  A    between atoms: C_21  and  C_24
REMARK    6  A    between atoms: C_27  and  N_30
REMARK    7  A    between atoms: N_30  and  C_31
REMARK    8  A    between atoms: N_30  and  C_32
REMARK                            x       y       z     vdW  Elec       q    Type
REMARK                         _______ _______ _______ _____ _____    ______ ____
ROOT
ATOM      1  C   UNL     1      -3.524  -6.153  -0.869  0.00  0.00    +0.105 C 
ENDROOT
BRANCH   1   2
ATOM      2  C   UNL     1      -4.607  -5.928  -1.926  0.00  0.00    +0.110 C 
ATOM      3  C   UNL     1      -5.316  -7.262  -2.269  0.00  0.00    -0.046 C 
ATOM      4  N   UNL     1      -6.642  -6.777  -2.745  0.00  0.00    +0.401 N 
ATOM      5  C   UNL     1      -6.912  -5.598  -1.893  0.00  0.00    +0.094 C 
ATOM      6  O   UNL     1      -5.659  -5.098  -1.403  0.00  0.00    -0.388 OA
ATOM      7  H   UNL     1      -6.593  -6.508  -3.716  0.00  0.00    -0.081 HD
ATOM      8  H   UNL     1      -7.349  -7.484  -2.606  0.00  0.00    -0.081 HD
BRANCH   5   9
ATOM      9  C   UNL     1      -7.599  -4.531  -2.705  0.00  0.00    -0.036 A 
ATOM     10  C   UNL     1      -8.553  -4.883  -3.642  0.00  0.00    +0.006 A 
ATOM     11  C   UNL     1      -9.184  -3.907  -4.388  0.00  0.00    +0.023 A 
ATOM     12  C   UNL     1      -8.860  -2.570  -4.196  0.00  0.00    +0.029 A 
ATOM     13  C   UNL     1      -7.901  -2.220  -3.254  0.00  0.00    +0.023 A 
ATOM     14  C   UNL     1      -7.277  -3.200  -2.508  0.00  0.00    +0.006 A 
BRANCH  12  15
ATOM     15  N   UNL     1      -9.496  -1.581  -4.949  0.00  0.00    -0.336 N 
ATOM     16  C   UNL     1     -10.507  -1.952  -5.942  0.00  0.00    +0.129 C 
ATOM     17  C   UNL     1      -9.153  -0.171  -4.746  0.00  0.00    +0.129 C 
ENDBRANCH  12  15
ENDBRANCH   5   9
ENDBRANCH   1   2
BRANCH   1  18
ATOM     18  S   UNL     1      -2.753  -4.567  -0.447  0.00  0.00    -0.103 S 
BRANCH  18  28
ATOM     19  C   UNL     1      -0.353   1.689   0.508  0.00  0.00    +0.008 C 
ATOM     20  C   UNL     1      -0.280   0.162   0.458  0.00  0.00    -0.009 C 
ATOM     21  C   UNL     1      -1.696  -0.419   0.399  0.00  0.00    +0.008 C 
ATOM     22  C   UNL     1      -1.630  -1.917   0.101  0.00  0.00    +0.037 C 
ATOM     23  C   UNL     1      -0.693  -2.580   1.107  0.00  0.00    -0.025 A 
ATOM     24  C   UNL     1       0.200  -1.842   1.805  0.00  0.00    -0.004 A 
ATOM     25  S   UNL     1       1.063  -3.003   2.834  0.00  0.00    -0.073 S 
ATOM     26  C   UNL     1       0.229  -4.473   2.332  0.00  0.00    +0.113 A 
ATOM     27  C   UNL     1      -0.704  -4.010   1.369  0.00  0.00    +0.043 A 
ATOM     28  C   UNL     1      -1.545  -4.989   0.765  0.00  0.00    +0.109 A 
ATOM     29  N   UNL     1      -1.363  -6.244   1.176  0.00  0.00    -0.229 NA
ATOM     30  C   UNL     1      -0.472  -6.600   2.079  0.00  0.00    +0.223 A 
ATOM     31  N   UNL     1       0.342  -5.739   2.679  0.00  0.00    -0.228 NA
ATOM     32  C   UNL     1       0.417  -0.362   1.722  0.00  0.00    +0.046 C 
ENDBRANCH  18  28
ENDBRANCH   1  18
TORSDOF 5
