REMARK  Name = ZINC18939435
REMARK  16 active torsions:
REMARK  status: ('A' for Active; 'I' for Inactive)
REMARK    1  A    between atoms: C_1  and  C_2
REMARK    2  A    between atoms: C_2  and  C_3
REMARK    3  A    between atoms: C_3  and  C_4
REMARK    4  A    between atoms: C_4  and  N_5
REMARK    5  A    between atoms: N_5  and  C_6
REMARK    6  A    between atoms: C_7  and  N_19
REMARK    7  A    between atoms: N_8  and  C_15
REMARK    8  A    between atoms: C_15  and  C_16
REMARK    9  A    between atoms: C_16  and  C_17
REMARK   10  A    between atoms: C_16  and  C_18
REMARK   11  A    between atoms: C_20  and  C_22
REMARK   12  A    between atoms: C_22  and  N_64
REMARK   13  A    between atoms: C_23  and  C_24
REMARK   14  A    between atoms: C_23  and  N_64
REMARK   15  A    between atoms: C_26  and  C_27
REMARK   16  A    between atoms: C_26  and  N_64
REMARK                            x       y       z     vdW  Elec       q    Type
REMARK                         _______ _______ _______ _____ _____    ______ ____
ROOT
ATOM      1  N   UNL     1       6.030  -1.758  -3.562  0.00  0.00    -0.266 N 
ATOM      2  C   UNL     1       5.172  -0.753  -3.290  0.00  0.00    +0.203 C 
ATOM      3  O   UNL     1       4.607  -0.176  -4.196  0.00  0.00    -0.277 OA
ENDROOT
BRANCH   1   4
ATOM      4  C   UNL     1       6.354  -2.067  -4.900  0.00  0.00    +0.140 A 
ATOM      5  C   UNL     1       5.386  -2.535  -5.766  0.00  0.00    +0.127 A 
ATOM      6  N   UNL     1       5.733  -2.827  -7.065  0.00  0.00    -0.280 N 
ATOM      7  C   UNL     1       7.000  -2.659  -7.486  0.00  0.00    +0.331 A 
ATOM      8  O   UNL     1       7.286  -2.924  -8.638  0.00  0.00    -0.246 OA
ATOM      9  N   UNL     1       7.955  -2.205  -6.656  0.00  0.00    -0.273 N 
ATOM     10  H   UNL     1       8.890  -2.093  -6.993  0.00  0.00    +0.173 HD
ATOM     11  C   UNL     1       7.667  -1.898  -5.376  0.00  0.00    +0.277 A 
ATOM     12  O   UNL     1       8.540  -1.482  -4.634  0.00  0.00    -0.266 OA
BRANCH   5  13
ATOM     13  N   UNL     1       4.093  -2.707  -5.336  0.00  0.00    -0.343 N 
ATOM     14  H   UNL     1       3.849  -2.474  -4.427  0.00  0.00    +0.144 HD
ATOM     15  H   UNL     1       3.423  -3.061  -5.942  0.00  0.00    +0.144 HD
ENDBRANCH   5  13
BRANCH   6  16
ATOM     16  C   UNL     1       4.716  -3.324  -7.995  0.00  0.00    +0.131 C 
BRANCH  16  17
ATOM     17  C   UNL     1       4.054  -2.142  -8.707  0.00  0.00    +0.003 C 
ATOM     18  C   UNL     1       5.088  -1.429  -9.580  0.00  0.00    +0.009 C 
ATOM     19  C   UNL     1       2.909  -2.651  -9.584  0.00  0.00    +0.009 C 
ENDBRANCH  16  17
ENDBRANCH   6  16
ENDBRANCH   1   4
BRANCH   1  20
ATOM     20  C   UNL     1       6.625  -2.529  -2.468  0.00  0.00    +0.114 C 
BRANCH  20  21
ATOM     21  C   UNL     1       5.766  -3.764  -2.187  0.00  0.00    +0.019 C 
BRANCH  21  23
ATOM     22  C   UNL     1       5.528  -5.803  -0.763  0.00  0.00    +0.004 C 
ATOM     23  C   UNL     1       6.388  -4.569  -1.044  0.00  0.00    -0.002 C 
ENDBRANCH  21  23
ENDBRANCH  20  21
ENDBRANCH   1  20
BRANCH   2  24
ATOM     24  C   UNL     1       4.915  -0.347  -1.862  0.00  0.00    +0.020 C 
BRANCH  24  25
ATOM     25  N   UNL     1       3.964   0.784  -1.855  0.00  0.00    +0.391 N 
ATOM     26  H   UNL     1       4.218   1.438  -2.604  0.00  0.00    -0.080 HD
BRANCH  25  27
ATOM     27  C   UNL     1       4.028   1.490  -0.558  0.00  0.00    -0.051 C 
BRANCH  27  28
ATOM     28  C   UNL     1       5.303   2.293  -0.507  0.00  0.00    -0.053 C 
ATOM     29  C   UNL     1       5.258   3.578  -0.258  0.00  0.00    +0.002 C 
ENDBRANCH  27  28
ENDBRANCH  25  27
BRANCH  25  30
ATOM     30  C   UNL     1       2.591   0.291  -2.094  0.00  0.00    -0.034 C 
BRANCH  30  31
ATOM     31  C   UNL     1       1.679   1.473  -2.301  0.00  0.00    -0.025 A 
ATOM     32  C   UNL     1       1.368   2.119  -3.451  0.00  0.00    +0.011 A 
ATOM     33  C   UNL     1       0.498   3.193  -3.403  0.00  0.00    +0.028 A 
ATOM     34  C   UNL     1      -0.017   3.568  -2.205  0.00  0.00    +0.078 A 
ATOM     35  S   UNL     1       0.731   2.386  -1.095  0.00  0.00    -0.084 S 
ATOM     36 CL   UNL     1      -1.114   4.864  -1.844  0.00  0.00    -0.076 Cl
ENDBRANCH  30  31
ENDBRANCH  25  30
ENDBRANCH  24  25
ENDBRANCH   2  24
TORSDOF 13
