REMARK  Name = ZINC02595251
REMARK  6 active torsions:
REMARK  status: ('A' for Active; 'I' for Inactive)
REMARK    1  A    between atoms: C_1  and  C_2
REMARK    2  A    between atoms: C_9  and  N_14
REMARK    3  A    between atoms: C_10  and  C_11
REMARK    4  A    between atoms: N_14  and  C_15
REMARK    5  A    between atoms: C_15  and  N_17
REMARK    6  A    between atoms: C_18  and  C_20
REMARK                            x       y       z     vdW  Elec       q    Type
REMARK                         _______ _______ _______ _____ _____    ______ ____
ROOT
ATOM      1  C   UNL     1      14.014  -1.535  -0.231  0.00  0.00    +0.008 C 
ATOM      2  C   UNL     1      12.572  -1.967  -0.505  0.00  0.00    -0.009 C 
ATOM      3  C   UNL     1      12.239  -3.208   0.329  0.00  0.00    +0.008 C 
ATOM      4  C   UNL     1      10.897  -3.790  -0.117  0.00  0.00    +0.037 C 
ATOM      5  C   UNL     1       9.852  -2.681  -0.102  0.00  0.00    -0.023 A 
ATOM      6  C   UNL     1      10.217  -1.381  -0.100  0.00  0.00    -0.004 A 
ATOM      7  S   UNL     1       8.692  -0.482  -0.080  0.00  0.00    -0.077 S 
ATOM      8  C   UNL     1       7.583  -1.814  -0.077  0.00  0.00    +0.084 A 
ATOM      9  C   UNL     1       8.419  -2.922  -0.084  0.00  0.00    +0.068 A 
ATOM     10  C   UNL     1      11.612  -0.835  -0.111  0.00  0.00    +0.046 C 
ENDROOT
BRANCH   9  11
ATOM     11  C   UNL     1       7.876  -4.283  -0.079  0.00  0.00    +0.244 C 
ATOM     12  O   UNL     1       7.641  -4.849  -1.130  0.00  0.00    -0.270 OA
ATOM     13  N   UNL     1       7.637  -4.909   1.091  0.00  0.00    -0.325 N 
ATOM     14  H   UNL     1       7.825  -4.457   1.929  0.00  0.00    +0.145 HD
ATOM     15  H   UNL     1       7.278  -5.810   1.095  0.00  0.00    +0.145 HD
ENDBRANCH   9  11
BRANCH   8  16
ATOM     16  N   UNL     1       6.198  -1.780  -0.064  0.00  0.00    -0.291 N 
ATOM     17  H   UNL     1       5.693  -2.608  -0.063  0.00  0.00    +0.154 HD
BRANCH  16  18
ATOM     18  C   UNL     1       5.553  -0.597  -0.052  0.00  0.00    +0.142 C 
ATOM     19  S   UNL     1       6.444   0.865  -0.054  0.00  0.00    -0.018 S 
BRANCH  18  20
ATOM     20  N   UNL     1       4.205  -0.564  -0.040  0.00  0.00    -0.261 N 
ATOM     21  C   UNL     1       3.560   0.619  -0.028  0.00  0.00    +0.285 C 
ATOM     22  O   UNL     1       4.194   1.657  -0.029  0.00  0.00    -0.266 OA
ATOM     23  H   UNL     1       3.700  -1.392  -0.039  0.00  0.00    +0.157 HD
BRANCH  21  24
ATOM     24  C   UNL     1       2.095   0.654  -0.014  0.00  0.00    +0.189 A 
ATOM     25  C   UNL     1       1.319   1.779  -0.001  0.00  0.00    +0.054 A 
ATOM     26  C   UNL     1      -0.016   1.347   0.009  0.00  0.00    +0.042 A 
ATOM     27  C   UNL     1       0.002  -0.004   0.002  0.00  0.00    +0.196 A 
ATOM     28  O   UNL     1       1.276  -0.418  -0.012  0.00  0.00    -0.458 OA
ENDBRANCH  21  24
ENDBRANCH  18  20
ENDBRANCH  16  18
ENDBRANCH   8  16
TORSDOF 5
