REMARK  Name = ZINC39656091
REMARK  11 active torsions:
REMARK  status: ('A' for Active; 'I' for Inactive)
REMARK    1  A    between atoms: C_1  and  C_2
REMARK    2  A    between atoms: C_8  and  C_11
REMARK    3  A    between atoms: C_11  and  C_12
REMARK    4  A    between atoms: C_12  and  N_13
REMARK    5  A    between atoms: C_14  and  C_16
REMARK    6  A    between atoms: C_27  and  C_29
REMARK    7  A    between atoms: C_32  and  C_39
REMARK    8  A    between atoms: N_34  and  C_35
REMARK    9  A    between atoms: C_35  and  C_36
REMARK   10  A    between atoms: C_35  and  C_37
REMARK   11  A    between atoms: C_35  and  C_38
REMARK                            x       y       z     vdW  Elec       q    Type
REMARK                         _______ _______ _______ _____ _____    ______ ____
ROOT
ATOM      1  C   UNL     1       6.005   0.648  -7.684  0.00  0.00    +0.100 C 
ATOM      2  C   UNL     1       6.723   0.683  -6.316  0.00  0.00    +0.121 C 
ATOM      3  N   UNL     1       6.596  -0.697  -5.791  0.00  0.00    -0.299 N 
ATOM      4  C   UNL     1       6.789  -1.563  -6.979  0.00  0.00    +0.115 C 
ATOM      5  C   UNL     1       6.054  -0.827  -8.118  0.00  0.00    -0.004 C 
ATOM      6  C   UNL     1       6.828  -0.968  -9.425  0.00  0.00    -0.010 C 
ATOM      7  C   UNL     1       6.813  -2.434  -9.866  0.00  0.00    -0.082 C 
ATOM      8  N   UNL     1       5.426  -2.879 -10.045  0.00  0.00    +0.379 N 
ATOM      9  C   UNL     1       4.713  -2.828  -8.763  0.00  0.00    -0.082 C 
ATOM     10  C   UNL     1       4.640  -1.378  -8.275  0.00  0.00    -0.010 C 
ATOM     11  C   UNL     1       6.360  -1.079  -4.521  0.00  0.00    +0.238 C 
ATOM     12  O   UNL     1       6.283  -2.258  -4.246  0.00  0.00    -0.273 OA
ATOM     13  H   UNL     1       4.964  -2.276 -10.709  0.00  0.00    -0.086 HD
ATOM     14  H   UNL     1       5.420  -3.826 -10.395  0.00  0.00    -0.086 HD
ENDROOT
BRANCH  11  15
ATOM     15  C   UNL     1       6.191  -0.042  -3.441  0.00  0.00    +0.184 C 
ATOM     16  C   UNL     1       4.702   0.311  -3.253  0.00  0.00    +0.085 C 
ATOM     17  C   UNL     1       4.413  -0.088  -1.823  0.00  0.00    +0.036 C 
ATOM     18  N   UNL     1       5.464  -0.561  -1.290  0.00  0.00    -0.192 NA
ATOM     19  N   UNL     1       6.580  -0.588  -2.130  0.00  0.00    -0.238 N 
ATOM     20  C   UNL     1       3.080   0.053  -1.136  0.00  0.00    +0.062 C 
BRANCH  19  21
ATOM     21  C   UNL     1       7.913  -1.078  -1.771  0.00  0.00    +0.044 C 
ATOM     22  C   UNL     1       8.868  -0.867  -2.947  0.00  0.00    +0.033 C 
ATOM     23  C   UNL     1       8.428  -0.310  -0.552  0.00  0.00    +0.033 C 
ATOM     24  C   UNL     1       7.835  -2.570  -1.439  0.00  0.00    +0.033 C 
ENDBRANCH  19  21
ENDBRANCH  11  15
BRANCH   1  26
ATOM     25  N   UNL     1       3.957   1.716  -8.568  0.00  0.00    -0.315 N 
ATOM     26  C   UNL     1       4.577   1.105  -7.539  0.00  0.00    +0.218 C 
ATOM     27  O   UNL     1       3.985   0.924  -6.496  0.00  0.00    -0.275 OA
ATOM     28  H   UNL     1       4.430   1.860  -9.402  0.00  0.00    +0.149 HD
BRANCH  25  29
ATOM     29  C   UNL     1       2.568   2.160  -8.427  0.00  0.00    +0.109 C 
BRANCH  29  30
ATOM     30  C   UNL     1       2.108   2.817  -9.730  0.00  0.00    +0.056 C 
BRANCH  30  38
ATOM     31  C   UNL     1       0.851   7.901  -7.410  0.00  0.00    +0.044 C 
ATOM     32  C   UNL     1       0.146   6.708  -8.003  0.00  0.00    -0.050 A 
ATOM     33  C   UNL     1      -1.240   6.693  -8.076  0.00  0.00    +0.005 A 
ATOM     34  C   UNL     1      -1.904   5.612  -8.615  0.00  0.00    +0.026 A 
ATOM     35  C   UNL     1      -1.180   4.524  -9.090  0.00  0.00    +0.047 A 
ATOM     36  N   UNL     1      -1.538   3.326  -9.667  0.00  0.00    -0.360 N 
ATOM     37  C   UNL     1      -0.418   2.595  -9.956  0.00  0.00    +0.087 A 
ATOM     38  C   UNL     1       0.679   3.274  -9.585  0.00  0.00    -0.021 A 
ATOM     39  C   UNL     1       0.225   4.544  -9.013  0.00  0.00    +0.003 A 
ATOM     40  C   UNL     1       0.877   5.651  -8.469  0.00  0.00    +0.013 A 
ATOM     41  H   UNL     1      -2.449   3.043  -9.843  0.00  0.00    +0.165 HD
ENDBRANCH  30  38
ENDBRANCH  29  30
ENDBRANCH  25  29
ENDBRANCH   1  26
TORSDOF 6
