REMARK  Name = ZINC09610593
REMARK  5 active torsions:
REMARK  status: ('A' for Active; 'I' for Inactive)
REMARK    1  A    between atoms: C_4  and  C_7
REMARK    2  A    between atoms: C_7  and  C_9
REMARK    3  A    between atoms: C_7  and  N_23
REMARK    4  A    between atoms: N_23  and  S_24
REMARK    5  A    between atoms: S_24  and  C_27
REMARK                            x       y       z     vdW  Elec       q    Type
REMARK                         _______ _______ _______ _____ _____    ______ ____
ROOT
ATOM      1  C   UNL     1       3.747  -0.697  -0.008  0.00  0.00    +0.192 C 
ENDROOT
BRANCH   1   2
ATOM      2  C   UNL     1       3.960  -1.245  -1.395  0.00  0.00    +0.239 C 
ATOM      3  O   UNL     1       3.622  -2.380  -1.658  0.00  0.00    -0.273 OA
ATOM      4  N   UNL     1       4.526  -0.474  -2.345  0.00  0.00    -0.297 N 
ATOM      5  C   UNL     1       5.043   0.861  -2.014  0.00  0.00    +0.127 C 
ATOM      6  C   UNL     1       6.514   0.937  -2.442  0.00  0.00    +0.125 C 
ATOM      7  N   UNL     1       6.626   0.457  -3.827  0.00  0.00    -0.314 N 
ATOM      8  C   UNL     1       6.109  -0.878  -4.157  0.00  0.00    +0.125 C 
ATOM      9  C   UNL     1       4.643  -0.956  -3.728  0.00  0.00    +0.127 C 
ATOM     10  C   UNL     1       7.210   1.252  -4.806  0.00  0.00    +0.099 A 
ATOM     11  C   UNL     1       7.576   2.560  -4.504  0.00  0.00    +0.042 A 
ATOM     12  C   UNL     1       8.156   3.340  -5.488  0.00  0.00    +0.005 A 
ATOM     13  C   UNL     1       8.351   2.784  -6.746  0.00  0.00    +0.018 A 
ATOM     14  C   UNL     1       7.964   1.479  -6.976  0.00  0.00    +0.084 A 
ATOM     15  N   UNL     1       7.417   0.756  -6.016  0.00  0.00    -0.350 N 
ATOM     16  H   UNL     1       7.158  -0.159  -6.203  0.00  0.00    +0.166 HD
ENDBRANCH   1   2
BRANCH   1  20
ATOM     17  C   UNL     1       0.089   1.505   0.106  0.00  0.00    +0.000 A 
ATOM     18  C   UNL     1       1.299   2.174   0.100  0.00  0.00    +0.000 A 
ATOM     19  C   UNL     1       2.483   1.462   0.063  0.00  0.00    +0.006 A 
ATOM     20  C   UNL     1       2.457   0.080   0.033  0.00  0.00    -0.020 A 
ATOM     21  C   UNL     1       1.247  -0.589   0.040  0.00  0.00    +0.006 A 
ATOM     22  C   UNL     1       0.063   0.124   0.076  0.00  0.00    +0.000 A 
ENDBRANCH   1  20
BRANCH   1  23
ATOM     23  N   UNL     1       3.682  -1.804   0.950  0.00  0.00    -0.174 NA
ATOM     24  H   UNL     1       3.275  -2.646   0.691  0.00  0.00    +0.149 HD
BRANCH  23  25
ATOM     25  S   UNL     1       4.302  -1.618   2.474  0.00  0.00    +0.059 S 
ATOM     26  O   UNL     1       4.065  -2.840   3.160  0.00  0.00    -0.153 OA
ATOM     27  O   UNL     1       5.604  -1.072   2.319  0.00  0.00    -0.153 OA
BRANCH  25  28
ATOM     28  C   UNL     1       3.333  -0.389   3.284  0.00  0.00    +0.106 A 
ATOM     29  C   UNL     1       3.692   0.943   3.192  0.00  0.00    +0.030 A 
ATOM     30  C   UNL     1       2.935   1.909   3.825  0.00  0.00    +0.025 A 
ATOM     31  C   UNL     1       1.813   1.541   4.556  0.00  0.00    +0.037 A 
ATOM     32  C   UNL     1       1.456   0.202   4.646  0.00  0.00    -0.024 A 
ATOM     33  C   UNL     1       2.213  -0.759   4.006  0.00  0.00    +0.034 A 
ATOM     34  C   UNL     1       0.238  -0.197   5.438  0.00  0.00    +0.046 C 
ATOM     35  C   UNL     1       0.078   0.738   6.637  0.00  0.00    +0.101 C 
ATOM     36  C   UNL     1       0.198   2.170   6.189  0.00  0.00    +0.218 C 
ATOM     37  O   UNL     1      -0.474   3.024   6.727  0.00  0.00    -0.275 OA
ATOM     38  N   UNL     1       1.042   2.514   5.199  0.00  0.00    -0.285 N 
ATOM     39  H   UNL     1       1.116   3.443   4.930  0.00  0.00    +0.155 HD
ENDBRANCH  25  28
ENDBRANCH  23  25
ENDBRANCH   1  23
TORSDOF 5
