REMARK  Name = ZINC13499198
REMARK  14 active torsions:
REMARK  status: ('A' for Active; 'I' for Inactive)
REMARK    1  A    between atoms: C_1  and  C_2
REMARK    2  A    between atoms: C_5  and  C_35
REMARK    3  A    between atoms: C_9  and  C_14
REMARK    4  A    between atoms: C_14  and  N_72
REMARK    5  A    between atoms: C_15  and  C_16
REMARK    6  A    between atoms: C_15  and  N_72
REMARK    7  A    between atoms: C_16  and  C_17
REMARK    8  A    between atoms: C_17  and  O_18
REMARK    9  A    between atoms: C_19  and  C_21
REMARK   10  A    between atoms: C_19  and  C_32
REMARK   11  A    between atoms: C_19  and  N_72
REMARK   12  A    between atoms: N_25  and  C_26
REMARK   13  A    between atoms: C_32  and  C_33
REMARK   14  A    between atoms: C_32  and  C_34
REMARK                            x       y       z     vdW  Elec       q    Type
REMARK                         _______ _______ _______ _____ _____    ______ ____
ROOT
ATOM      1  N   UNL     1      -0.663   1.446   1.195  0.00  0.00    +0.389 N 
ATOM      2  H   UNL     1      -1.568   1.027   1.437  0.00  0.00    -0.080 HD
ENDROOT
BRANCH   1   3
ATOM      3  C   UNL     1       0.279   1.236   2.314  0.00  0.00    -0.037 C 
BRANCH   3  12
ATOM      4  C   UNL     1      -2.387  -1.460   5.884  0.00  0.00    +0.044 C 
ATOM      5  C   UNL     1      -2.366  -0.021   6.333  0.00  0.00    -0.041 A 
ATOM      6  C   UNL     1      -2.984   0.344   7.496  0.00  0.00    +0.004 A 
ATOM      7  C   UNL     1      -2.969   1.666   7.918  0.00  0.00    +0.005 A 
ATOM      8  C   UNL     1      -2.332   2.636   7.174  0.00  0.00    -0.026 A 
ATOM      9  C   UNL     1      -1.696   2.288   5.987  0.00  0.00    +0.052 A 
ATOM     10  C   UNL     1      -1.713   0.945   5.562  0.00  0.00    +0.002 A 
ATOM     11  C   UNL     1      -1.044   0.590   4.309  0.00  0.00    +0.017 A 
ATOM     12  C   UNL     1      -0.423   1.569   3.606  0.00  0.00    +0.001 A 
ATOM     13  C   UNL     1      -0.435   2.899   4.076  0.00  0.00    +0.251 A 
ATOM     14  O   UNL     1       0.125   3.764   3.426  0.00  0.00    -0.268 OA
ATOM     15  N   UNL     1      -1.051   3.236   5.223  0.00  0.00    -0.322 N 
ATOM     16  H   UNL     1      -1.040   4.161   5.517  0.00  0.00    +0.169 HD
ATOM     17  C   UNL     1      -2.325   4.067   7.644  0.00  0.00    +0.046 C 
ENDBRANCH   3  12
ENDBRANCH   1   3
BRANCH   1  18
ATOM     18  C   UNL     1      -0.851   2.893   0.959  0.00  0.00    -0.075 C 
BRANCH  18  19
ATOM     19  C   UNL     1      -2.063   3.089   0.046  0.00  0.00    +0.009 C 
BRANCH  19  20
ATOM     20  C   UNL     1      -2.217   4.574  -0.286  0.00  0.00    +0.154 C 
BRANCH  20  21
ATOM     21  O   UNL     1      -3.349   4.757  -1.139  0.00  0.00    -0.395 OA
ATOM     22  H   UNL     1      -3.508   5.677  -1.391  0.00  0.00    +0.209 HD
ENDBRANCH  20  21
ENDBRANCH  19  20
ENDBRANCH  18  19
ENDBRANCH   1  18
BRANCH   1  23
ATOM     23  C   UNL     1      -0.145   0.798  -0.029  0.00  0.00    +0.006 C 
BRANCH  23  24
ATOM     24  C   UNL     1       1.274   1.229  -0.295  0.00  0.00    +0.139 A 
ATOM     25  N   UNL     1       2.274   1.193   0.551  0.00  0.00    -0.115 NA
ATOM     26  N   UNL     1       3.321   1.641  -0.051  0.00  0.00    -0.023 NA
ATOM     27  N   UNL     1       3.013   1.969  -1.257  0.00  0.00    -0.044 NA
ATOM     28  N   UNL     1       1.760   1.730  -1.446  0.00  0.00    -0.228 N 
BRANCH  28  29
ATOM     29  C   UNL     1       1.006   1.960  -2.681  0.00  0.00    +0.111 C 
ATOM     30  C   UNL     1       1.621   1.135  -3.814  0.00  0.00    +0.027 C 
ATOM     31  C   UNL     1       0.834   1.374  -5.104  0.00  0.00    +0.002 C 
ATOM     32  C   UNL     1       0.890   2.860  -5.467  0.00  0.00    +0.000 C 
ATOM     33  C   UNL     1       0.276   3.685  -4.334  0.00  0.00    +0.002 C 
ATOM     34  C   UNL     1       1.062   3.445  -3.044  0.00  0.00    +0.027 C 
ENDBRANCH  28  29
ENDBRANCH  23  24
BRANCH  23  35
ATOM     35  C   UNL     1      -0.192  -0.719   0.160  0.00  0.00    -0.024 C 
ATOM     36  C   UNL     1      -1.612  -1.143   0.539  0.00  0.00    +0.006 C 
ATOM     37  C   UNL     1       0.214  -1.408  -1.145  0.00  0.00    +0.006 C 
ENDBRANCH  23  35
ENDBRANCH   1  23
TORSDOF 10
