REMARK  Name = ZINC17115362
REMARK  6 active torsions:
REMARK  status: ('A' for Active; 'I' for Inactive)
REMARK    1  A    between atoms: C_5  and  S_7
REMARK    2  A    between atoms: S_7  and  N_10
REMARK    3  A    between atoms: N_10  and  C_11
REMARK    4  A    between atoms: C_11  and  C_12
REMARK    5  A    between atoms: C_12  and  C_13
REMARK    6  A    between atoms: N_15  and  N_16
REMARK                            x       y       z     vdW  Elec       q    Type
REMARK                         _______ _______ _______ _____ _____    ______ ____
ROOT
ATOM      1  C   UNL     1      -1.468   3.362   0.794  0.00  0.00    +0.231 C 
ATOM      2  O   UNL     1      -0.750   3.253   1.765  0.00  0.00    -0.274 OA
ATOM      3  N   UNL     1      -1.057   2.900  -0.404  0.00  0.00    -0.224 N 
ATOM      4  H   UNL     1      -1.632   2.987  -1.180  0.00  0.00    +0.174 HD
ENDROOT
BRANCH   3   5
ATOM      5  N   UNL     1       0.199   2.293  -0.527  0.00  0.00    -0.137 N 
ATOM      6  C   UNL     1       0.390   0.964  -0.657  0.00  0.00    +0.263 C 
ATOM      7  O   UNL     1      -0.460   0.100  -0.684  0.00  0.00    -0.271 OA
ATOM      8  C   UNL     1       1.887   0.779  -0.762  0.00  0.00    +0.114 C 
ATOM      9  C   UNL     1       2.251   0.149  -2.102  0.00  0.00    +0.035 C 
ATOM     10  C   UNL     1       3.771  -0.004  -2.200  0.00  0.00    +0.003 C 
ATOM     11  C   UNL     1       4.270  -0.883  -1.051  0.00  0.00    +0.000 C 
ATOM     12  C   UNL     1       3.918  -0.225   0.285  0.00  0.00    +0.003 C 
ATOM     13  C   UNL     1       2.399  -0.073   0.394  0.00  0.00    +0.035 C 
ATOM     14  N   UNL     1       2.421   2.144  -0.672  0.00  0.00    -0.284 N 
ATOM     15  C   UNL     1       1.359   2.961  -0.536  0.00  0.00    +0.326 C 
ATOM     16  O   UNL     1       1.445   4.169  -0.434  0.00  0.00    -0.251 OA
ATOM     17  H   UNL     1       3.355   2.405  -0.704  0.00  0.00    +0.151 HD
ENDBRANCH   3   5
BRANCH   1  18
ATOM     18  C   UNL     1      -2.820   4.015   0.926  0.00  0.00    +0.114 C 
BRANCH  18  19
ATOM     19  C   UNL     1      -3.038   4.446   2.378  0.00  0.00    +0.115 C 
BRANCH  19  20
ATOM     20  N   UNL     1      -4.352   5.081   2.507  0.00  0.00    -0.189 NA
ATOM     21  H   UNL     1      -4.829   5.373   1.714  0.00  0.00    +0.148 HD
BRANCH  20  22
ATOM     22  S   UNL     1      -5.023   5.299   4.005  0.00  0.00    +0.059 S 
ATOM     23  O   UNL     1      -6.263   5.962   3.802  0.00  0.00    -0.153 OA
ATOM     24  O   UNL     1      -4.927   4.052   4.679  0.00  0.00    -0.153 OA
BRANCH  22  29
ATOM     25  C   UNL     1      -2.505   6.891   6.702  0.00  0.00    +0.002 A 
ATOM     26  C   UNL     1      -2.363   8.191   6.254  0.00  0.00    +0.001 A 
ATOM     27  C   UNL     1      -3.034   8.609   5.120  0.00  0.00    +0.017 A 
ATOM     28  C   UNL     1      -3.846   7.726   4.433  0.00  0.00    +0.044 A 
ATOM     29  C   UNL     1      -3.987   6.425   4.880  0.00  0.00    +0.119 A 
ATOM     30  C   UNL     1      -3.321   6.009   6.018  0.00  0.00    +0.029 A 
ATOM     31 BR   UNL     1      -4.765   8.297   2.881  0.00  0.00    -0.048 Br
ENDBRANCH  22  29
ENDBRANCH  20  22
ENDBRANCH  19  20
ENDBRANCH  18  19
ENDBRANCH   1  18
TORSDOF 6
