REMARK  Name = ZINC32957577
REMARK  15 active torsions:
REMARK  status: ('A' for Active; 'I' for Inactive)
REMARK    1  A    between atoms: C_1  and  C_2
REMARK    2  A    between atoms: C_2  and  N_3
REMARK    3  A    between atoms: N_3  and  C_4
REMARK    4  A    between atoms: N_3  and  S_6
REMARK    5  A    between atoms: C_4  and  C_5
REMARK    6  A    between atoms: S_6  and  C_9
REMARK    7  A    between atoms: C_16  and  C_19
REMARK    8  A    between atoms: N_17  and  C_18
REMARK    9  A    between atoms: C_19  and  C_20
REMARK   10  A    between atoms: C_20  and  C_21
REMARK   11  A    between atoms: C_21  and  O_23
REMARK   12  A    between atoms: O_23  and  C_24
REMARK   13  A    between atoms: C_24  and  C_25
REMARK   14  A    between atoms: N_27  and  N_28
REMARK   15  A    between atoms: C_29  and  C_31
REMARK                            x       y       z     vdW  Elec       q    Type
REMARK                         _______ _______ _______ _____ _____    ______ ____
ROOT
ATOM      1  C   UNL     1      -0.729   1.579   1.267  0.00  0.00    +0.085 C 
ENDROOT
BRANCH   1   9
ATOM      2  C   UNL     1       2.584   0.240   6.090  0.00  0.00    +0.108 A 
ATOM      3  C   UNL     1       1.819  -0.917   6.122  0.00  0.00    +0.030 A 
ATOM      4  C   UNL     1       0.839  -1.135   5.177  0.00  0.00    +0.030 A 
ATOM      5  C   UNL     1       0.619  -0.188   4.185  0.00  0.00    +0.069 A 
ATOM      6  C   UNL     1       1.395   0.983   4.152  0.00  0.00    +0.091 A 
ATOM      7  C   UNL     1       2.382   1.181   5.121  0.00  0.00    +0.058 A 
ATOM      8  N   UNL     1       0.964   1.712   3.091  0.00  0.00    -0.232 NA
ATOM      9  C   UNL     1       0.000   1.080   2.488  0.00  0.00    +0.111 A 
ATOM     10  N   UNL     1      -0.258  -0.095   3.123  0.00  0.00    -0.331 N 
ATOM     11  C   UNL     1      -1.275  -1.080   2.748  0.00  0.00    +0.150 C 
BRANCH   2  12
ATOM     12  S   UNL     1       3.830   0.496   7.309  0.00  0.00    +0.061 S 
ATOM     13  O   UNL     1       4.038   1.900   7.388  0.00  0.00    -0.153 OA
ATOM     14  O   UNL     1       3.460  -0.284   8.438  0.00  0.00    -0.153 OA
BRANCH  12  15
ATOM     15  N   UNL     1       5.233  -0.158   6.720  0.00  0.00    -0.177 NA
BRANCH  15  17
ATOM     16  C   UNL     1       7.231   1.248   6.835  0.00  0.00    +0.022 C 
ATOM     17  C   UNL     1       6.148   0.665   5.925  0.00  0.00    +0.106 C 
ENDBRANCH  15  17
BRANCH  15  18
ATOM     18  C   UNL     1       5.559  -1.560   6.995  0.00  0.00    +0.106 C 
ATOM     19  C   UNL     1       5.093  -2.430   5.826  0.00  0.00    +0.022 C 
ENDBRANCH  15  18
ENDBRANCH  12  15
ENDBRANCH   2  12
ENDBRANCH   1   9
BRANCH   1  20
ATOM     20  C   UNL     1      -0.013   1.086   0.008  0.00  0.00    +0.128 C 
BRANCH  20  21
ATOM     21  C   UNL     1      -0.742   1.585  -1.213  0.00  0.00    +0.308 C 
ATOM     22  O   UNL     1      -1.732   2.266  -1.089  0.00  0.00    -0.251 OA
BRANCH  21  23
ATOM     23  O   UNL     1      -0.290   1.274  -2.438  0.00  0.00    -0.455 OA
BRANCH  23  24
ATOM     24  C   UNL     1      -1.042   1.789  -3.568  0.00  0.00    +0.329 C 
BRANCH  24  25
ATOM     25  C   UNL     1      -0.391   1.340  -4.851  0.00  0.00    +0.267 C 
ATOM     26  O   UNL     1       0.608   0.654  -4.817  0.00  0.00    -0.271 OA
ATOM     27  N   UNL     1      -0.920   1.702  -6.037  0.00  0.00    -0.231 N 
ATOM     28  H   UNL     1      -1.826   2.324  -6.069  0.00  0.00    +0.173 HD
BRANCH  27  29
ATOM     29  N   UNL     1      -0.315   1.285  -7.230  0.00  0.00    -0.230 N 
ATOM     30  C   UNL     1      -0.843   1.646  -8.416  0.00  0.00    +0.267 C 
ATOM     31  O   UNL     1      -1.846   2.335  -8.451  0.00  0.00    -0.268 OA
ATOM     32  H   UNL     1       0.592   0.662  -7.199  0.00  0.00    +0.173 HD
BRANCH  30  33
ATOM     33  C   UNL     1      -0.210   1.210  -9.664  0.00  0.00    +0.075 A 
ATOM     34  C   UNL     1      -0.591   1.463 -10.972  0.00  0.00    +0.021 A 
ATOM     35  C   UNL     1       0.192   0.931 -11.966  0.00  0.00    +0.008 A 
ATOM     36  C   UNL     1       1.277   0.185 -11.628  0.00  0.00    +0.046 A 
ATOM     37  S   UNL     1       1.248   0.207  -9.895  0.00  0.00    -0.092 S 
ENDBRANCH  30  33
ENDBRANCH  27  29
ENDBRANCH  24  25
ENDBRANCH  23  24
ENDBRANCH  21  23
ENDBRANCH  20  21
ENDBRANCH   1  20
TORSDOF 12
