REMARK  Name = ZINC05908749
REMARK  5 active torsions:
REMARK  status: ('A' for Active; 'I' for Inactive)
REMARK    1  A    between atoms: C_9  and  C_11
REMARK    2  A    between atoms: C_11  and  C_23
REMARK    3  A    between atoms: C_12  and  C_13
REMARK    4  A    between atoms: C_14  and  C_15
REMARK    5  A    between atoms: C_18  and  N_20
REMARK                            x       y       z     vdW  Elec       q    Type
REMARK                         _______ _______ _______ _____ _____    ______ ____
ROOT
ATOM      1  C   UNL     1      -0.040   1.411  -0.177  0.00  0.00    +0.094 C 
ATOM      2  C   UNL     1      -1.196   2.199  -0.003  0.00  0.00    +0.022 C 
ENDROOT
BRANCH   1  11
ATOM      3  C   UNL     1       5.311   3.416  -1.944  0.00  0.00    +0.002 A 
ATOM      4  C   UNL     1       4.605   4.605  -2.112  0.00  0.00    +0.002 A 
ATOM      5  C   UNL     1       3.275   4.672  -1.829  0.00  0.00    +0.030 A 
ATOM      6  C   UNL     1       2.600   3.528  -1.359  0.00  0.00    +0.089 A 
ATOM      7  C   UNL     1       3.322   2.319  -1.190  0.00  0.00    +0.066 A 
ATOM      8  C   UNL     1       4.677   2.280  -1.487  0.00  0.00    +0.028 A 
ATOM      9  N   UNL     1       2.417   1.392  -0.729  0.00  0.00    -0.337 N 
ATOM     10  H   UNL     1       2.606   0.435  -0.507  0.00  0.00    +0.167 HD
ATOM     11  C   UNL     1       1.204   2.031  -0.630  0.00  0.00    +0.150 A 
ATOM     12  N   UNL     1       1.335   3.289  -1.012  0.00  0.00    -0.227 NA
ENDBRANCH   1  11
BRANCH   2  13
ATOM     13  C   UNL     1      -1.119   3.571  -0.114  0.00  0.00    +0.005 C 
ATOM     14  C   UNL     1      -2.288   4.352  -0.022  0.00  0.00    +0.046 C 
BRANCH  14  15
ATOM     15  C   UNL     1      -2.211   5.731  -0.133  0.00  0.00    +0.131 A 
ATOM     16  C   UNL     1      -3.295   6.636  -0.061  0.00  0.00    +0.052 A 
ATOM     17  C   UNL     1      -2.760   7.902  -0.222  0.00  0.00    +0.076 A 
ATOM     18  C   UNL     1      -1.395   7.753  -0.386  0.00  0.00    +0.280 A 
ATOM     19  O   UNL     1      -1.085   6.454  -0.324  0.00  0.00    -0.435 OA
BRANCH  18  20
ATOM     20  N   UNL     1      -0.431   8.857  -0.591  0.00  0.00    +0.093 N 
ATOM     21  O   UNL     1      -0.855  10.104  -0.628  0.00  0.00    -0.123 OA
ATOM     22  O   UNL     1       0.852   8.593  -0.735  0.00  0.00    -0.123 OA
ENDBRANCH  18  20
ENDBRANCH  14  15
ENDBRANCH   2  13
BRANCH   1  23
ATOM     23  C   UNL     1      -0.085   0.004   0.084  0.00  0.00    +0.103 C 
ATOM     24  N   UNL     1      -0.122  -1.112   0.290  0.00  0.00    -0.191 NA
ENDBRANCH   1  23
TORSDOF 5
