REMARK  Name = ZINC09198932
REMARK  5 active torsions:
REMARK  status: ('A' for Active; 'I' for Inactive)
REMARK    1  A    between atoms: C_8  and  C_12
REMARK    2  A    between atoms: C_12  and  C_13
REMARK    3  A    between atoms: C_13  and  N_14
REMARK    4  A    between atoms: C_16  and  C_21
REMARK    5  A    between atoms: N_23  and  C_24
REMARK                            x       y       z     vdW  Elec       q    Type
REMARK                         _______ _______ _______ _____ _____    ______ ____
ROOT
ATOM      1  N   UNL     1       3.743  -1.865  -1.480  0.00  0.00    -0.300 N 
ATOM      2  C   UNL     1       5.168  -2.194  -1.605  0.00  0.00    +0.121 C 
ATOM      3  C   UNL     1       5.215  -3.684  -2.001  0.00  0.00    +0.101 C 
ATOM      4  C   UNL     1       3.872  -4.205  -1.440  0.00  0.00    +0.110 C 
ATOM      5  C   UNL     1       2.992  -2.976  -1.383  0.00  0.00    +0.216 C 
ATOM      6  O   UNL     1       1.785  -2.990  -1.267  0.00  0.00    -0.276 OA
ENDROOT
BRANCH   3   7
ATOM      7  C   UNL     1       6.380  -4.383  -1.348  0.00  0.00    +0.218 C 
ATOM      8  O   UNL     1       7.189  -3.745  -0.709  0.00  0.00    -0.275 OA
ATOM      9  N   UNL     1       6.522  -5.717  -1.475  0.00  0.00    -0.312 N 
ATOM     10  H   UNL     1       5.875  -6.228  -1.986  0.00  0.00    +0.149 HD
BRANCH   9  11
ATOM     11  C   UNL     1       7.654  -6.397  -0.840  0.00  0.00    +0.073 C 
ATOM     12  C   UNL     1       8.873  -6.327  -1.762  0.00  0.00    +0.022 C 
ATOM     13  C   UNL     1      10.056  -7.036  -1.099  0.00  0.00    +0.002 C 
ATOM     14  C   UNL     1       9.693  -8.500  -0.843  0.00  0.00    +0.000 C 
ATOM     15  C   UNL     1       8.474  -8.570   0.079  0.00  0.00    +0.002 C 
ATOM     16  C   UNL     1       7.292  -7.861  -0.584  0.00  0.00    +0.022 C 
ENDBRANCH   9  11
ENDBRANCH   3   7
BRANCH   1  17
ATOM     17  C   UNL     1       3.207  -0.501  -1.467  0.00  0.00    +0.112 C 
BRANCH  17  18
ATOM     18  C   UNL     1       3.150   0.011  -0.027  0.00  0.00    +0.056 C 
BRANCH  18  26
ATOM     19  C   UNL     1      -1.236   3.141   0.029  0.00  0.00    +0.022 A 
ATOM     20  C   UNL     1      -0.063   3.863   0.022  0.00  0.00    +0.027 A 
ATOM     21  C   UNL     1       1.160   3.201   0.008  0.00  0.00    +0.047 A 
ATOM     22  C   UNL     1       1.185   1.794   0.000  0.00  0.00    +0.004 A 
ATOM     23  C   UNL     1      -0.013   1.076   0.008  0.00  0.00    +0.030 A 
ATOM     24  C   UNL     1      -1.212   1.752   0.017  0.00  0.00    +0.042 A 
ATOM     25 CL   UNL     1      -2.704   0.864   0.020  0.00  0.00    -0.084 Cl
ATOM     26  C   UNL     1       2.599   1.414  -0.014  0.00  0.00    -0.021 A 
ATOM     27  C   UNL     1       3.312   2.551  -0.015  0.00  0.00    +0.087 A 
ATOM     28  N   UNL     1       2.469   3.630  -0.002  0.00  0.00    -0.360 N 
ATOM     29  H   UNL     1       2.752   4.557   0.000  0.00  0.00    +0.165 HD
ENDBRANCH  18  26
ENDBRANCH  17  18
ENDBRANCH   1  17
TORSDOF 5
