REMARK  Name = ZINC04070116
REMARK  8 active torsions:
REMARK  status: ('A' for Active; 'I' for Inactive)
REMARK    1  A    between atoms: C_1  and  C_2
REMARK    2  A    between atoms: C_2  and  O_3
REMARK    3  A    between atoms: O_3  and  C_4
REMARK    4  A    between atoms: C_13  and  C_14
REMARK    5  A    between atoms: C_16  and  C_23
REMARK    6  A    between atoms: C_17  and  C_22
REMARK    7  A    between atoms: C_23  and  O_25
REMARK    8  A    between atoms: O_25  and  C_26
REMARK                            x       y       z     vdW  Elec       q    Type
REMARK                         _______ _______ _______ _____ _____    ______ ____
ROOT
ATOM      1  C   UNL     1      -0.844  -0.869  -0.170  0.00  0.00    +0.145 C 
ATOM      2  C   UNL     1      -1.386  -1.341  -1.504  0.00  0.00    +0.078 C 
ATOM      3  C   UNL     1      -1.944  -2.571  -1.556  0.00  0.00    +0.019 C 
ATOM      4  N   UNL     1      -2.016  -3.359  -0.445  0.00  0.00    -0.300 N 
ATOM      5  C   UNL     1      -1.554  -2.993   0.757  0.00  0.00    +0.135 C 
ATOM      6  S   UNL     1      -1.709  -4.080   2.071  0.00  0.00    -0.019 S 
ATOM      7  N   UNL     1      -0.972  -1.796   0.968  0.00  0.00    -0.315 N 
ATOM      8  C   UNL     1      -2.494  -3.079  -2.863  0.00  0.00    +0.061 C 
ATOM      9  H   UNL     1      -2.425  -4.234  -0.530  0.00  0.00    +0.154 HD
ATOM     10  H   UNL     1      -0.644  -1.551   1.847  0.00  0.00    +0.149 HD
ENDROOT
BRANCH   1  20
ATOM     11  C   UNL     1       1.528  -1.558  -0.492  0.00  0.00    +0.126 A 
ATOM     12  C   UNL     1       2.888  -1.279  -0.658  0.00  0.00    +0.046 A 
ATOM     13  C   UNL     1       3.340   0.003  -0.681  0.00  0.00    +0.012 A 
ATOM     14  C   UNL     1       2.432   1.066  -0.536  0.00  0.00    -0.017 A 
ATOM     15  C   UNL     1       2.865   2.403  -0.554  0.00  0.00    +0.008 A 
ATOM     16  C   UNL     1       1.958   3.407  -0.411  0.00  0.00    +0.001 A 
ATOM     17  C   UNL     1       0.602   3.131  -0.245  0.00  0.00    +0.001 A 
ATOM     18  C   UNL     1       0.144   1.849  -0.228  0.00  0.00    +0.009 A 
ATOM     19  C   UNL     1       1.052   0.785  -0.367  0.00  0.00    -0.009 A 
ATOM     20  C   UNL     1       0.618  -0.550  -0.348  0.00  0.00    +0.027 A 
BRANCH  11  21
ATOM     21  O   UNL     1       1.106  -2.850  -0.474  0.00  0.00    -0.492 OA
BRANCH  21  23
ATOM     22  C   UNL     1       1.444  -5.240  -0.583  0.00  0.00    +0.048 C 
ATOM     23  C   UNL     1       2.104  -3.861  -0.629  0.00  0.00    +0.225 C 
ENDBRANCH  21  23
ENDBRANCH  11  21
ENDBRANCH   1  20
BRANCH   2  24
ATOM     24  C   UNL     1      -1.310  -0.523  -2.655  0.00  0.00    +0.338 C 
ATOM     25  O   UNL     1      -1.642  -0.965  -3.739  0.00  0.00    -0.245 OA
BRANCH  24  26
ATOM     26  O   UNL     1      -0.869   0.748  -2.551  0.00  0.00    -0.465 OA
ATOM     27  C   UNL     1      -0.818   1.518  -3.754  0.00  0.00    +0.280 C 
ENDBRANCH  24  26
ENDBRANCH   2  24
TORSDOF 5
