REMARK  Name = ZINC10966973
REMARK  4 active torsions:
REMARK  status: ('A' for Active; 'I' for Inactive)
REMARK    1  A    between atoms: C_1  and  N_2
REMARK    2  A    between atoms: N_11  and  C_24
REMARK    3  A    between atoms: C_14  and  C_17
REMARK    4  A    between atoms: C_24  and  C_25
REMARK                            x       y       z     vdW  Elec       q    Type
REMARK                         _______ _______ _______ _____ _____    ______ ____
ROOT
ATOM      1  C   UNL     1      -2.126   0.416   1.662  0.00  0.00    +0.155 C 
ATOM      2  N   UNL     1      -0.862   1.141   1.820  0.00  0.00    -0.281 N 
ATOM      3  C   UNL     1      -0.876   2.476   2.162  0.00  0.00    +0.155 A 
ATOM      4  C   UNL     1       0.309   3.141   2.300  0.00  0.00    +0.152 A 
ATOM      5  C   UNL     1       1.520   2.443   2.094  0.00  0.00    +0.280 A 
ATOM      6  O   UNL     1       2.589   3.016   2.213  0.00  0.00    -0.265 OA
ATOM      7  N   UNL     1       1.482   1.135   1.766  0.00  0.00    -0.273 N 
ATOM      8  H   UNL     1       2.336   0.635   1.620  0.00  0.00    +0.173 HD
ATOM      9  C   UNL     1       0.305   0.497   1.634  0.00  0.00    +0.331 A 
ATOM     10  O   UNL     1       0.296  -0.682   1.337  0.00  0.00    -0.246 OA
ATOM     11  N   UNL     1       0.018   4.464   2.640  0.00  0.00    -0.298 N 
ATOM     12  C   UNL     1      -1.351   4.583   2.703  0.00  0.00    +0.239 A 
ATOM     13  N   UNL     1      -1.895   3.363   2.410  0.00  0.00    -0.244 N 
ATOM     14  C   UNL     1      -3.259   3.534   2.486  0.00  0.00    +0.171 A 
ATOM     15  N   UNL     1      -3.471   4.790   2.808  0.00  0.00    -0.127 NA
ATOM     16  N   UNL     1      -2.350   5.407   2.935  0.00  0.00    -0.110 NA
ENDROOT
BRANCH  14  17
ATOM     17  C   UNL     1      -4.288   2.500   2.252  0.00  0.00    +0.020 A 
ATOM     18  C   UNL     1      -4.334   1.820   1.034  0.00  0.00    +0.014 A 
ATOM     19  C   UNL     1      -5.294   0.853   0.823  0.00  0.00    +0.039 A 
ATOM     20  C   UNL     1      -6.219   0.563   1.813  0.00  0.00    +0.123 A 
ATOM     21  C   UNL     1      -6.182   1.239   3.023  0.00  0.00    +0.039 A 
ATOM     22  C   UNL     1      -5.223   2.204   3.247  0.00  0.00    +0.014 A 
ATOM     23  F   UNL     1      -7.161  -0.382   1.599  0.00  0.00    -0.205 F 
ENDBRANCH  14  17
BRANCH  11  24
ATOM     24  C   UNL     1       0.992   5.530   2.885  0.00  0.00    +0.165 C 
BRANCH  24  25
ATOM     25  C   UNL     1       1.247   5.647   4.365  0.00  0.00    +0.026 A 
ATOM     26  C   UNL     1       2.308   4.969   4.942  0.00  0.00    +0.130 A 
ATOM     27  C   UNL     1       2.540   5.078   6.302  0.00  0.00    +0.039 A 
ATOM     28  C   UNL     1       1.714   5.864   7.084  0.00  0.00    +0.004 A 
ATOM     29  C   UNL     1       0.655   6.540   6.509  0.00  0.00    +0.020 A 
ATOM     30  C   UNL     1       0.424   6.436   5.148  0.00  0.00    +0.049 A 
ATOM     31 CL   UNL     1      -0.902   7.292   4.426  0.00  0.00    -0.083 Cl
ATOM     32  F   UNL     1       3.115   4.202   4.177  0.00  0.00    -0.205 F 
ENDBRANCH  24  25
ENDBRANCH  11  24
TORSDOF 3
