REMARK  Name = ZINC19849986
REMARK  9 active torsions:
REMARK  status: ('A' for Active; 'I' for Inactive)
REMARK    1  A    between atoms: C_4  and  N_7
REMARK    2  A    between atoms: C_8  and  C_30
REMARK    3  A    between atoms: C_11  and  S_12
REMARK    4  A    between atoms: S_12  and  C_13
REMARK    5  A    between atoms: C_13  and  C_14
REMARK    6  A    between atoms: N_16  and  N_17
REMARK    7  A    between atoms: C_18  and  C_19
REMARK    8  A    between atoms: C_20  and  C_21
REMARK    9  A    between atoms: C_26  and  N_27
REMARK                            x       y       z     vdW  Elec       q    Type
REMARK                         _______ _______ _______ _____ _____    ______ ____
ROOT
ATOM      1  S   UNL     1      -6.410   0.347  -2.118  0.00  0.00    -0.076 S 
ENDROOT
BRANCH   1   6
ATOM      2  N   UNL     1      -3.887   0.831  -3.231  0.00  0.00    -0.270 N 
ATOM      3  C   UNL     1      -2.756   0.086  -3.484  0.00  0.00    +0.169 A 
ATOM      4  N   UNL     1      -2.996  -1.135  -3.064  0.00  0.00    -0.128 NA
ATOM      5  N   UNL     1      -4.184  -1.207  -2.579  0.00  0.00    -0.122 NA
ATOM      6  C   UNL     1      -4.777  -0.036  -2.657  0.00  0.00    +0.197 A 
BRANCH   3   7
ATOM      7  C   UNL     1      -1.505   0.571  -4.105  0.00  0.00    +0.020 A 
ATOM      8  C   UNL     1      -1.498   1.768  -4.824  0.00  0.00    +0.013 A 
ATOM      9  C   UNL     1      -0.327   2.219  -5.396  0.00  0.00    +0.021 A 
ATOM     10  C   UNL     1       0.839   1.484  -5.263  0.00  0.00    +0.041 A 
ATOM     11  C   UNL     1       0.838   0.293  -4.555  0.00  0.00    +0.021 A 
ATOM     12  C   UNL     1      -0.328  -0.168  -3.979  0.00  0.00    +0.013 A 
ATOM     13 CL   UNL     1       2.310   2.058  -5.985  0.00  0.00    -0.084 Cl
ENDBRANCH   3   7
BRANCH   2  17
ATOM     14  C   UNL     1      -4.479   4.875  -4.049  0.00  0.00    +0.000 A 
ATOM     15  C   UNL     1      -5.191   3.918  -4.749  0.00  0.00    +0.002 A 
ATOM     16  C   UNL     1      -4.997   2.577  -4.480  0.00  0.00    +0.026 A 
ATOM     17  C   UNL     1      -4.086   2.191  -3.506  0.00  0.00    +0.051 A 
ATOM     18  C   UNL     1      -3.376   3.154  -2.802  0.00  0.00    +0.026 A 
ATOM     19  C   UNL     1      -3.570   4.493  -3.080  0.00  0.00    +0.002 A 
ENDBRANCH   2  17
ENDBRANCH   1   6
BRANCH   1  20
ATOM     20  C   UNL     1      -6.920  -1.271  -1.486  0.00  0.00    +0.174 C 
BRANCH  20  21
ATOM     21  C   UNL     1      -8.328  -1.183  -0.957  0.00  0.00    +0.242 C 
ATOM     22  O   UNL     1      -8.928  -0.130  -1.002  0.00  0.00    -0.273 OA
ATOM     23  N   UNL     1      -8.921  -2.274  -0.433  0.00  0.00    -0.206 N 
ATOM     24  H   UNL     1      -8.377  -3.229  -0.392  0.00  0.00    +0.177 HD
BRANCH  23  25
ATOM     25  N   UNL     1     -10.230  -2.192   0.059  0.00  0.00    -0.188 NA
ATOM     26  C   UNL     1     -10.803  -3.246   0.565  0.00  0.00    +0.130 C 
BRANCH  26  27
ATOM     27  C   UNL     1     -12.128  -3.163   1.063  0.00  0.00    +0.022 C 
ATOM     28  C   UNL     1     -12.731  -4.262   1.562  0.00  0.00    +0.012 C 
BRANCH  28  29
ATOM     29  C   UNL     1     -11.964  -5.505   1.741  0.00  0.00    +0.005 A 
ATOM     30  C   UNL     1     -10.677  -5.465   2.288  0.00  0.00    +0.010 A 
ATOM     31  C   UNL     1      -9.965  -6.635   2.452  0.00  0.00    +0.001 A 
ATOM     32  C   UNL     1     -10.521  -7.846   2.076  0.00  0.00    +0.002 A 
ATOM     33  C   UNL     1     -11.793  -7.893   1.534  0.00  0.00    +0.033 A 
ATOM     34  C   UNL     1     -12.520  -6.733   1.369  0.00  0.00    +0.133 A 
BRANCH  34  35
ATOM     35  N   UNL     1     -13.883  -6.787   0.794  0.00  0.00    +0.057 N 
ATOM     36  O   UNL     1     -14.407  -7.863   0.568  0.00  0.00    -0.126 OA
ATOM     37  O   UNL     1     -14.482  -5.755   0.548  0.00  0.00    -0.126 OA
ENDBRANCH  34  35
ENDBRANCH  28  29
ENDBRANCH  26  27
ENDBRANCH  23  25
ENDBRANCH  20  21
ENDBRANCH   1  20
TORSDOF 9
