REMARK  Name = ZINC04921373
REMARK  8 active torsions:
REMARK  status: ('A' for Active; 'I' for Inactive)
REMARK    1  A    between atoms: C_1  and  O_2
REMARK    2  A    between atoms: O_2  and  C_3
REMARK    3  A    between atoms: C_5  and  C_13
REMARK    4  A    between atoms: C_7  and  O_11
REMARK    5  A    between atoms: C_8  and  O_9
REMARK    6  A    between atoms: O_9  and  C_10
REMARK    7  A    between atoms: O_11  and  C_12
REMARK    8  A    between atoms: C_24  and  C_29
REMARK                            x       y       z     vdW  Elec       q    Type
REMARK                         _______ _______ _______ _____ _____    ______ ____
ROOT
ATOM      1  C   UNL     1       2.894  -0.321   4.060  0.00  0.00    +0.078 C 
ATOM      2  C   UNL     1       2.036  -1.541   3.952  0.00  0.00    -0.031 A 
ATOM      3  C   UNL     1       0.939  -1.581   4.837  0.00  0.00    +0.054 A 
ATOM      4  C   UNL     1       0.123  -2.697   4.797  0.00  0.00    +0.167 A 
ATOM      5  C   UNL     1       0.396  -3.756   3.917  0.00  0.00    +0.167 A 
ATOM      6  C   UNL     1       1.481  -3.700   3.060  0.00  0.00    +0.053 A 
ATOM      7  C   UNL     1       2.294  -2.563   3.100  0.00  0.00    -0.039 A 
ATOM      8  C   UNL     1       3.443  -2.525   2.138  0.00  0.00    +0.044 C 
ATOM      9  C   UNL     1       4.374  -1.384   2.286  0.00  0.00    +0.060 C 
ATOM     10  C   UNL     1       3.875  -0.102   2.928  0.00  0.00    +0.185 C 
ATOM     11  C   UNL     1       5.128   0.517   3.549  0.00  0.00    +0.326 C 
ATOM     12  O   UNL     1       5.172   1.593   4.097  0.00  0.00    -0.250 OA
ATOM     13  O   UNL     1       6.169  -0.352   3.387  0.00  0.00    -0.464 OA
ATOM     14  C   UNL     1       5.679  -1.684   3.029  0.00  0.00    +0.237 C 
ATOM     15  O   UNL     1      -0.539  -4.717   4.088  0.00  0.00    -0.453 OA
ATOM     16  C   UNL     1      -1.623  -4.079   4.795  0.00  0.00    +0.466 C 
ATOM     17  O   UNL     1      -0.987  -2.998   5.509  0.00  0.00    -0.453 OA
ENDROOT
BRANCH   1  20
ATOM     18  C   UNL     1       0.097   2.114   3.330  0.00  0.00    +0.165 A 
ATOM     19  C   UNL     1       0.927   1.006   3.264  0.00  0.00    +0.054 A 
ATOM     20  C   UNL     1       1.991   0.883   4.139  0.00  0.00    -0.031 A 
ATOM     21  C   UNL     1       2.225   1.859   5.089  0.00  0.00    +0.054 A 
ATOM     22  C   UNL     1       1.396   2.968   5.165  0.00  0.00    +0.165 A 
ATOM     23  C   UNL     1       0.329   3.098   4.284  0.00  0.00    +0.204 A 
BRANCH  18  25
ATOM     24  C   UNL     1      -1.124   1.187   1.512  0.00  0.00    +0.277 C 
ATOM     25  O   UNL     1      -0.946   2.236   2.466  0.00  0.00    -0.491 OA
ENDBRANCH  18  25
BRANCH  23  26
ATOM     26  O   UNL     1      -0.487   4.185   4.356  0.00  0.00    -0.488 OA
ATOM     27  C   UNL     1      -1.628   4.085   5.210  0.00  0.00    +0.277 C 
ENDBRANCH  23  26
BRANCH  22  28
ATOM     28  O   UNL     1       1.627   3.928   6.101  0.00  0.00    -0.491 OA
ATOM     29  C   UNL     1       2.741   3.729   6.973  0.00  0.00    +0.277 C 
ENDBRANCH  22  28
ENDBRANCH   1  20
BRANCH  10  30
ATOM     30  C   UNL     1       3.287   0.817   1.889  0.00  0.00    +0.374 C 
ATOM     31  O   UNL     1       2.999   0.388   0.796  0.00  0.00    -0.245 OA
ATOM     32  O   UNL     1       3.082   2.112   2.177  0.00  0.00    -0.245 OA
ENDBRANCH  10  30
TORSDOF 5
