REMARK  Name = ZINC39918618
REMARK  14 active torsions:
REMARK  status: ('A' for Active; 'I' for Inactive)
REMARK    1  A    between atoms: C_1  and  C_2
REMARK    2  A    between atoms: N_8  and  C_9
REMARK    3  A    between atoms: C_9  and  C_10
REMARK    4  A    between atoms: C_10  and  N_11
REMARK    5  A    between atoms: N_11  and  C_12
REMARK    6  A    between atoms: N_11  and  C_13
REMARK    7  A    between atoms: N_21  and  C_24
REMARK    8  A    between atoms: C_24  and  C_25
REMARK    9  A    between atoms: C_25  and  O_27
REMARK   10  A    between atoms: O_27  and  C_28
REMARK   11  A    between atoms: C_29  and  C_33
REMARK   12  A    between atoms: C_30  and  N_32
REMARK   13  A    between atoms: C_33  and  O_35
REMARK   14  A    between atoms: O_35  and  C_36
REMARK                            x       y       z     vdW  Elec       q    Type
REMARK                         _______ _______ _______ _____ _____    ______ ____
ROOT
ATOM      1  C   UNL     1      -0.100   1.454   0.213  0.00  0.00    +0.064 C 
ATOM      2  C   UNL     1      -0.093  -0.051   0.154  0.00  0.00    +0.022 A 
ATOM      3  C   UNL     1       0.028  -0.670  -1.040  0.00  0.00    +0.068 A 
ATOM      4  C   UNL     1       0.035  -2.079  -1.102  0.00  0.00    +0.142 A 
ATOM      5  C   UNL     1      -0.081  -2.799   0.069  0.00  0.00    +0.083 A 
ATOM      6  C   UNL     1      -0.205  -2.114   1.284  0.00  0.00    +0.260 A 
ATOM      7  O   UNL     1      -0.309  -2.738   2.329  0.00  0.00    -0.267 OA
ATOM      8  N   UNL     1      -0.204  -0.768   1.303  0.00  0.00    -0.314 N 
ATOM      9  C   UNL     1      -0.075  -4.301   0.047  0.00  0.00    +0.144 C 
ATOM     10  C   UNL     1      -1.438  -4.846   0.341  0.00  0.00    -0.002 A 
ATOM     11  C   UNL     1      -2.638  -4.710  -0.322  0.00  0.00    +0.007 A 
ATOM     12  C   UNL     1      -3.739  -5.358   0.227  0.00  0.00    +0.000 A 
ATOM     13  C   UNL     1      -3.632  -6.102   1.385  0.00  0.00    +0.002 A 
ATOM     14  C   UNL     1      -2.428  -6.243   2.057  0.00  0.00    +0.024 A 
ATOM     15  C   UNL     1      -1.315  -5.598   1.516  0.00  0.00    +0.042 A 
ATOM     16  N   UNL     1      -0.009  -5.568   1.972  0.00  0.00    -0.259 N 
ATOM     17  C   UNL     1       0.789  -4.830   1.173  0.00  0.00    +0.240 C 
ATOM     18  O   UNL     1       1.975  -4.628   1.328  0.00  0.00    -0.274 OA
ATOM     19  C   UNL     1       0.435  -4.809  -1.271  0.00  0.00    +0.117 C 
ATOM     20  C   UNL     1       0.519  -3.991  -2.351  0.00  0.00    +0.196 C 
ATOM     21  O   UNL     1       0.152  -2.700  -2.294  0.00  0.00    -0.441 OA
ENDROOT
BRANCH  20  22
ATOM     22  N   UNL     1       0.992  -4.496  -3.533  0.00  0.00    -0.329 N 
ATOM     23  H   UNL     1       1.332  -5.404  -3.571  0.00  0.00    +0.145 HD
ATOM     24  H   UNL     1       0.988  -3.946  -4.332  0.00  0.00    +0.145 HD
ENDBRANCH  20  22
BRANCH  19  25
ATOM     25  C   UNL     1       0.831  -6.150  -1.387  0.00  0.00    +0.341 C 
ATOM     26  O   UNL     1      -0.007  -7.024  -1.521  0.00  0.00    -0.245 OA
BRANCH  25  27
ATOM     27  O   UNL     1       2.142  -6.473  -1.351  0.00  0.00    -0.465 OA
ATOM     28  C   UNL     1       2.481  -7.841  -1.587  0.00  0.00    +0.280 C 
ENDBRANCH  25  27
ENDBRANCH  19  25
BRANCH   8  29
ATOM     29  C   UNL     1      -0.329  -0.064   2.582  0.00  0.00    +0.106 C 
BRANCH  29  30
ATOM     30  C   UNL     1      -1.809   0.178   2.888  0.00  0.00    -0.058 C 
BRANCH  30  31
ATOM     31  N   UNL     1      -1.935   0.884   4.170  0.00  0.00    +0.377 N 
ATOM     32  C   UNL     1      -3.345   1.222   4.406  0.00  0.00    -0.097 C 
ATOM     33  C   UNL     1      -1.451   0.019   5.254  0.00  0.00    -0.097 C 
ATOM     34  H   UNL     1      -1.386   1.730   4.144  0.00  0.00    -0.083 HD
ENDBRANCH  30  31
ENDBRANCH  29  30
ENDBRANCH   8  29
BRANCH  16  35
ATOM     35  C   UNL     1       0.452  -6.255   3.181  0.00  0.00    +0.234 C 
BRANCH  35  36
ATOM     36  C   UNL     1       0.789  -7.686   2.847  0.00  0.00    +0.325 C 
ATOM     37  O   UNL     1       0.746  -8.065   1.700  0.00  0.00    -0.249 OA
BRANCH  36  38
ATOM     38  O   UNL     1       1.137  -8.539   3.823  0.00  0.00    -0.467 OA
ATOM     39  C   UNL     1       1.444  -9.879   3.435  0.00  0.00    +0.280 C 
ENDBRANCH  36  38
ENDBRANCH  35  36
ENDBRANCH  16  35
TORSDOF 9
