REMARK  Name = ZINC43263781
REMARK  8 active torsions:
REMARK  status: ('A' for Active; 'I' for Inactive)
REMARK    1  A    between atoms: C_1  and  C_2
REMARK    2  A    between atoms: C_5  and  O_9
REMARK    3  A    between atoms: C_6  and  C_8
REMARK    4  A    between atoms: O_9  and  C_10
REMARK    5  A    between atoms: C_10  and  C_12
REMARK    6  A    between atoms: C_10  and  C_18
REMARK    7  A    between atoms: C_18  and  C_20
REMARK    8  A    between atoms: C_18  and  N_21
REMARK                            x       y       z     vdW  Elec       q    Type
REMARK                         _______ _______ _______ _____ _____    ______ ____
ROOT
ATOM      1  C   UNL     1      -0.052  -4.772  -1.292  0.00  0.00    +0.196 C 
ENDROOT
BRANCH   1   2
ATOM      2  C   UNL     1      -0.840  -6.048  -1.143  0.00  0.00    +0.029 A 
ATOM      3  C   UNL     1      -1.703  -6.625  -2.015  0.00  0.00    +0.016 A 
ATOM      4  C   UNL     1      -2.320  -7.811  -1.662  0.00  0.00    +0.023 A 
ATOM      5  C   UNL     1      -2.042  -8.363  -0.455  0.00  0.00    +0.055 A 
ATOM      6  S   UNL     1      -0.872  -7.197   0.223  0.00  0.00    -0.083 S 
ATOM      7 BR   UNL     1      -2.714  -9.957   0.309  0.00  0.00    -0.043 Br
ENDBRANCH   1   2
BRANCH   1   8
ATOM      8  C   UNL     1       1.346  -5.095  -1.822  0.00  0.00    -0.032 C 
ATOM      9  C   UNL     1       2.107  -5.921  -0.783  0.00  0.00    -0.010 C 
BRANCH   8  10
ATOM     10  N   UNL     1       2.072  -3.844  -2.080  0.00  0.00    +0.382 N 
ATOM     11  H   UNL     1       1.571  -3.299  -2.765  0.00  0.00    -0.089 HD
ATOM     12  H   UNL     1       2.151  -3.318  -1.223  0.00  0.00    -0.089 HD
ATOM     13  H   UNL     1       2.995  -4.057  -2.430  0.00  0.00    -0.089 HD
ENDBRANCH   8  10
ENDBRANCH   1   8
BRANCH   1  14
ATOM     14  O   UNL     1       0.057  -4.129  -0.021  0.00  0.00    -0.485 OA
BRANCH  14  19
ATOM     15  C   UNL     1      -0.231   1.496   0.032  0.00  0.00    +0.044 C 
ATOM     16  C   UNL     1      -0.154  -0.009   0.018  0.00  0.00    -0.050 A 
ATOM     17  C   UNL     1      -0.135  -0.688  -1.187  0.00  0.00    +0.007 A 
ATOM     18  C   UNL     1      -0.065  -2.067  -1.202  0.00  0.00    +0.046 A 
ATOM     19  C   UNL     1      -0.012  -2.772  -0.008  0.00  0.00    +0.124 A 
ATOM     20  C   UNL     1      -0.031  -2.088   1.199  0.00  0.00    -0.009 A 
ATOM     21  C   UNL     1      -0.096  -0.708   1.209  0.00  0.00    +0.010 A 
ATOM     22  C   UNL     1       0.025  -2.850   2.498  0.00  0.00    +0.047 C 
ENDBRANCH  14  19
ENDBRANCH   1  14
TORSDOF 5
