REMARK  Name = ZINC57934570
REMARK  3 active torsions:
REMARK  status: ('A' for Active; 'I' for Inactive)
REMARK    1  A    between atoms: C_1  and  C_2
REMARK    2  A    between atoms: C_2  and  C_4
REMARK    3  A    between atoms: C_4  and  N_5
REMARK                            x       y       z     vdW  Elec       q    Type
REMARK                         _______ _______ _______ _____ _____    ______ ____
ROOT
ATOM      1  N   UNL     1      -1.460  -1.298  -1.948  0.00  0.00    -0.264 N 
ATOM      2  C   UNL     1      -2.057  -2.430  -1.375  0.00  0.00    +0.061 A 
ATOM      3  C   UNL     1      -1.602  -2.933  -0.166  0.00  0.00    +0.075 A 
ATOM      4  C   UNL     1      -2.200  -4.056   0.385  0.00  0.00    +0.168 A 
ATOM      5  C   UNL     1      -3.256  -4.680  -0.274  0.00  0.00    +0.168 A 
ATOM      6  C   UNL     1      -3.713  -4.177  -1.483  0.00  0.00    +0.074 A 
ATOM      7  C   UNL     1      -3.118  -3.054  -2.030  0.00  0.00    +0.053 A 
ATOM      8  N   UNL     1      -3.569  -2.516  -3.247  0.00  0.00    -0.334 N 
ATOM      9  C   UNL     1      -3.417  -1.069  -3.458  0.00  0.00    +0.198 C 
ATOM     10  C   UNL     1      -2.066  -0.635  -2.952  0.00  0.00    +0.237 C 
ATOM     11  O   UNL     1      -1.514   0.319  -3.458  0.00  0.00    -0.274 OA
ATOM     12  O   UNL     1      -3.660  -5.753   0.468  0.00  0.00    -0.453 OA
ATOM     13  C   UNL     1      -2.580  -6.019   1.381  0.00  0.00    +0.466 C 
ATOM     14  O   UNL     1      -1.944  -4.737   1.542  0.00  0.00    -0.453 OA
ATOM     15  H   UNL     1      -3.968  -3.082  -3.927  0.00  0.00    +0.147 HD
ENDROOT
BRANCH   1  16
ATOM     16  C   UNL     1      -0.168  -0.827  -1.445  0.00  0.00    +0.143 C 
BRANCH  16  18
ATOM     17  C   UNL     1       1.437  -2.862  -1.762  0.00  0.00    +0.040 C 
ATOM     18  C   UNL     1       0.944  -1.507  -2.202  0.00  0.00    -0.062 C 
ATOM     19  C   UNL     1       1.482  -0.921  -3.243  0.00  0.00    +0.009 C 
ENDBRANCH  16  18
ENDBRANCH   1  16
TORSDOF 2
