REMARK  Name = ZINC00046125
REMARK  5 active torsions:
REMARK  status: ('A' for Active; 'I' for Inactive)
REMARK    1  A    between atoms: C_1  and  C_2
REMARK    2  A    between atoms: C_2  and  N_3
REMARK    3  A    between atoms: C_14  and  C_16
REMARK    4  A    between atoms: N_17  and  N_18
REMARK    5  A    between atoms: C_19  and  C_21
REMARK                            x       y       z     vdW  Elec       q    Type
REMARK                         _______ _______ _______ _____ _____    ______ ____
ROOT
ATOM      1  N   UNL     1       2.180   4.106   0.002  0.00  0.00    -0.340 N 
ATOM      2  C   UNL     1       1.164   3.167   0.007  0.00  0.00    +0.050 A 
ATOM      3  C   UNL     1       1.175   1.775   0.000  0.00  0.00    +0.026 A 
ATOM      4  C   UNL     1      -0.013   1.076   0.008  0.00  0.00    +0.002 A 
ATOM      5  C   UNL     1      -1.226   1.747   0.017  0.00  0.00    +0.001 A 
ATOM      6  C   UNL     1      -1.257   3.125   0.031  0.00  0.00    +0.010 A 
ATOM      7  C   UNL     1      -0.065   3.844   0.023  0.00  0.00    +0.008 A 
ATOM      8  C   UNL     1       0.252   5.285   0.027  0.00  0.00    +0.008 A 
ATOM      9  C   UNL     1       1.653   5.384   0.014  0.00  0.00    +0.050 A 
ATOM     10  C   UNL     1       2.253   6.641   0.014  0.00  0.00    +0.027 A 
ATOM     11  C   UNL     1       1.480   7.778   0.028  0.00  0.00    +0.011 A 
ATOM     12  C   UNL     1       0.083   7.685   0.041  0.00  0.00    -0.005 A 
ATOM     13  C   UNL     1      -0.530   6.433   0.041  0.00  0.00    +0.020 A 
ENDROOT
BRANCH   1  15
ATOM     14  C   UNL     1       4.095   3.688  -1.460  0.00  0.00    +0.027 C 
ATOM     15  C   UNL     1       3.610   3.790  -0.012  0.00  0.00    +0.119 C 
ENDBRANCH   1  15
BRANCH  12  16
ATOM     16  C   UNL     1      -0.739   8.909   0.056  0.00  0.00    +0.138 C 
ATOM     17  N   UNL     1      -0.167  10.074   0.056  0.00  0.00    -0.187 NA
BRANCH  17  18
ATOM     18  N   UNL     1      -0.947  11.238   0.070  0.00  0.00    -0.203 N 
ATOM     19  C   UNL     1      -0.354  12.448   0.070  0.00  0.00    +0.270 C 
ATOM     20  O   UNL     1       0.861  12.530   0.058  0.00  0.00    -0.268 OA
ATOM     21  H   UNL     1      -1.915  11.172   0.079  0.00  0.00    +0.178 HD
BRANCH  19  22
ATOM     22  C   UNL     1      -1.170  13.664   0.085  0.00  0.00    +0.075 A 
ATOM     23  C   UNL     1      -0.763  14.990   0.093  0.00  0.00    +0.021 A 
ATOM     24  C   UNL     1      -1.748  15.946   0.102  0.00  0.00    +0.008 A 
ATOM     25  C   UNL     1      -3.050  15.557   0.114  0.00  0.00    +0.046 A 
ATOM     26  S   UNL     1      -2.947  13.826   0.104  0.00  0.00    -0.092 S 
ENDBRANCH  19  22
ENDBRANCH  17  18
ENDBRANCH  12  16
TORSDOF 4
