REMARK  Name = ZINC36799264
REMARK  5 active torsions:
REMARK  status: ('A' for Active; 'I' for Inactive)
REMARK    1  A    between atoms: C_1  and  C_2
REMARK    2  A    between atoms: C_9  and  C_16
REMARK    3  A    between atoms: C_11  and  O_12
REMARK    4  A    between atoms: C_16  and  O_17
REMARK    5  A    between atoms: O_17  and  C_18
REMARK                            x       y       z     vdW  Elec       q    Type
REMARK                         _______ _______ _______ _____ _____    ______ ____
ROOT
ATOM      1  C   UNL     1       0.144   1.438  -0.824  0.00  0.00    +0.109 C 
ATOM      2  C   UNL     1       0.060  -0.065  -0.893  0.00  0.00    +0.214 C 
ATOM      3  O   UNL     1       1.048  -0.718  -1.179  0.00  0.00    -0.276 OA
ATOM      4  N   UNL     1      -1.083  -0.673  -0.645  0.00  0.00    -0.286 N 
ATOM      5  C   UNL     1      -1.131  -2.032  -0.579  0.00  0.00    +0.037 A 
ATOM      6  C   UNL     1      -2.367  -2.694  -0.677  0.00  0.00    +0.024 A 
ATOM      7  C   UNL     1      -2.428  -4.050  -0.613  0.00  0.00    +0.014 A 
ATOM      8  C   UNL     1      -1.249  -4.798  -0.448  0.00  0.00    +0.024 A 
ATOM      9  C   UNL     1      -1.291  -6.207  -0.380  0.00  0.00    +0.007 A 
ATOM     10  C   UNL     1      -0.104  -6.894  -0.217  0.00  0.00    +0.095 A 
ATOM     11  C   UNL     1       1.092  -6.198  -0.124  0.00  0.00    +0.285 A 
ATOM     12  O   UNL     1       1.127  -4.863  -0.190  0.00  0.00    -0.425 OA
ATOM     13  C   UNL     1      -0.002  -4.142  -0.348  0.00  0.00    +0.141 A 
ATOM     14  C   UNL     1       0.049  -2.761  -0.420  0.00  0.00    +0.070 A 
ATOM     15  H   UNL     1      -1.890  -0.152  -0.509  0.00  0.00    +0.155 HD
ENDROOT
BRANCH  11  16
ATOM     16  O   UNL     1       2.242  -6.881   0.034  0.00  0.00    -0.480 OA
ATOM     17  H   UNL     1       3.028  -6.320   0.089  0.00  0.00    +0.295 HD
ENDBRANCH  11  16
BRANCH   9  18
ATOM     18  C   UNL     1      -2.601  -6.944  -0.482  0.00  0.00    +0.265 C 
BRANCH  18  19
ATOM     19  O   UNL     1      -2.782  -7.757   0.680  0.00  0.00    -0.487 OA
BRANCH  19  20
ATOM     20  C   UNL     1      -3.921  -8.492   0.746  0.00  0.00    +0.125 A 
ATOM     21  C   UNL     1      -4.844  -8.432  -0.296  0.00  0.00    +0.046 A 
ATOM     22  C   UNL     1      -5.994  -9.165  -0.244  0.00  0.00    +0.015 A 
ATOM     23  C   UNL     1      -6.248  -9.982   0.863  0.00  0.00    +0.018 A 
ATOM     24  C   UNL     1      -7.473 -10.780   0.946  0.00  0.00    +0.018 A 
ATOM     25  C   UNL     1      -7.662 -11.554   2.046  0.00  0.00    +0.092 A 
ATOM     26  C   UNL     1      -6.689 -11.571   3.067  0.00  0.00    +0.337 A 
ATOM     27  O   UNL     1      -6.871 -12.270   4.048  0.00  0.00    -0.245 OA
ATOM     28  O   UNL     1      -5.568 -10.838   2.985  0.00  0.00    -0.422 OA
ATOM     29  C   UNL     1      -5.320 -10.047   1.919  0.00  0.00    +0.143 A 
ATOM     30  C   UNL     1      -4.154  -9.300   1.847  0.00  0.00    +0.092 A 
ENDBRANCH  19  20
ENDBRANCH  18  19
ENDBRANCH   9  18
TORSDOF 4
