REMARK  Name = ZINC27221656
REMARK  5 active torsions:
REMARK  status: ('A' for Active; 'I' for Inactive)
REMARK    1  A    between atoms: C_1  and  C_2
REMARK    2  A    between atoms: C_2  and  C_4
REMARK    3  A    between atoms: C_2  and  N_10
REMARK    4  A    between atoms: N_10  and  C_11
REMARK    5  A    between atoms: C_11  and  C_12
REMARK                            x       y       z     vdW  Elec       q    Type
REMARK                         _______ _______ _______ _____ _____    ______ ____
ROOT
ATOM      1  N   UNL     1       2.064   5.933  -0.876  0.00  0.00    +0.386 N 
ATOM      2  H   UNL     1       2.980   5.650  -0.337  0.00  0.00    -0.085 HD
ATOM      3  H   UNL     1       1.926   5.263  -1.738  0.00  0.00    -0.085 HD
ENDROOT
BRANCH   1   5
ATOM      4  C   UNL     1       1.328   6.208   1.443  0.00  0.00    -0.008 C 
ATOM      5  C   UNL     1       0.910   5.816   0.024  0.00  0.00    -0.037 C 
BRANCH   5   6
ATOM      6  C   UNL     1       0.412   4.394   0.022  0.00  0.00    -0.023 A 
ATOM      7  C   UNL     1      -0.864   3.936   0.032  0.00  0.00    +0.011 A 
ATOM      8  C   UNL     1      -1.087   2.572   0.020  0.00  0.00    +0.028 A 
ATOM      9  C   UNL     1      -0.021   1.732   0.012  0.00  0.00    +0.078 A 
ATOM     10  S   UNL     1       1.350   2.875   0.005  0.00  0.00    -0.083 S 
ATOM     11 CL   UNL     1       0.002  -0.004   0.002  0.00  0.00    -0.076 Cl
ENDBRANCH   5   6
ENDBRANCH   1   5
BRANCH   1  12
ATOM     12  C   UNL     1       2.212   7.309  -1.368  0.00  0.00    -0.046 C 
BRANCH  12  13
ATOM     13  C   UNL     1       3.404   7.389  -2.286  0.00  0.00    -0.060 A 
ATOM     14  C   UNL     1       4.652   7.689  -1.772  0.00  0.00    +0.051 A 
ATOM     15  C   UNL     1       5.751   7.759  -2.614  0.00  0.00    +0.168 A 
ATOM     16  C   UNL     1       5.592   7.536  -3.979  0.00  0.00    +0.180 A 
ATOM     17  C   UNL     1       4.338   7.241  -4.489  0.00  0.00    +0.063 A 
ATOM     18  C   UNL     1       3.247   7.168  -3.641  0.00  0.00    +0.021 A 
ATOM     19 BR   UNL     1       4.117   6.937  -6.342  0.00  0.00    -0.046 Br
ATOM     20  O   UNL     1       6.809   7.664  -4.586  0.00  0.00    -0.451 OA
ATOM     21  C   UNL     1       7.779   7.564  -3.527  0.00  0.00    +0.466 C 
ATOM     22  O   UNL     1       7.066   8.027  -2.365  0.00  0.00    -0.453 OA
ENDBRANCH  12  13
ENDBRANCH   1  12
TORSDOF 4
