REMARK  Name = ZINC35781312
REMARK  12 active torsions:
REMARK  status: ('A' for Active; 'I' for Inactive)
REMARK    1  A    between atoms: C_1  and  C_2
REMARK    2  A    between atoms: C_2  and  C_3
REMARK    3  A    between atoms: C_2  and  O_4
REMARK    4  A    between atoms: O_4  and  C_5
REMARK    5  A    between atoms: C_5  and  C_6
REMARK    6  A    between atoms: C_6  and  C_8
REMARK    7  A    between atoms: C_6  and  O_34
REMARK    8  A    between atoms: C_8  and  N_9
REMARK    9  A    between atoms: N_9  and  C_10
REMARK   10  A    between atoms: N_9  and  C_17
REMARK   11  A    between atoms: C_10  and  C_11
REMARK   12  A    between atoms: C_17  and  C_18
REMARK                            x       y       z     vdW  Elec       q    Type
REMARK                         _______ _______ _______ _____ _____    ______ ____
ROOT
ATOM      1  N   UNL     1      -4.376  -3.621  -1.184  0.00  0.00    +0.389 N 
ATOM      2  H   UNL     1      -4.702  -3.455  -0.243  0.00  0.00    -0.081 HD
ENDROOT
BRANCH   1   3
ATOM      3  C   UNL     1      -2.910  -3.533  -1.217  0.00  0.00    -0.044 C 
BRANCH   3   4
ATOM      4  C   UNL     1      -2.467  -2.184  -0.647  0.00  0.00    +0.124 C 
BRANCH   4   5
ATOM      5  O   UNL     1      -2.818  -2.113   0.736  0.00  0.00    -0.391 OA
ATOM      6  H   UNL     1      -2.412  -2.800   1.281  0.00  0.00    +0.210 HD
ENDBRANCH   4   5
BRANCH   4   7
ATOM      7  C   UNL     1      -0.951  -2.041  -0.796  0.00  0.00    +0.189 C 
BRANCH   7   8
ATOM      8  O   UNL     1      -0.552  -0.736  -0.372  0.00  0.00    -0.375 OA
BRANCH   8  10
ATOM      9  C   UNL     1       1.101   0.990  -0.734  0.00  0.00    +0.037 C 
ATOM     10  C   UNL     1       0.854  -0.497  -0.471  0.00  0.00    +0.112 C 
ATOM     11  C   UNL     1       1.534  -0.904   0.838  0.00  0.00    +0.037 C 
ENDBRANCH   8  10
ENDBRANCH   7   8
ENDBRANCH   4   7
ENDBRANCH   3   4
ENDBRANCH   1   3
BRANCH   1  12
ATOM     12  C   UNL     1      -4.948  -2.611  -2.085  0.00  0.00    -0.042 C 
BRANCH  12  13
ATOM     13  C   UNL     1      -6.449  -2.619  -1.960  0.00  0.00    -0.064 A 
ATOM     14  C   UNL     1      -7.214  -3.352  -2.849  0.00  0.00    +0.002 A 
ATOM     15  C   UNL     1      -8.591  -3.358  -2.734  0.00  0.00    +0.000 A 
ATOM     16  C   UNL     1      -9.204  -2.633  -1.730  0.00  0.00    +0.000 A 
ATOM     17  C   UNL     1      -8.440  -1.901  -0.840  0.00  0.00    +0.000 A 
ATOM     18  C   UNL     1      -7.062  -1.897  -0.953  0.00  0.00    +0.002 A 
ENDBRANCH  12  13
ENDBRANCH   1  12
BRANCH   1  19
ATOM     19  C   UNL     1      -4.796  -4.960  -1.618  0.00  0.00    -0.003 C 
BRANCH  19  20
ATOM     20  C   UNL     1      -4.354  -5.980  -0.601  0.00  0.00    +0.094 A 
ATOM     21  N   UNL     1      -4.525  -7.301  -0.864  0.00  0.00    -0.312 N 
ATOM     22  H   UNL     1      -4.928  -7.570  -1.704  0.00  0.00    +0.170 HD
ATOM     23  C   UNL     1      -4.145  -8.245   0.017  0.00  0.00    +0.260 A 
ATOM     24  O   UNL     1      -4.304  -9.427  -0.234  0.00  0.00    -0.267 OA
ATOM     25  C   UNL     1      -3.549  -7.836   1.255  0.00  0.00    +0.075 A 
ATOM     26  C   UNL     1      -3.065  -8.683   2.349  0.00  0.00    -0.023 A 
ATOM     27  C   UNL     1      -2.545  -8.049   3.421  0.00  0.00    -0.004 A 
ATOM     28  S   UNL     1      -2.657  -6.321   3.036  0.00  0.00    -0.073 S 
ATOM     29  C   UNL     1      -3.414  -6.452   1.437  0.00  0.00    +0.116 A 
ATOM     30  N   UNL     1      -3.809  -5.577   0.516  0.00  0.00    -0.229 NA
ATOM     31  C   UNL     1      -2.001  -8.660   4.675  0.00  0.00    +0.043 C 
ATOM     32  C   UNL     1      -1.017  -9.779   4.307  0.00  0.00    +0.005 C 
ATOM     33  C   UNL     1      -1.797 -11.084   4.186  0.00  0.00    +0.001 C 
ATOM     34  C   UNL     1      -3.204 -10.806   3.659  0.00  0.00    +0.005 C 
ATOM     35  C   UNL     1      -3.142 -10.204   2.261  0.00  0.00    +0.037 C 
ENDBRANCH  19  20
ENDBRANCH   1  19
TORSDOF 10
