REMARK  Name = ZINC53170037
REMARK  3 active torsions:
REMARK  status: ('A' for Active; 'I' for Inactive)
REMARK    1  A    between atoms: C_1  and  C_2
REMARK    2  A    between atoms: C_2  and  C_4
REMARK    3  A    between atoms: C_2  and  N_10
REMARK                            x       y       z     vdW  Elec       q    Type
REMARK                         _______ _______ _______ _____ _____    ______ ____
ROOT
ATOM      1  N   UNL     1       0.700  -0.507  -1.183  0.00  0.00    -0.302 N 
ATOM      2  C   UNL     1       0.131  -1.206  -2.236  0.00  0.00    +0.109 A 
ATOM      3  C   UNL     1       1.152  -1.382  -3.183  0.00  0.00    +0.094 A 
ATOM      4  C   UNL     1       0.879  -2.063  -4.372  0.00  0.00    +0.033 A 
ATOM      5  C   UNL     1      -0.387  -2.555  -4.605  0.00  0.00    +0.043 A 
ATOM      6  C   UNL     1      -1.394  -2.379  -3.667  0.00  0.00    +0.161 A 
ATOM      7  C   UNL     1      -1.139  -1.707  -2.484  0.00  0.00    +0.184 A 
ATOM      8  F   UNL     1      -2.123  -1.539  -1.574  0.00  0.00    -0.200 F 
ATOM      9  F   UNL     1      -2.631  -2.866  -3.909  0.00  0.00    -0.202 F 
ATOM     10  N   UNL     1       2.271  -0.797  -2.679  0.00  0.00    -0.215 NA
ATOM     11  C   UNL     1       2.006  -0.278  -1.507  0.00  0.00    +0.195 A 
ATOM     12  N   UNL     1       2.912   0.398  -0.716  0.00  0.00    -0.329 N 
ATOM     13  H   UNL     1       2.648   0.716   0.161  0.00  0.00    +0.145 HD
ATOM     14  H   UNL     1       3.814   0.555  -1.037  0.00  0.00    +0.145 HD
ENDROOT
BRANCH   1  16
ATOM     15  C   UNL     1       0.215   1.419   0.246  0.00  0.00    +0.036 C 
ATOM     16  C   UNL     1       0.023  -0.086   0.047  0.00  0.00    +0.124 C 
BRANCH  16  17
ATOM     17  C   UNL     1       0.609  -0.827   1.221  0.00  0.00    +0.014 A 
ATOM     18  C   UNL     1      -0.020  -1.586   2.151  0.00  0.00    +0.015 A 
ATOM     19  C   UNL     1       0.729  -2.177   3.152  0.00  0.00    +0.028 A 
ATOM     20  C   UNL     1       2.071  -1.980   3.172  0.00  0.00    +0.078 A 
ATOM     21  S   UNL     1       2.312  -0.938   1.743  0.00  0.00    -0.080 S 
ATOM     22 CL   UNL     1       3.248  -2.589   4.293  0.00  0.00    -0.076 Cl
ENDBRANCH  16  17
ENDBRANCH   1  16
TORSDOF 2
