REMARK  Name = ZINC39769416
REMARK  10 active torsions:
REMARK  status: ('A' for Active; 'I' for Inactive)
REMARK    1  A    between atoms: C_1  and  C_2
REMARK    2  A    between atoms: C_2  and  N_3
REMARK    3  A    between atoms: C_4  and  N_29
REMARK    4  A    between atoms: C_5  and  C_13
REMARK    5  A    between atoms: C_6  and  C_12
REMARK    6  A    between atoms: C_7  and  C_10
REMARK    7  A    between atoms: N_17  and  C_21
REMARK    8  A    between atoms: C_21  and  C_22
REMARK    9  A    between atoms: C_31  and  C_38
REMARK   10  A    between atoms: C_34  and  C_37
REMARK                            x       y       z     vdW  Elec       q    Type
REMARK                         _______ _______ _______ _____ _____    ______ ____
ROOT
ATOM      1  N   UNL     1       0.532  -0.558   1.717  0.00  0.00    -0.295 N 
ATOM      2  C   UNL     1       1.861  -0.708   1.480  0.00  0.00    +0.112 A 
ATOM      3  C   UNL     1       2.658  -1.476   2.344  0.00  0.00    +0.019 A 
ATOM      4  C   UNL     1       2.070  -2.093   3.461  0.00  0.00    -0.017 A 
ATOM      5  C   UNL     1       0.706  -1.924   3.682  0.00  0.00    +0.120 A 
ATOM      6  C   UNL     1      -0.054  -1.133   2.782  0.00  0.00    +0.270 A 
ATOM      7  O   UNL     1      -1.247  -0.978   2.973  0.00  0.00    -0.266 OA
ATOM      8  C   UNL     1       2.901  -2.923   4.404  0.00  0.00    +0.046 C 
ENDROOT
BRANCH   3   9
ATOM      9  C   UNL     1       4.090  -1.634   2.083  0.00  0.00    +0.032 C 
ATOM     10  C   UNL     1       5.001  -1.104   2.943  0.00  0.00    +0.077 C 
ATOM     11  C   UNL     1       4.795  -0.277   4.089  0.00  0.00    +0.259 C 
ATOM     12  O   UNL     1       3.674   0.058   4.428  0.00  0.00    -0.269 OA
ATOM     13  N   UNL     1       5.857   0.114   4.772  0.00  0.00    -0.251 N 
ATOM     14  C   UNL     1       7.101  -0.258   4.396  0.00  0.00    +0.121 C 
ATOM     15  S   UNL     1       8.601   0.128   5.124  0.00  0.00    -0.027 S 
ATOM     16  S   UNL     1       6.782  -1.259   2.952  0.00  0.00    -0.061 S 
BRANCH  13  17
ATOM     17  C   UNL     1       5.683   0.963   5.953  0.00  0.00    +0.150 C 
BRANCH  17  18
ATOM     18  C   UNL     1       5.524   0.096   7.176  0.00  0.00    -0.029 A 
ATOM     19  C   UNL     1       4.266  -0.320   7.569  0.00  0.00    +0.008 A 
ATOM     20  C   UNL     1       4.119  -1.115   8.689  0.00  0.00    +0.038 A 
ATOM     21  C   UNL     1       5.232  -1.495   9.419  0.00  0.00    +0.123 A 
ATOM     22  C   UNL     1       6.492  -1.078   9.024  0.00  0.00    +0.038 A 
ATOM     23  C   UNL     1       6.637  -0.287   7.900  0.00  0.00    +0.008 A 
ATOM     24  F   UNL     1       5.090  -2.272  10.515  0.00  0.00    -0.205 F 
ENDBRANCH  17  18
ENDBRANCH  13  17
ENDBRANCH   3   9
BRANCH   2  25
ATOM     25  N   UNL     1       2.426  -0.106   0.393  0.00  0.00    -0.315 N 
ATOM     26  C   UNL     1       3.072   1.208   0.516  0.00  0.00    +0.109 C 
ATOM     27  C   UNL     1       4.496   1.111  -0.041  0.00  0.00    +0.004 C 
ATOM     28  C   UNL     1       4.444   0.568  -1.471  0.00  0.00    +0.009 C 
ATOM     29  C   UNL     1       3.832  -0.835  -1.464  0.00  0.00    +0.004 C 
ATOM     30  C   UNL     1       2.406  -0.763  -0.921  0.00  0.00    +0.109 C 
ATOM     31  C   UNL     1       3.811  -1.390  -2.889  0.00  0.00    +0.009 C 
ATOM     32  C   UNL     1       5.138   2.500  -0.045  0.00  0.00    +0.009 C 
ENDBRANCH   2  25
BRANCH   1  34
ATOM     33  C   UNL     1      -0.383   1.677   1.335  0.00  0.00    +0.027 C 
ATOM     34  C   UNL     1      -0.276   0.248   0.799  0.00  0.00    +0.123 C 
ENDBRANCH   1  34
BRANCH   5  35
ATOM     35  C   UNL     1       0.075  -2.539   4.811  0.00  0.00    +0.105 C 
ATOM     36  N   UNL     1      -0.425  -3.027   5.707  0.00  0.00    -0.191 NA
ENDBRANCH   5  35
TORSDOF 6
