REMARK  Name = ZINC39634380
REMARK  10 active torsions:
REMARK  status: ('A' for Active; 'I' for Inactive)
REMARK    1  A    between atoms: C_1  and  C_2
REMARK    2  A    between atoms: C_5  and  C_8
REMARK    3  A    between atoms: C_8  and  N_9
REMARK    4  A    between atoms: C_10  and  C_12
REMARK    5  A    between atoms: C_23  and  C_25
REMARK    6  A    between atoms: C_27  and  C_34
REMARK    7  A    between atoms: N_29  and  C_30
REMARK    8  A    between atoms: C_30  and  C_31
REMARK    9  A    between atoms: C_30  and  C_32
REMARK   10  A    between atoms: C_30  and  C_33
REMARK                            x       y       z     vdW  Elec       q    Type
REMARK                         _______ _______ _______ _____ _____    ______ ____
ROOT
ATOM      1  C   UNL     1       2.726  -6.887  -0.027  0.00  0.00    +0.100 C 
ATOM      2  C   UNL     1       3.496  -6.381   1.214  0.00  0.00    +0.121 C 
ATOM      3  N   UNL     1       3.525  -7.542   2.135  0.00  0.00    -0.295 N 
ATOM      4  C   UNL     1       3.748  -8.710   1.250  0.00  0.00    +0.115 C 
ATOM      5  C   UNL     1       2.897  -8.415  -0.002  0.00  0.00    -0.004 C 
ATOM      6  C   UNL     1       1.536  -9.097   0.114  0.00  0.00    -0.010 C 
ATOM      7  C   UNL     1       1.728 -10.616   0.080  0.00  0.00    -0.082 C 
ATOM      8  N   UNL     1       2.385 -11.000  -1.175  0.00  0.00    +0.379 N 
ATOM      9  C   UNL     1       3.730 -10.415  -1.236  0.00  0.00    -0.082 C 
ATOM     10  C   UNL     1       3.623  -8.887  -1.258  0.00  0.00    -0.010 C 
ATOM     11  C   UNL     1       3.381  -7.536   3.475  0.00  0.00    +0.265 C 
ATOM     12  O   UNL     1       3.420  -8.582   4.095  0.00  0.00    -0.268 OA
ATOM     13  H   UNL     1       2.455 -12.005  -1.223  0.00  0.00    -0.086 HD
ATOM     14  H   UNL     1       1.839 -10.666  -1.955  0.00  0.00    -0.086 HD
ENDROOT
BRANCH  11  15
ATOM     15  C   UNL     1       3.177  -6.265   4.188  0.00  0.00    +0.124 A 
ATOM     16  C   UNL     1       3.317  -4.990   3.669  0.00  0.00    +0.057 A 
ATOM     17  C   UNL     1       3.019  -4.126   4.725  0.00  0.00    +0.061 A 
ATOM     18  N   UNL     1       2.730  -4.856   5.772  0.00  0.00    -0.175 NA
ATOM     19  N   UNL     1       2.806  -6.108   5.493  0.00  0.00    -0.254 N 
ATOM     20  C   UNL     1       3.030  -2.620   4.670  0.00  0.00    +0.067 C 
BRANCH  19  21
ATOM     21  C   UNL     1       2.539  -7.199   6.433  0.00  0.00    +0.056 C 
ATOM     22  C   UNL     1       3.822  -8.001   6.661  0.00  0.00    +0.036 C 
ATOM     23  C   UNL     1       2.056  -6.620   7.764  0.00  0.00    +0.036 C 
ATOM     24  C   UNL     1       1.461  -8.118   5.854  0.00  0.00    +0.036 C 
ENDBRANCH  19  21
ENDBRANCH  11  15
BRANCH   1  26
ATOM     25  N   UNL     1       0.504  -6.481  -1.036  0.00  0.00    -0.311 N 
ATOM     26  C   UNL     1       1.268  -6.520   0.074  0.00  0.00    +0.218 C 
ATOM     27  O   UNL     1       0.782  -6.260   1.154  0.00  0.00    -0.275 OA
ATOM     28  H   UNL     1       0.908  -6.617  -1.907  0.00  0.00    +0.149 HD
BRANCH  25  29
ATOM     29  C   UNL     1      -0.935  -6.232  -0.926  0.00  0.00    +0.139 C 
BRANCH  29  34
ATOM     30  C   UNL     1      -3.305  -6.256  -6.196  0.00  0.00    +0.044 C 
ATOM     31  C   UNL     1      -2.687  -6.249  -4.822  0.00  0.00    -0.050 A 
ATOM     32  C   UNL     1      -2.599  -7.424  -4.098  0.00  0.00    +0.003 A 
ATOM     33  C   UNL     1      -2.032  -7.418  -2.837  0.00  0.00    +0.005 A 
ATOM     34  C   UNL     1      -1.553  -6.238  -2.300  0.00  0.00    -0.030 A 
ATOM     35  C   UNL     1      -1.640  -5.064  -3.024  0.00  0.00    +0.005 A 
ATOM     36  C   UNL     1      -2.203  -5.070  -4.287  0.00  0.00    +0.003 A 
ENDBRANCH  29  34
ENDBRANCH  25  29
ENDBRANCH   1  26
TORSDOF 5
