REMARK  Name = ZINC36026163
REMARK  11 active torsions:
REMARK  status: ('A' for Active; 'I' for Inactive)
REMARK    1  A    between atoms: C_1  and  C_2
REMARK    2  A    between atoms: C_3  and  C_15
REMARK    3  A    between atoms: N_6  and  C_9
REMARK    4  A    between atoms: N_7  and  C_8
REMARK    5  A    between atoms: C_15  and  C_16
REMARK    6  A    between atoms: C_15  and  C_26
REMARK    7  A    between atoms: C_18  and  N_23
REMARK    8  A    between atoms: C_21  and  O_22
REMARK    9  A    between atoms: C_27  and  C_39
REMARK   10  A    between atoms: N_28  and  C_38
REMARK   11  A    between atoms: N_29  and  C_32
REMARK                            x       y       z     vdW  Elec       q    Type
REMARK                         _______ _______ _______ _____ _____    ______ ____
ROOT
ATOM      1  C   UNL     1      -2.519  -0.714   0.291  0.00  0.00    +0.097 C 
ENDROOT
BRANCH   1   4
ATOM      2  C   UNL     1       0.201   0.031  -1.031  0.00  0.00    +0.065 C 
ATOM      3  C   UNL     1      -0.358  -1.361  -0.887  0.00  0.00    +0.042 A 
ATOM      4  C   UNL     1      -1.536  -1.682  -0.315  0.00  0.00    +0.051 A 
ATOM      5  C   UNL     1      -1.688  -3.087  -0.382  0.00  0.00    +0.276 A 
ATOM      6  O   UNL     1      -2.634  -3.729   0.038  0.00  0.00    -0.266 OA
ATOM      7  N   UNL     1      -0.596  -3.587  -0.995  0.00  0.00    -0.217 N 
ATOM      8  N   UNL     1       0.240  -2.510  -1.320  0.00  0.00    -0.284 N 
ATOM      9  C   UNL     1       1.533  -2.602  -2.002  0.00  0.00    +0.171 C 
BRANCH   7  10
ATOM     10  C   UNL     1      -0.345  -4.937  -1.262  0.00  0.00    +0.067 A 
ATOM     11  C   UNL     1       0.887  -5.492  -0.944  0.00  0.00    +0.028 A 
ATOM     12  C   UNL     1       1.132  -6.825  -1.210  0.00  0.00    +0.002 A 
ATOM     13  C   UNL     1       0.151  -7.607  -1.793  0.00  0.00    +0.000 A 
ATOM     14  C   UNL     1      -1.077  -7.057  -2.111  0.00  0.00    +0.002 A 
ATOM     15  C   UNL     1      -1.330  -5.726  -1.842  0.00  0.00    +0.028 A 
ENDBRANCH   7  10
ENDBRANCH   1   4
BRANCH   1  16
ATOM     16  C   UNL     1      -2.606  -0.950   1.777  0.00  0.00    +0.051 A 
ATOM     17  C   UNL     1      -3.702  -0.779   2.543  0.00  0.00    +0.042 A 
ATOM     18  N   UNL     1      -3.381  -1.094   3.833  0.00  0.00    -0.284 N 
ATOM     19  N   UNL     1      -2.033  -1.475   3.867  0.00  0.00    -0.217 N 
ATOM     20  C   UNL     1      -1.552  -1.394   2.610  0.00  0.00    +0.276 A 
ATOM     21  O   UNL     1      -0.417  -1.654   2.256  0.00  0.00    -0.266 OA
ATOM     22  C   UNL     1      -4.289  -1.043   4.981  0.00  0.00    +0.171 C 
ATOM     23  C   UNL     1      -5.053  -0.318   2.058  0.00  0.00    +0.065 C 
BRANCH  19  24
ATOM     24  C   UNL     1      -1.317  -1.873   5.000  0.00  0.00    +0.067 A 
ATOM     25  C   UNL     1      -0.068  -1.325   5.263  0.00  0.00    +0.028 A 
ATOM     26  C   UNL     1       0.637  -1.720   6.383  0.00  0.00    +0.002 A 
ATOM     27  C   UNL     1       0.100  -2.661   7.243  0.00  0.00    +0.000 A 
ATOM     28  C   UNL     1      -1.142  -3.209   6.984  0.00  0.00    +0.002 A 
ATOM     29  C   UNL     1      -1.855  -2.814   5.869  0.00  0.00    +0.028 A 
ENDBRANCH  19  24
ENDBRANCH   1  16
BRANCH   1  30
ATOM     30  C   UNL     1      -3.876  -0.921  -0.331  0.00  0.00    +0.008 A 
ATOM     31  C   UNL     1      -4.586  -2.078  -0.072  0.00  0.00    +0.041 A 
ATOM     32  C   UNL     1      -5.831  -2.268  -0.641  0.00  0.00    +0.127 A 
ATOM     33  C   UNL     1      -6.369  -1.302  -1.471  0.00  0.00    +0.036 A 
ATOM     34  C   UNL     1      -5.664  -0.144  -1.733  0.00  0.00    +0.048 A 
ATOM     35  C   UNL     1      -4.417   0.052  -1.158  0.00  0.00    +0.121 A 
BRANCH  32  36
ATOM     36  N   UNL     1      -6.589  -3.509  -0.363  0.00  0.00    +0.056 N 
ATOM     37  O   UNL     1      -6.119  -4.354   0.362  0.00  0.00    -0.126 OA
ATOM     38  O   UNL     1      -7.678  -3.676  -0.861  0.00  0.00    -0.126 OA
ENDBRANCH  32  36
BRANCH  35  39
ATOM     39  O   UNL     1      -3.723   1.193  -1.410  0.00  0.00    -0.506 OA
ATOM     40  H   UNL     1      -3.143   1.139  -2.183  0.00  0.00    +0.292 HD
ENDBRANCH  35  39
ENDBRANCH   1  30
TORSDOF 7
