REMARK  Name = ZINC08320660
REMARK  5 active torsions:
REMARK  status: ('A' for Active; 'I' for Inactive)
REMARK    1  A    between atoms: C_1  and  C_2
REMARK    2  A    between atoms: C_6  and  N_8
REMARK    3  A    between atoms: N_8  and  N_9
REMARK    4  A    between atoms: N_17  and  C_20
REMARK    5  A    between atoms: C_20  and  C_21
REMARK                            x       y       z     vdW  Elec       q    Type
REMARK                         _______ _______ _______ _____ _____    ______ ____
ROOT
ATOM      1  N   UNL     1       0.068  -4.087   2.379  0.00  0.00    -0.177 NA
ATOM      2  C   UNL     1       0.082  -4.752   3.512  0.00  0.00    +0.153 C 
ATOM      3  C   UNL     1       0.108  -6.222   3.694  0.00  0.00    +0.028 A 
ATOM      4  C   UNL     1       0.126  -7.292   2.806  0.00  0.00    +0.012 A 
ATOM      5  C   UNL     1       0.149  -8.584   3.291  0.00  0.00    +0.001 A 
ATOM      6  C   UNL     1       0.156  -8.812   4.657  0.00  0.00    +0.002 A 
ATOM      7  C   UNL     1       0.139  -7.757   5.546  0.00  0.00    +0.024 A 
ATOM      8  C   UNL     1       0.115  -6.449   5.076  0.00  0.00    +0.046 A 
ATOM      9  N   UNL     1       0.095  -5.228   5.741  0.00  0.00    -0.261 N 
ATOM     10  C   UNL     1       0.081  -4.199   4.877  0.00  0.00    +0.272 C 
ATOM     11  O   UNL     1       0.068  -3.017   5.170  0.00  0.00    -0.268 OA
ENDROOT
BRANCH   1  12
ATOM     12  N   UNL     1       0.051  -2.797   2.389  0.00  0.00    -0.237 N 
ATOM     13  H   UNL     1       0.049  -2.318   3.232  0.00  0.00    +0.174 HD
BRANCH  12  19
ATOM     14  C   UNL     1      -0.018   1.503   0.010  0.00  0.00    +0.044 C 
ATOM     15  C   UNL     1       0.002  -0.004   0.002  0.00  0.00    -0.049 A 
ATOM     16  C   UNL     1       0.006  -0.688  -1.200  0.00  0.00    +0.003 A 
ATOM     17  C   UNL     1       0.025  -2.071  -1.213  0.00  0.00    +0.002 A 
ATOM     18  C   UNL     1       0.040  -2.774  -0.024  0.00  0.00    +0.025 A 
ATOM     19  C   UNL     1       0.036  -2.090   1.186  0.00  0.00    +0.049 A 
ATOM     20  C   UNL     1       0.023  -0.700   1.194  0.00  0.00    +0.028 A 
ENDBRANCH  12  19
ENDBRANCH   1  12
BRANCH   9  21
ATOM     21  C   UNL     1       0.095  -5.082   7.198  0.00  0.00    +0.149 C 
BRANCH  21  22
ATOM     22  C   UNL     1       1.516  -5.007   7.696  0.00  0.00    -0.030 A 
ATOM     23  C   UNL     1       2.190  -6.164   8.037  0.00  0.00    +0.008 A 
ATOM     24  C   UNL     1       3.493  -6.096   8.493  0.00  0.00    +0.038 A 
ATOM     25  C   UNL     1       4.123  -4.869   8.607  0.00  0.00    +0.123 A 
ATOM     26  C   UNL     1       3.446  -3.710   8.264  0.00  0.00    +0.038 A 
ATOM     27  C   UNL     1       2.145  -3.781   7.804  0.00  0.00    +0.008 A 
ATOM     28  F   UNL     1       5.396  -4.801   9.053  0.00  0.00    -0.205 F 
ENDBRANCH  21  22
ENDBRANCH   9  21
TORSDOF 4
