REMARK  Name = ZINC34836421
REMARK  14 active torsions:
REMARK  status: ('A' for Active; 'I' for Inactive)
REMARK    1  A    between atoms: C_1  and  C_2
REMARK    2  A    between atoms: C_2  and  N_3
REMARK    3  A    between atoms: N_6  and  C_9
REMARK    4  A    between atoms: C_10  and  C_22
REMARK    5  A    between atoms: C_11  and  C_21
REMARK    6  A    between atoms: N_13  and  C_14
REMARK    7  A    between atoms: C_22  and  N_23
REMARK    8  A    between atoms: N_23  and  C_24
REMARK    9  A    between atoms: N_23  and  C_28
REMARK   10  A    between atoms: C_24  and  C_25
REMARK   11  A    between atoms: C_25  and  O_26
REMARK   12  A    between atoms: O_26  and  C_27
REMARK   13  A    between atoms: C_28  and  C_29
REMARK   14  A    between atoms: C_33  and  O_35
REMARK                            x       y       z     vdW  Elec       q    Type
REMARK                         _______ _______ _______ _____ _____    ______ ____
ROOT
ATOM      1  C   UNL     1       0.832  -2.610   4.191  0.00  0.00    +0.126 A 
ATOM      2  C   UNL     1       0.873  -3.968   4.290  0.00  0.00    -0.001 A 
ATOM      3  C   UNL     1       0.613  -4.308   5.621  0.00  0.00    +0.064 A 
ATOM      4  N   UNL     1       0.423  -3.207   6.302  0.00  0.00    -0.170 NA
ATOM      5  N   UNL     1       0.560  -2.118   5.430  0.00  0.00    -0.218 N 
ATOM      6  C   UNL     1       0.560  -5.707   6.178  0.00  0.00    +0.068 C 
ENDROOT
BRANCH   1  10
ATOM      7  N   UNL     1       1.468  -1.256   0.341  0.00  0.00    +0.382 N 
ATOM      8  C   UNL     1       0.165  -1.789   0.760  0.00  0.00    -0.060 C 
ATOM      9  C   UNL     1      -0.098  -1.404   2.219  0.00  0.00    +0.088 C 
ATOM     10  N   UNL     1       1.037  -1.862   3.035  0.00  0.00    -0.318 N 
ATOM     11  C   UNL     1       2.396  -1.509   2.594  0.00  0.00    +0.088 C 
ATOM     12  C   UNL     1       2.541  -1.890   1.117  0.00  0.00    -0.060 C 
ATOM     13  H   UNL     1       1.486  -0.259   0.496  0.00  0.00    -0.082 HD
BRANCH   7  15
ATOM     14  C   UNL     1       0.627  -0.769  -1.907  0.00  0.00    -0.017 C 
ATOM     15  C   UNL     1       1.671  -1.531  -1.088  0.00  0.00    -0.082 C 
ENDBRANCH   7  15
ENDBRANCH   1  10
BRANCH   5  16
ATOM     16  C   UNL     1       0.436  -0.764   5.773  0.00  0.00    +0.068 A 
ATOM     17  C   UNL     1       1.318   0.170   5.247  0.00  0.00    +0.030 A 
ATOM     18  C   UNL     1       1.194   1.503   5.585  0.00  0.00    +0.040 A 
ATOM     19  C   UNL     1       0.191   1.908   6.450  0.00  0.00    +0.124 A 
ATOM     20  C   UNL     1      -0.690   0.978   6.976  0.00  0.00    +0.040 A 
ATOM     21  C   UNL     1      -0.572  -0.355   6.635  0.00  0.00    +0.030 A 
ATOM     22  F   UNL     1       0.072   3.213   6.780  0.00  0.00    -0.205 F 
ENDBRANCH   5  16
BRANCH   2  23
ATOM     23  C   UNL     1       1.148  -4.932   3.165  0.00  0.00    -0.037 C 
BRANCH  23  24
ATOM     24  N   UNL     1       2.599  -5.067   2.980  0.00  0.00    +0.387 N 
ATOM     25  H   UNL     1       3.006  -4.155   2.837  0.00  0.00    -0.081 HD
BRANCH  24  26
ATOM     26  C   UNL     1       3.190  -5.684   4.175  0.00  0.00    -0.049 C 
BRANCH  26  27
ATOM     27  C   UNL     1       4.715  -5.687   4.046  0.00  0.00    +0.141 C 
BRANCH  27  28
ATOM     28  O   UNL     1       5.192  -4.341   4.015  0.00  0.00    -0.385 OA
ATOM     29  C   UNL     1       6.612  -4.230   3.896  0.00  0.00    +0.193 C 
ENDBRANCH  27  28
ENDBRANCH  26  27
ENDBRANCH  24  26
BRANCH  24  30
ATOM     30  C   UNL     1       2.866  -5.912   1.809  0.00  0.00    -0.042 C 
BRANCH  30  31
ATOM     31  C   UNL     1       2.160  -7.233   1.970  0.00  0.00    -0.060 A 
ATOM     32  C   UNL     1       2.800  -8.287   2.596  0.00  0.00    +0.002 A 
ATOM     33  C   UNL     1       2.155  -9.500   2.746  0.00  0.00    +0.004 A 
ATOM     34  C   UNL     1       0.868  -9.663   2.270  0.00  0.00    +0.045 A 
ATOM     35  C   UNL     1       0.223  -8.607   1.643  0.00  0.00    +0.117 A 
ATOM     36  C   UNL     1       0.871  -7.388   1.499  0.00  0.00    +0.047 A 
BRANCH  35  37
ATOM     37  O   UNL     1      -1.043  -8.764   1.174  0.00  0.00    -0.507 OA
ATOM     38  H   UNL     1      -1.730  -8.543   1.817  0.00  0.00    +0.292 HD
ENDBRANCH  35  37
ENDBRANCH  30  31
ENDBRANCH  24  30
ENDBRANCH  23  24
ENDBRANCH   2  23
TORSDOF 11
