REMARK  Name = ZINC65966462
REMARK  6 active torsions:
REMARK  status: ('A' for Active; 'I' for Inactive)
REMARK    1  A    between atoms: C_8  and  C_11
REMARK    2  A    between atoms: N_14  and  C_17
REMARK    3  A    between atoms: C_17  and  C_18
REMARK    4  A    between atoms: C_18  and  C_19
REMARK    5  A    between atoms: N_24  and  C_25
REMARK    6  A    between atoms: C_25  and  C_26
REMARK                            x       y       z     vdW  Elec       q    Type
REMARK                         _______ _______ _______ _____ _____    ______ ____
ROOT
ATOM      1  C   UNL     1       3.768  -3.404  -0.053  0.00  0.00    +0.032 C 
ATOM      2  C   UNL     1       4.147  -3.750  -1.496  0.00  0.00    -0.009 C 
ATOM      3  C   UNL     1       5.047  -4.987  -1.498  0.00  0.00    -0.078 C 
ATOM      4  N   UNL     1       6.263  -4.713  -0.723  0.00  0.00    +0.380 N 
ATOM      5  C   UNL     1       5.913  -4.450   0.678  0.00  0.00    -0.078 C 
ATOM      6  C   UNL     1       5.046  -3.192   0.763  0.00  0.00    -0.009 C 
ATOM      7  H   UNL     1       6.732  -3.906  -1.109  0.00  0.00    -0.082 HD
ENDROOT
BRANCH   1  15
ATOM      8  C   UNL     1      -0.017   1.362   0.009  0.00  0.00    +0.001 A 
ATOM      9  C   UNL     1       1.170   2.083   0.002  0.00  0.00    +0.002 A 
ATOM     10  C   UNL     1       2.386   1.436  -0.013  0.00  0.00    +0.026 A 
ATOM     11  C   UNL     1       2.428   0.046  -0.021  0.00  0.00    +0.047 A 
ATOM     12  C   UNL     1       1.223  -0.681  -0.013  0.00  0.00    -0.000 A 
ATOM     13  C   UNL     1       0.002  -0.004   0.002  0.00  0.00    +0.010 A 
ATOM     14  C   UNL     1       1.604  -2.095  -0.025  0.00  0.00    +0.031 A 
ATOM     15  C   UNL     1       2.945  -2.141  -0.038  0.00  0.00    +0.020 A 
ATOM     16  N   UNL     1       3.455  -0.871  -0.036  0.00  0.00    -0.358 N 
ATOM     17  H   UNL     1       4.399  -0.650  -0.044  0.00  0.00    +0.166 HD
ENDBRANCH   1  15
BRANCH   4  18
ATOM     18  C   UNL     1       7.159  -5.875  -0.793  0.00  0.00    -0.070 C 
BRANCH  18  19
ATOM     19  C   UNL     1       8.478  -5.545  -0.091  0.00  0.00    +0.078 C 
BRANCH  19  20
ATOM     20  C   UNL     1       9.397  -6.737  -0.163  0.00  0.00    +0.219 C 
ATOM     21  O   UNL     1       9.033  -7.751  -0.719  0.00  0.00    -0.275 OA
ATOM     22  N   UNL     1      10.624  -6.676   0.392  0.00  0.00    -0.240 N 
ATOM     23  C   UNL     1      11.446  -7.743   0.329  0.00  0.00    +0.306 C 
ATOM     24  O   UNL     1      11.081  -8.759  -0.229  0.00  0.00    -0.252 OA
ATOM     25  N   UNL     1      12.673  -7.682   0.884  0.00  0.00    -0.292 N 
ATOM     26  H   UNL     1      10.915  -5.865   0.838  0.00  0.00    +0.159 HD
ATOM     27  H   UNL     1      12.964  -6.871   1.329  0.00  0.00    +0.151 HD
BRANCH  25  28
ATOM     28  C   UNL     1      13.566  -8.841   0.815  0.00  0.00    +0.180 C 
BRANCH  28  29
ATOM     29  C   UNL     1      14.865  -8.516   1.505  0.00  0.00    +0.122 A 
ATOM     30  C   UNL     1      15.138  -8.721   2.806  0.00  0.00    +0.046 A 
ATOM     31  C   UNL     1      16.461  -8.275   3.023  0.00  0.00    +0.041 A 
ATOM     32  C   UNL     1      16.919  -7.823   1.842  0.00  0.00    +0.195 A 
ATOM     33  O   UNL     1      15.950  -7.977   0.925  0.00  0.00    -0.466 OA
ENDBRANCH  28  29
ENDBRANCH  25  28
ENDBRANCH  19  20
ENDBRANCH  18  19
ENDBRANCH   4  18
TORSDOF 6
