REMARK  Name = ZINC12893725
REMARK  5 active torsions:
REMARK  status: ('A' for Active; 'I' for Inactive)
REMARK    1  A    between atoms: C_4  and  N_7
REMARK    2  A    between atoms: C_8  and  C_10
REMARK    3  A    between atoms: N_21  and  C_23
REMARK    4  A    between atoms: C_23  and  C_24
REMARK    5  A    between atoms: C_24  and  C_25
REMARK                            x       y       z     vdW  Elec       q    Type
REMARK                         _______ _______ _______ _____ _____    ______ ____
ROOT
ATOM      1  C   UNL     1      -0.714  -3.410  -1.075  0.00  0.00    +0.123 C 
ATOM      2  C   UNL     1       0.654  -4.193  -1.147  0.00  0.00    +0.155 C 
ATOM      3  C   UNL     1       1.369  -3.489  -2.307  0.00  0.00    +0.004 C 
ATOM      4  C   UNL     1       1.711  -2.301  -1.829  0.00  0.00    +0.008 C 
ATOM      5  C   UNL     1       1.269  -2.299  -0.377  0.00  0.00    +0.116 C 
ATOM      6  C   UNL     1      -0.306  -2.165  -0.329  0.00  0.00    +0.127 C 
ATOM      7  C   UNL     1      -0.465  -0.769  -0.776  0.00  0.00    +0.223 C 
ATOM      8  O   UNL     1      -1.375  -0.324  -1.443  0.00  0.00    -0.275 OA
ATOM      9  N   UNL     1       0.614  -0.069  -0.293  0.00  0.00    -0.298 N 
ATOM     10  C   UNL     1       1.595  -1.018   0.322  0.00  0.00    +0.147 C 
ATOM     11  O   UNL     1       1.389  -3.643   0.025  0.00  0.00    -0.359 OA
ENDROOT
BRANCH   1  13
ATOM     12  N   UNL     1      -1.631  -4.055  -3.280  0.00  0.00    -0.285 N 
ATOM     13  C   UNL     1      -1.218  -3.073  -2.455  0.00  0.00    +0.224 C 
ATOM     14  O   UNL     1      -1.250  -1.918  -2.823  0.00  0.00    -0.275 OA
ATOM     15  H   UNL     1      -1.534  -4.984  -3.016  0.00  0.00    +0.155 HD
BRANCH  12  19
ATOM     16  C   UNL     1      -3.328  -3.106  -6.964  0.00  0.00    +0.000 A 
ATOM     17  C   UNL     1      -2.572  -4.256  -6.829  0.00  0.00    +0.002 A 
ATOM     18  C   UNL     1      -2.008  -4.574  -5.609  0.00  0.00    +0.023 A 
ATOM     19  C   UNL     1      -2.201  -3.736  -4.517  0.00  0.00    +0.033 A 
ATOM     20  C   UNL     1      -2.965  -2.585  -4.656  0.00  0.00    +0.023 A 
ATOM     21  C   UNL     1      -3.521  -2.270  -5.880  0.00  0.00    +0.002 A 
ENDBRANCH  12  19
ENDBRANCH   1  13
BRANCH   9  22
ATOM     22  C   UNL     1       0.782   1.384  -0.374  0.00  0.00    +0.112 C 
BRANCH  22  23
ATOM     23  C   UNL     1       0.177   2.038   0.870  0.00  0.00    +0.056 C 
BRANCH  23  24
ATOM     24  C   UNL     1       0.350   3.532   0.786  0.00  0.00    -0.021 A 
ATOM     25  C   UNL     1       1.342   4.253   1.334  0.00  0.00    +0.087 A 
ATOM     26  N   UNL     1       1.169   5.579   1.044  0.00  0.00    -0.360 N 
ATOM     27  H   UNL     1       1.760   6.293   1.329  0.00  0.00    +0.165 HD
ATOM     28  C   UNL     1       0.028   5.750   0.293  0.00  0.00    +0.047 A 
ATOM     29  C   UNL     1      -0.535   4.475   0.099  0.00  0.00    +0.003 A 
ATOM     30  C   UNL     1      -1.714   4.339  -0.636  0.00  0.00    +0.010 A 
ATOM     31  C   UNL     1      -2.316   5.447  -1.164  0.00  0.00    +0.001 A 
ATOM     32  C   UNL     1      -1.765   6.706  -0.975  0.00  0.00    +0.002 A 
ATOM     33  C   UNL     1      -0.602   6.863  -0.253  0.00  0.00    +0.026 A 
ENDBRANCH  23  24
ENDBRANCH  22  23
ENDBRANCH   9  22
TORSDOF 5
