REMARK  Name = ZINC23041933
REMARK  7 active torsions:
REMARK  status: ('A' for Active; 'I' for Inactive)
REMARK    1  A    between atoms: C_2  and  C_3
REMARK    2  A    between atoms: C_3  and  N_4
REMARK    3  A    between atoms: C_5  and  C_11
REMARK    4  A    between atoms: C_11  and  C_12
REMARK    5  A    between atoms: C_18  and  C_20
REMARK    6  A    between atoms: C_20  and  C_21
REMARK    7  A    between atoms: C_21  and  C_22
REMARK                            x       y       z     vdW  Elec       q    Type
REMARK                         _______ _______ _______ _____ _____    ______ ____
ROOT
ATOM      1  C   UNL     1       4.078   0.703  -1.453  0.00  0.00    +0.058 A 
ATOM      2  C   UNL     1       4.915   1.676  -1.888  0.00  0.00    +0.072 A 
ATOM      3  S   UNL     1       5.139   1.184  -3.591  0.00  0.00    -0.060 S 
ATOM      4  C   UNL     1       4.120  -0.221  -3.557  0.00  0.00    +0.165 A 
ATOM      5  N   UNL     1       3.697  -0.227  -2.307  0.00  0.00    -0.229 NA
ATOM      6  N   UNL     1       3.824  -1.111  -4.583  0.00  0.00    -0.265 N 
ATOM      7  C   UNL     1       4.362  -0.932  -5.805  0.00  0.00    +0.219 C 
ATOM      8  O   UNL     1       5.104   0.005  -6.011  0.00  0.00    -0.275 OA
ATOM      9  H   UNL     1       3.152  -1.961  -4.396  0.00  0.00    +0.157 HD
ENDROOT
BRANCH   1  10
ATOM     10  C   UNL     1       3.588   0.687  -0.028  0.00  0.00    +0.132 C 
BRANCH  10  12
ATOM     11  N   UNL     1       1.265   1.766  -0.001  0.00  0.00    -0.303 N 
ATOM     12  C   UNL     1       2.082   0.662  -0.014  0.00  0.00    +0.138 A 
ATOM     13  N   UNL     1       1.346  -0.403  -0.013  0.00  0.00    -0.158 NA
ATOM     14  N   UNL     1       0.002  -0.004   0.002  0.00  0.00    -0.254 N 
ATOM     15  H   UNL     1      -0.796  -0.761   0.006  0.00  0.00    +0.191 HD
ATOM     16  C   UNL     1      -0.016   1.345   0.009  0.00  0.00    +0.176 A 
ATOM     17  S   UNL     1      -1.409   2.340   0.022  0.00  0.00    -0.011 S 
BRANCH  11  18
ATOM     18  C   UNL     1       1.709   3.162   0.002  0.00  0.00    +0.152 C 
BRANCH  18  20
ATOM     19  C   UNL     1       3.017   4.142   1.816  0.00  0.00    +0.005 C 
ATOM     20  C   UNL     1       1.875   3.633   1.424  0.00  0.00    -0.013 C 
ENDBRANCH  18  20
ENDBRANCH  11  18
ENDBRANCH  10  12
ENDBRANCH   1  10
BRANCH   7  21
ATOM     21  C   UNL     1       4.042  -1.897  -6.918  0.00  0.00    +0.097 C 
BRANCH  21  22
ATOM     22  C   UNL     1       4.775  -1.470  -8.191  0.00  0.00    +0.022 C 
BRANCH  22  23
ATOM     23  C   UNL     1       4.450  -2.450  -9.320  0.00  0.00    +0.080 C 
ATOM     24  C   UNL     1       5.076  -1.949 -10.623  0.00  0.00    +0.049 C 
ATOM     25  C   UNL     1       5.008  -3.034 -11.667  0.00  0.00    -0.025 A 
ATOM     26  C   UNL     1       4.855  -2.701 -12.999  0.00  0.00    +0.005 A 
ATOM     27  C   UNL     1       4.833  -3.693 -13.962  0.00  0.00    +0.000 A 
ATOM     28  C   UNL     1       4.968  -5.019 -13.596  0.00  0.00    +0.002 A 
ATOM     29  C   UNL     1       5.113  -5.359 -12.265  0.00  0.00    +0.023 A 
ATOM     30  C   UNL     1       5.117  -4.367 -11.293  0.00  0.00    +0.037 A 
ATOM     31  N   UNL     1       5.254  -4.708  -9.945  0.00  0.00    -0.285 N 
ATOM     32  C   UNL     1       5.003  -3.808  -8.979  0.00  0.00    +0.221 C 
ATOM     33  O   UNL     1       5.223  -4.093  -7.820  0.00  0.00    -0.275 OA
ATOM     34  H   UNL     1       5.571  -5.723  -9.664  0.00  0.00    +0.155 HD
ENDBRANCH  22  23
ENDBRANCH  21  22
ENDBRANCH   7  21
TORSDOF 7
