REMARK  Name = ZINC05016324
REMARK  13 active torsions:
REMARK  status: ('A' for Active; 'I' for Inactive)
REMARK    1  A    between atoms: C_1  and  C_2
REMARK    2  A    between atoms: C_2  and  N_57
REMARK    3  A    between atoms: C_3  and  C_4
REMARK    4  A    between atoms: C_3  and  N_57
REMARK    5  A    between atoms: C_5  and  C_6
REMARK    6  A    between atoms: C_5  and  N_57
REMARK    7  A    between atoms: C_6  and  N_7
REMARK    8  A    between atoms: N_14  and  C_16
REMARK    9  A    between atoms: C_16  and  C_17
REMARK   10  A    between atoms: C_17  and  C_19
REMARK   11  A    between atoms: C_17  and  O_28
REMARK   12  A    between atoms: C_19  and  O_20
REMARK   13  A    between atoms: O_20  and  C_21
REMARK                            x       y       z     vdW  Elec       q    Type
REMARK                         _______ _______ _______ _____ _____    ______ ____
ROOT
ATOM      1  N   UNL     1       0.491  -2.514   0.463  0.00  0.00    -0.313 N 
ATOM      2  C   UNL     1       1.705  -2.457   1.145  0.00  0.00    +0.068 A 
ATOM      3  C   UNL     1       2.611  -3.432   1.538  0.00  0.00    +0.028 A 
ATOM      4  C   UNL     1       3.759  -3.072   2.218  0.00  0.00    +0.002 A 
ATOM      5  C   UNL     1       4.008  -1.743   2.510  0.00  0.00    +0.002 A 
ATOM      6  C   UNL     1       3.113  -0.765   2.123  0.00  0.00    +0.028 A 
ATOM      7  C   UNL     1       1.960  -1.116   1.435  0.00  0.00    +0.068 A 
ATOM      8  N   UNL     1       0.894  -0.371   0.934  0.00  0.00    -0.309 N 
ATOM      9  C   UNL     1       0.008  -1.235   0.341  0.00  0.00    +0.183 A 
ATOM     10  H   UNL     1      -1.744  -1.505  -0.666  0.00  0.00    +0.159 HD
ATOM     11  N   UNL     1      -1.115  -0.826  -0.238  0.00  0.00    -0.371 N 
ATOM     12  H   UNL     1      -1.350   0.173  -0.254  0.00  0.00    +0.159 HD
ENDROOT
BRANCH   1  13
ATOM     13  C   UNL     1      -0.157  -3.728  -0.038  0.00  0.00    +0.107 C 
BRANCH  13  14
ATOM     14  C   UNL     1       0.315  -4.006  -1.467  0.00  0.00    -0.057 C 
BRANCH  14  15
ATOM     15  N   UNL     1      -0.331  -5.245  -1.950  0.00  0.00    +0.380 N 
ATOM     16  H   UNL     1      -0.181  -5.990  -1.260  0.00  0.00    -0.082 HD
BRANCH  15  18
ATOM     17  C   UNL     1      -2.049  -3.906  -3.120  0.00  0.00    -0.017 C 
ATOM     18  C   UNL     1      -1.784  -5.026  -2.112  0.00  0.00    -0.082 C 
ENDBRANCH  15  18
BRANCH  15  19
ATOM     19  C   UNL     1       0.265  -5.656  -3.239  0.00  0.00    -0.082 C 
ATOM     20  C   UNL     1      -0.146  -7.100  -3.531  0.00  0.00    -0.017 C 
ENDBRANCH  15  19
ENDBRANCH  14  15
ENDBRANCH  13  14
ENDBRANCH   1  13
BRANCH   8  21
ATOM     21  C   UNL     1       0.747   1.084   1.020  0.00  0.00    +0.160 C 
BRANCH  21  22
ATOM     22  C   UNL     1      -0.002   1.446   2.304  0.00  0.00    +0.172 C 
BRANCH  22  23
ATOM     23  O   UNL     1       0.788   1.079   3.436  0.00  0.00    -0.387 OA
ATOM     24  H   UNL     1       1.649   1.518   3.474  0.00  0.00    +0.210 HD
ENDBRANCH  22  23
BRANCH  22  25
ATOM     25  C   UNL     1      -0.265   2.954   2.333  0.00  0.00    +0.262 C 
BRANCH  25  26
ATOM     26  O   UNL     1      -1.065   3.275   3.473  0.00  0.00    -0.489 OA
BRANCH  26  27
ATOM     27  C   UNL     1      -1.391   4.583   3.648  0.00  0.00    +0.121 A 
ATOM     28  C   UNL     1      -0.946   5.537   2.745  0.00  0.00    +0.047 A 
ATOM     29  C   UNL     1      -1.283   6.865   2.922  0.00  0.00    +0.023 A 
ATOM     30  C   UNL     1      -2.055   7.245   4.006  0.00  0.00    +0.041 A 
ATOM     31  C   UNL     1      -2.495   6.296   4.911  0.00  0.00    +0.023 A 
ATOM     32  C   UNL     1      -2.165   4.966   4.734  0.00  0.00    +0.047 A 
ATOM     33 CL   UNL     1      -2.472   8.916   4.229  0.00  0.00    -0.084 Cl
ENDBRANCH  26  27
ENDBRANCH  25  26
ENDBRANCH  22  25
ENDBRANCH  21  22
ENDBRANCH   8  21
TORSDOF 11
