REMARK  Name = ZINC17080358
REMARK  8 active torsions:
REMARK  status: ('A' for Active; 'I' for Inactive)
REMARK    1  A    between atoms: C_1  and  C_2
REMARK    2  A    between atoms: C_2  and  N_3
REMARK    3  A    between atoms: N_3  and  C_4
REMARK    4  A    between atoms: N_3  and  C_6
REMARK    5  A    between atoms: C_4  and  C_5
REMARK    6  A    between atoms: C_11  and  C_17
REMARK    7  A    between atoms: N_19  and  C_20
REMARK    8  A    between atoms: C_20  and  C_21
REMARK                            x       y       z     vdW  Elec       q    Type
REMARK                         _______ _______ _______ _____ _____    ______ ____
ROOT
ATOM      1  C   UNL     1       2.244   4.191   0.004  0.00  0.00    +0.033 A 
ATOM      2  C   UNL     1       3.485   3.552  -0.012  0.00  0.00    +0.024 A 
ATOM      3  C   UNL     1       3.559   2.192  -0.020  0.00  0.00    +0.013 A 
ATOM      4  C   UNL     1       2.383   1.424  -0.013  0.00  0.00    +0.018 A 
ATOM      5  C   UNL     1       2.460   0.009  -0.021  0.00  0.00    +0.029 A 
ATOM      6  C   UNL     1       1.287  -0.723  -0.014  0.00  0.00    +0.097 A 
ATOM      7  C   UNL     1       0.002  -0.004   0.002  0.00  0.00    +0.205 A 
ATOM      8  N   UNL     1      -1.120  -0.672   0.009  0.00  0.00    -0.369 N 
ATOM      9  O   UNL     1      -0.016   1.345   0.009  0.00  0.00    -0.439 OA
ATOM     10  C   UNL     1       1.129   2.063   0.002  0.00  0.00    +0.139 A 
ATOM     11  C   UNL     1       1.071   3.448   0.012  0.00  0.00    +0.070 A 
ATOM     12  H   UNL     1      -2.080  -0.136   0.021  0.00  0.00    +0.159 HD
ATOM     13  H   UNL     1      -1.105  -1.772   0.002  0.00  0.00    +0.159 HD
ENDROOT
BRANCH   6  14
ATOM     14  C   UNL     1       1.322  -2.193  -0.022  0.00  0.00    +0.249 C 
ATOM     15  O   UNL     1       0.284  -2.826  -0.015  0.00  0.00    -0.270 OA
ATOM     16  N   UNL     1       2.505  -2.838  -0.037  0.00  0.00    -0.307 N 
ATOM     17  H   UNL     1       3.445  -2.265  -0.043  0.00  0.00    +0.149 HD
BRANCH  16  18
ATOM     18  C   UNL     1       2.541  -4.303  -0.045  0.00  0.00    +0.140 C 
BRANCH  18  19
ATOM     19  C   UNL     1       3.973  -4.771  -0.061  0.00  0.00    -0.027 A 
ATOM     20  C   UNL     1       4.615  -4.984  -1.267  0.00  0.00    +0.009 A 
ATOM     21  C   UNL     1       5.931  -5.408  -1.287  0.00  0.00    +0.050 A 
ATOM     22  C   UNL     1       6.606  -5.632  -0.098  0.00  0.00    +0.166 A 
ATOM     23  C   UNL     1       5.957  -5.422   1.117  0.00  0.00    +0.167 A 
ATOM     24  C   UNL     1       4.640  -4.991   1.129  0.00  0.00    +0.054 A 
ATOM     25  O   UNL     1       6.825  -5.708   2.130  0.00  0.00    -0.453 OA
ATOM     26  C   UNL     1       7.877  -6.485   1.527  0.00  0.00    +0.466 C 
ATOM     27  O   UNL     1       7.880  -6.049   0.155  0.00  0.00    -0.453 OA
ENDBRANCH  18  19
ENDBRANCH  16  18
ENDBRANCH   6  14
BRANCH   1  28
ATOM     28  N   UNL     1       2.182   5.579   0.013  0.00  0.00    -0.330 N 
BRANCH  28  30
ATOM     29  C   UNL     1       3.832   6.651  -1.439  0.00  0.00    +0.024 C 
ATOM     30  C   UNL     1       3.416   6.368   0.006  0.00  0.00    +0.102 C 
ENDBRANCH  28  30
BRANCH  28  31
ATOM     31  C   UNL     1       0.881   6.254   0.031  0.00  0.00    +0.102 C 
ATOM     32  C   UNL     1       0.443   6.481   1.479  0.00  0.00    +0.024 C 
ENDBRANCH  28  31
ENDBRANCH   1  28
TORSDOF 6
