REMARK  Name = ZINC24898457
REMARK  6 active torsions:
REMARK  status: ('A' for Active; 'I' for Inactive)
REMARK    1  A    between atoms: C_3  and  S_12
REMARK    2  A    between atoms: C_6  and  C_7
REMARK    3  A    between atoms: S_12  and  C_15
REMARK    4  A    between atoms: N_18  and  C_21
REMARK    5  A    between atoms: C_22  and  N_27
REMARK    6  A    between atoms: N_27  and  C_28
REMARK                            x       y       z     vdW  Elec       q    Type
REMARK                         _______ _______ _______ _____ _____    ______ ____
ROOT
ATOM      1  C   UNL     1       8.634  -0.319   1.671  0.00  0.00    +0.139 C 
ATOM      2  C   UNL     1       8.189   0.960   2.387  0.00  0.00    +0.044 C 
ATOM      3  C   UNL     1       8.647   0.906   3.847  0.00  0.00    +0.087 C 
ATOM      4  N   UNL     1      10.109   0.779   3.898  0.00  0.00    -0.389 NA
ATOM      5  C   UNL     1      10.556  -0.464   3.258  0.00  0.00    +0.087 C 
ATOM      6  C   UNL     1      10.156  -0.452   1.781  0.00  0.00    +0.044 C 
ATOM      7  H   UNL     1      10.574   1.642   3.398  0.00  0.00    +0.127 HD
ENDROOT
BRANCH   4   8
ATOM      8  C   UNL     1      10.565   0.859   5.190  0.00  0.00    +0.089 C 
ATOM      9  C   UNL     1      10.449   1.796   6.226  0.00  0.00    +0.097 C 
ATOM     10  C   UNL     1      11.253   0.989   7.156  0.00  0.00    +0.189 C 
ATOM     11  O   UNL     1      11.641   1.090   8.305  0.00  0.00    -0.502 OA
ATOM     12  C   UNL     1      11.381  -0.000   6.059  0.00  0.00    +0.243 C 
ATOM     13  O   UNL     1      11.934  -1.077   5.932  0.00  0.00    -0.282 OA
ATOM     14  H   UNL     1      11.381   1.980   8.897  0.00  0.00    +0.292 HD
BRANCH   9  15
ATOM     15  N   UNL     1       9.822   3.011   6.332  0.00  0.00    -0.337 N 
ATOM     16  H   UNL     1       9.232   3.554   5.579  0.00  0.00    +0.147 HD
BRANCH  15  17
ATOM     17  C   UNL     1      10.019   3.591   7.668  0.00  0.00    +0.071 C 
ATOM     18  C   UNL     1       8.805   4.225   8.349  0.00  0.00    +0.024 C 
ATOM     19  C   UNL     1       9.924   5.112   7.799  0.00  0.00    +0.024 C 
ENDBRANCH  15  17
ENDBRANCH   9  15
ENDBRANCH   4   8
BRANCH   1  20
ATOM     20  S   UNL     1       8.158  -0.231  -0.077  0.00  0.00    -0.000 S 
ATOM     21  O   UNL     1       8.301  -1.506  -0.688  0.00  0.00    -0.169 OA
ATOM     22  O   UNL     1       8.718   0.927  -0.679  0.00  0.00    -0.169 OA
BRANCH  20  25
ATOM     23  C   UNL     1       4.178  -0.771  -0.037  0.00  0.00    +0.010 A 
ATOM     24  C   UNL     1       5.540  -0.999  -0.056  0.00  0.00    +0.027 A 
ATOM     25  C   UNL     1       6.421   0.067  -0.059  0.00  0.00    +0.089 A 
ATOM     26  C   UNL     1       5.945   1.365  -0.048  0.00  0.00    +0.027 A 
ATOM     27  C   UNL     1       4.586   1.605  -0.034  0.00  0.00    +0.010 A 
ATOM     28  C   UNL     1       3.693   0.535  -0.031  0.00  0.00    -0.017 A 
BRANCH  28  29
ATOM     29  C   UNL     1       2.231   0.786  -0.015  0.00  0.00    -0.011 A 
ATOM     30  C   UNL     1       1.327  -0.273  -0.012  0.00  0.00    +0.016 A 
ATOM     31  C   UNL     1       0.002  -0.004   0.002  0.00  0.00    +0.046 A 
ATOM     32  S   UNL     1      -0.022   1.780   0.012  0.00  0.00    -0.104 S 
ATOM     33  C   UNL     1       1.740   2.062  -0.004  0.00  0.00    +0.053 A 
ENDBRANCH  28  29
ENDBRANCH  20  25
ENDBRANCH   1  20
TORSDOF 6
