REMARK  Name = ZINC32827901
REMARK  8 active torsions:
REMARK  status: ('A' for Active; 'I' for Inactive)
REMARK    1  A    between atoms: C_1  and  C_2
REMARK    2  A    between atoms: C_5  and  N_8
REMARK    3  A    between atoms: C_9  and  C_33
REMARK    4  A    between atoms: C_10  and  C_13
REMARK    5  A    between atoms: C_13  and  C_15
REMARK    6  A    between atoms: C_13  and  N_16
REMARK    7  A    between atoms: C_17  and  C_19
REMARK    8  A    between atoms: C_19  and  N_20
REMARK                            x       y       z     vdW  Elec       q    Type
REMARK                         _______ _______ _______ _____ _____    ______ ____
ROOT
ATOM      1  N   UNL     1       0.581  -1.713   1.609  0.00  0.00    -0.307 N 
ATOM      2  C   UNL     1       0.756  -0.394   1.394  0.00  0.00    +0.233 C 
ATOM      3  O   UNL     1       0.761   0.378   2.329  0.00  0.00    -0.274 OA
ATOM      4  H   UNL     1       0.576  -2.413   0.760  0.00  0.00    +0.149 HD
ENDROOT
BRANCH   1   5
ATOM      5  C   UNL     1       0.396  -2.214   2.973  0.00  0.00    +0.103 C 
ATOM      6  C   UNL     1      -1.080  -2.103   3.361  0.00  0.00    +0.033 C 
BRANCH   5   9
ATOM      7  N   UNL     1       1.485  -5.597   3.798  0.00  0.00    -0.237 N 
ATOM      8  C   UNL     1       1.160  -4.336   4.162  0.00  0.00    +0.047 A 
ATOM      9  C   UNL     1       0.826  -3.657   3.041  0.00  0.00    +0.013 A 
ATOM     10  C   UNL     1       0.946  -4.532   1.955  0.00  0.00    +0.140 A 
ATOM     11  N   UNL     1       1.345  -5.693   2.408  0.00  0.00    -0.174 NA
ATOM     12  C   UNL     1       1.168  -3.786   5.565  0.00  0.00    +0.066 C 
BRANCH   7  17
ATOM     13  C   UNL     1       3.126  -9.763   7.286  0.00  0.00    +0.044 C 
ATOM     14  C   UNL     1       2.690  -8.657   6.360  0.00  0.00    -0.050 A 
ATOM     15  C   UNL     1       1.648  -7.824   6.723  0.00  0.00    +0.005 A 
ATOM     16  C   UNL     1       1.246  -6.809   5.876  0.00  0.00    +0.028 A 
ATOM     17  C   UNL     1       1.890  -6.626   4.660  0.00  0.00    +0.066 A 
ATOM     18  C   UNL     1       2.933  -7.468   4.296  0.00  0.00    +0.028 A 
ATOM     19  C   UNL     1       3.334  -8.477   5.149  0.00  0.00    +0.005 A 
ENDBRANCH   7  17
ENDBRANCH   5   9
ENDBRANCH   1   5
BRANCH   2  20
ATOM     20  C   UNL     1       0.946   0.122  -0.009  0.00  0.00    +0.222 C 
BRANCH  20  21
ATOM     21  N   UNL     1       1.115   1.577   0.024  0.00  0.00    -0.285 N 
ATOM     22  C   UNL     1       2.386   2.118   0.149  0.00  0.00    +0.059 A 
ATOM     23  C   UNL     1       3.512   1.314   0.246  0.00  0.00    +0.027 A 
ATOM     24  C   UNL     1       4.759   1.893   0.370  0.00  0.00    +0.002 A 
ATOM     25  C   UNL     1       4.898   3.273   0.398  0.00  0.00    +0.001 A 
ATOM     26  C   UNL     1       3.790   4.088   0.303  0.00  0.00    +0.015 A 
ATOM     27  C   UNL     1       2.526   3.517   0.178  0.00  0.00    +0.063 A 
ATOM     28  C   UNL     1       1.309   4.341   0.074  0.00  0.00    +0.262 A 
ATOM     29  O   UNL     1       1.375   5.555   0.094  0.00  0.00    -0.267 OA
ATOM     30  N   UNL     1       0.119   3.714  -0.045  0.00  0.00    -0.274 N 
ATOM     31  H   UNL     1      -0.808   4.301  -0.121  0.00  0.00    +0.173 HD
ATOM     32  C   UNL     1       0.037   2.374  -0.073  0.00  0.00    +0.330 A 
ATOM     33  O   UNL     1      -1.059   1.860  -0.186  0.00  0.00    -0.246 OA
ENDBRANCH  20  21
ENDBRANCH   2  20
TORSDOF 5
