REMARK  Name = ZINC00781368
REMARK  13 active torsions:
REMARK  status: ('A' for Active; 'I' for Inactive)
REMARK    1  A    between atoms: C_1  and  C_2
REMARK    2  A    between atoms: C_3  and  C_34
REMARK    3  A    between atoms: C_4  and  C_25
REMARK    4  A    between atoms: C_10  and  C_15
REMARK    5  A    between atoms: C_18  and  O_23
REMARK    6  A    between atoms: C_19  and  O_21
REMARK    7  A    between atoms: O_21  and  C_22
REMARK    8  A    between atoms: O_23  and  C_24
REMARK    9  A    between atoms: C_28  and  O_33
REMARK   10  A    between atoms: C_29  and  O_31
REMARK   11  A    between atoms: O_31  and  C_32
REMARK   12  A    between atoms: C_34  and  O_36
REMARK   13  A    between atoms: O_36  and  C_37
REMARK                            x       y       z     vdW  Elec       q    Type
REMARK                         _______ _______ _______ _____ _____    ______ ____
ROOT
ATOM      1  C   UNL     1      -2.396   1.157   0.288  0.00  0.00    +0.061 C 
ATOM      2  C   UNL     1      -1.158   2.003   0.143  0.00  0.00    +0.016 C 
ATOM      3  C   UNL     1       0.054   1.421   0.152  0.00  0.00    +0.065 C 
ATOM      4  C   UNL     1       1.308   2.231   0.011  0.00  0.00    +0.092 C 
ATOM      5  C   UNL     1       1.008   3.599  -0.548  0.00  0.00    +0.024 C 
ATOM      6  C   UNL     1      -0.246   4.096  -0.518  0.00  0.00    +0.016 C 
ATOM      7  N   UNL     1      -1.273   3.358   0.007  0.00  0.00    -0.321 N 
ATOM      8  C   UNL     1      -0.552   5.469  -1.063  0.00  0.00    +0.059 C 
ATOM      9  C   UNL     1       0.406   5.791  -2.212  0.00  0.00    +0.032 C 
ATOM     10  C   UNL     1       1.843   5.706  -1.687  0.00  0.00    +0.088 C 
ATOM     11  C   UNL     1       2.069   4.340  -1.099  0.00  0.00    +0.162 C 
ATOM     12  O   UNL     1       3.188   3.867  -1.101  0.00  0.00    -0.292 OA
ATOM     13  H   UNL     1      -2.198   3.865   0.321  0.00  0.00    +0.152 HD
ENDROOT
BRANCH   9  14
ATOM     14  C   UNL     1       0.132   7.181  -2.726  0.00  0.00    -0.040 A 
ATOM     15  C   UNL     1       0.254   8.266  -1.878  0.00  0.00    +0.008 A 
ATOM     16  C   UNL     1       0.003   9.543  -2.345  0.00  0.00    +0.049 A 
ATOM     17  C   UNL     1      -0.371   9.737  -3.665  0.00  0.00    +0.161 A 
ATOM     18  C   UNL     1      -0.493   8.645  -4.518  0.00  0.00    +0.162 A 
ATOM     19  C   UNL     1      -0.236   7.368  -4.046  0.00  0.00    +0.053 A 
BRANCH  18  20
ATOM     20  O   UNL     1      -0.860   8.831  -5.815  0.00  0.00    -0.491 OA
ATOM     21  C   UNL     1      -0.965   7.664  -6.633  0.00  0.00    +0.277 C 
ENDBRANCH  18  20
BRANCH  17  22
ATOM     22  O   UNL     1      -0.618  10.993  -4.125  0.00  0.00    -0.491 OA
ATOM     23  C   UNL     1      -0.473  12.066  -3.193  0.00  0.00    +0.277 C 
ENDBRANCH  17  22
ENDBRANCH   9  14
BRANCH   4  24
ATOM     24  C   UNL     1       1.956   2.381   1.363  0.00  0.00    -0.032 A 
ATOM     25  C   UNL     1       1.272   3.001   2.391  0.00  0.00    +0.008 A 
ATOM     26  C   UNL     1       1.859   3.136   3.635  0.00  0.00    +0.049 A 
ATOM     27  C   UNL     1       3.142   2.659   3.850  0.00  0.00    +0.158 A 
ATOM     28  C   UNL     1       3.834   2.039   2.814  0.00  0.00    +0.162 A 
ATOM     29  C   UNL     1       3.236   1.902   1.571  0.00  0.00    +0.054 A 
BRANCH  28  30
ATOM     30  O   UNL     1       5.093   1.569   3.020  0.00  0.00    -0.491 OA
ATOM     31  C   UNL     1       5.743   0.945   1.911  0.00  0.00    +0.277 C 
ENDBRANCH  28  30
BRANCH  27  32
ATOM     32  O   UNL     1       3.724   2.796   5.072  0.00  0.00    -0.503 OA
ATOM     33  H   UNL     1       4.742   2.416   5.242  0.00  0.00    +0.292 HD
ENDBRANCH  27  32
ENDBRANCH   4  24
BRANCH   3  34
ATOM     34  C   UNL     1       0.147   0.016   0.293  0.00  0.00    +0.337 C 
ATOM     35  O   UNL     1       0.429  -0.674  -0.669  0.00  0.00    -0.245 OA
BRANCH  34  36
ATOM     36  O   UNL     1      -0.077  -0.558   1.493  0.00  0.00    -0.465 OA
ATOM     37  C   UNL     1       0.034  -1.981   1.562  0.00  0.00    +0.280 C 
ENDBRANCH  34  36
ENDBRANCH   3  34
TORSDOF 8
