REMARK  Name = ZINC41635240
REMARK  5 active torsions:
REMARK  status: ('A' for Active; 'I' for Inactive)
REMARK    1  A    between atoms: C_1  and  C_2
REMARK    2  A    between atoms: C_7  and  O_26
REMARK    3  A    between atoms: C_8  and  C_10
REMARK    4  A    between atoms: C_10  and  C_12
REMARK    5  A    between atoms: C_10  and  N_20
REMARK                            x       y       z     vdW  Elec       q    Type
REMARK                         _______ _______ _______ _____ _____    ______ ____
ROOT
ATOM      1  C   UNL     1       0.085  -5.916   0.773  0.00  0.00    +0.131 C 
ENDROOT
BRANCH   1   9
ATOM      2  C   UNL     1       0.057   1.538   0.523  0.00  0.00    +0.090 C 
ATOM      3  C   UNL     1       0.062   0.035   0.411  0.00  0.00    +0.150 A 
ATOM      4  N   UNL     1       0.065  -0.652  -0.729  0.00  0.00    -0.205 NA
ATOM      5  C   UNL     1       0.070  -1.930  -0.462  0.00  0.00    +0.199 A 
ATOM      6  N   UNL     1       0.071  -2.114   0.887  0.00  0.00    -0.173 N 
ATOM      7  N   UNL     1       0.071  -0.797   1.416  0.00  0.00    -0.147 NA
ATOM      8  C   UNL     1       0.075  -3.410   1.345  0.00  0.00    +0.228 A 
ATOM      9  C   UNL     1       0.079  -4.437   0.487  0.00  0.00    +0.076 A 
ATOM     10  S   UNL     1       0.076  -3.593  -1.088  0.00  0.00    -0.047 S 
BRANCH   8  11
ATOM     11  O   UNL     1       0.076  -3.651   2.684  0.00  0.00    -0.492 OA
ATOM     12  H   UNL     1       0.073  -2.852   3.228  0.00  0.00    +0.294 HD
ENDBRANCH   8  11
ENDBRANCH   1   9
BRANCH   1  13
ATOM     13  C   UNL     1       1.331  -6.535   0.193  0.00  0.00    -0.007 A 
ATOM     14  C   UNL     1       1.304  -7.079  -1.078  0.00  0.00    +0.008 A 
ATOM     15  C   UNL     1       2.446  -7.647  -1.611  0.00  0.00    +0.020 A 
ATOM     16  C   UNL     1       3.617  -7.670  -0.873  0.00  0.00    +0.042 A 
ATOM     17  C   UNL     1       3.644  -7.125   0.398  0.00  0.00    +0.040 A 
ATOM     18  C   UNL     1       2.502  -6.553   0.929  0.00  0.00    +0.047 A 
ATOM     19 CL   UNL     1       2.537  -5.863   2.522  0.00  0.00    -0.083 Cl
ATOM     20 CL   UNL     1       5.051  -8.383  -1.543  0.00  0.00    -0.083 Cl
ENDBRANCH   1  13
BRANCH   1  21
ATOM     21  N   UNL     1      -1.099  -6.538   0.166  0.00  0.00    -0.287 NA
ATOM     22  C   UNL     1      -2.322  -5.805   0.525  0.00  0.00    +0.113 C 
ATOM     23  C   UNL     1      -3.521  -6.449  -0.175  0.00  0.00    +0.175 C 
ATOM     24  O   UNL     1      -3.592  -7.831   0.186  0.00  0.00    -0.377 OA
ATOM     25  C   UNL     1      -2.418  -8.575  -0.150  0.00  0.00    +0.175 C 
ATOM     26  C   UNL     1      -1.208  -7.952   0.550  0.00  0.00    +0.113 C 
ENDBRANCH   1  21
TORSDOF 4
