REMARK  Name = ZINC11125956
REMARK  6 active torsions:
REMARK  status: ('A' for Active; 'I' for Inactive)
REMARK    1  A    between atoms: C_1  and  C_2
REMARK    2  A    between atoms: C_5  and  S_8
REMARK    3  A    between atoms: S_8  and  N_11
REMARK    4  A    between atoms: C_14  and  C_17
REMARK    5  A    between atoms: C_25  and  S_29
REMARK    6  A    between atoms: S_29  and  N_32
REMARK                            x       y       z     vdW  Elec       q    Type
REMARK                         _______ _______ _______ _____ _____    ______ ____
ROOT
ATOM      1  C   UNL     1      -7.814  -4.263  -0.592  0.00  0.00    +0.222 C 
ATOM      2  O   UNL     1      -7.545  -4.019   0.565  0.00  0.00    -0.275 OA
ATOM      3  N   UNL     1      -7.158  -3.629  -1.584  0.00  0.00    -0.264 N 
ATOM      4  C   UNL     1      -6.177  -2.699  -1.282  0.00  0.00    +0.165 A 
ATOM      5  N   UNL     1      -5.749  -2.306  -0.105  0.00  0.00    -0.225 NA
ATOM      6  C   UNL     1      -4.775  -1.383   0.042  0.00  0.00    +0.080 A 
ATOM      7  C   UNL     1      -4.227  -0.875   1.243  0.00  0.00    +0.031 A 
ATOM      8  C   UNL     1      -3.235   0.070   1.215  0.00  0.00    +0.030 A 
ATOM      9  C   UNL     1      -2.733   0.560   0.018  0.00  0.00    +0.106 A 
ATOM     10  C   UNL     1      -3.248   0.089  -1.175  0.00  0.00    +0.045 A 
ATOM     11  C   UNL     1      -4.239  -0.861  -1.158  0.00  0.00    +0.043 A 
ATOM     12  S   UNL     1      -5.170  -1.730  -2.397  0.00  0.00    -0.052 S 
ATOM     13  H   UNL     1      -7.374  -3.824  -2.510  0.00  0.00    +0.157 HD
ENDROOT
BRANCH   1  17
ATOM     14  N   UNL     1     -11.521  -6.290  -0.856  0.00  0.00    -0.177 NA
ATOM     15  C   UNL     1     -10.524  -6.894   0.039  0.00  0.00    +0.110 C 
ATOM     16  C   UNL     1      -9.464  -5.841   0.377  0.00  0.00    +0.030 C 
ATOM     17  C   UNL     1      -8.882  -5.274  -0.920  0.00  0.00    +0.078 C 
ATOM     18  C   UNL     1      -9.993  -4.599  -1.727  0.00  0.00    +0.030 C 
ATOM     19  C   UNL     1     -11.060  -5.637  -2.089  0.00  0.00    +0.110 C 
BRANCH  14  20
ATOM     20  S   UNL     1     -13.133  -6.346  -0.483  0.00  0.00    +0.061 S 
ATOM     21  O   UNL     1     -13.839  -6.218  -1.710  0.00  0.00    -0.153 OA
ATOM     22  O   UNL     1     -13.311  -7.456   0.386  0.00  0.00    -0.153 OA
BRANCH  20  27
ATOM     23  C   UNL     1     -14.389  -1.408   2.749  0.00  0.00    +0.044 C 
ATOM     24  C   UNL     1     -14.076  -2.642   1.942  0.00  0.00    -0.050 A 
ATOM     25  C   UNL     1     -14.185  -2.612   0.564  0.00  0.00    +0.005 A 
ATOM     26  C   UNL     1     -13.897  -3.743  -0.176  0.00  0.00    +0.029 A 
ATOM     27  C   UNL     1     -13.500  -4.904   0.461  0.00  0.00    +0.105 A 
ATOM     28  C   UNL     1     -13.396  -4.935   1.839  0.00  0.00    +0.029 A 
ATOM     29  C   UNL     1     -13.679  -3.802   2.579  0.00  0.00    +0.005 A 
ENDBRANCH  20  27
ENDBRANCH  14  20
ENDBRANCH   1  17
BRANCH   9  30
ATOM     30  S   UNL     1      -1.456   1.774   0.019  0.00  0.00    +0.056 S 
ATOM     31  O   UNL     1      -1.536   2.446   1.268  0.00  0.00    -0.153 OA
ATOM     32  O   UNL     1      -1.548   2.460  -1.223  0.00  0.00    -0.153 OA
BRANCH  30  33
ATOM     33  N   UNL     1      -0.011   0.966   0.007  0.00  0.00    -0.204 NA
ATOM     34  H   UNL     1       0.002  -0.004   0.002  0.00  0.00    +0.144 HD
ATOM     35  H   UNL     1       0.822   1.462   0.002  0.00  0.00    +0.144 HD
ENDBRANCH  30  33
ENDBRANCH   9  30
TORSDOF 5
