REMARK  Name = ZINC04916366
REMARK  5 active torsions:
REMARK  status: ('A' for Active; 'I' for Inactive)
REMARK    1  A    between atoms: C_1  and  O_2
REMARK    2  A    between atoms: O_2  and  C_3
REMARK    3  A    between atoms: C_8  and  C_9
REMARK    4  A    between atoms: C_12  and  C_15
REMARK    5  A    between atoms: C_20  and  O_21
REMARK                            x       y       z     vdW  Elec       q    Type
REMARK                         _______ _______ _______ _____ _____    ______ ____
ROOT
ATOM      1  C   UNL     1       0.018  -2.829  -0.013  0.00  0.00    +0.128 C 
ATOM      2  C   UNL     1       0.528  -3.066   1.423  0.00  0.00    +0.086 C 
ATOM      3  C   UNL     1       0.507  -4.570   1.573  0.00  0.00    +0.072 C 
ATOM      4  N   UNL     1       0.082  -5.106   0.481  0.00  0.00    -0.190 NA
ATOM      5  N   UNL     1      -0.234  -4.186  -0.522  0.00  0.00    -0.261 N 
ATOM      6  H   UNL     1      -0.565  -4.405  -1.407  0.00  0.00    +0.169 HD
ENDROOT
BRANCH   3   7
ATOM      7  C   UNL     1       0.909  -5.310   2.783  0.00  0.00    +0.040 A 
ATOM      8  C   UNL     1       1.350  -4.619   3.914  0.00  0.00    +0.028 A 
ATOM      9  C   UNL     1       1.725  -5.318   5.044  0.00  0.00    +0.019 A 
ATOM     10  C   UNL     1       1.666  -6.701   5.060  0.00  0.00    +0.019 A 
ATOM     11  C   UNL     1       1.232  -7.396   3.946  0.00  0.00    +0.047 A 
ATOM     12  C   UNL     1       0.847  -6.709   2.807  0.00  0.00    +0.126 A 
ATOM     13 BR   UNL     1       2.321  -4.382   6.575  0.00  0.00    -0.050 Br
BRANCH  12  14
ATOM     14  O   UNL     1       0.415  -7.391   1.714  0.00  0.00    -0.506 OA
ATOM     15  H   UNL     1       1.119  -7.630   1.096  0.00  0.00    +0.292 HD
ENDBRANCH  12  14
ENDBRANCH   3   7
BRANCH   1  21
ATOM     16  C   UNL     1      -1.200  -0.637   0.010  0.00  0.00    +0.125 A 
ATOM     17  C   UNL     1      -2.375   0.101   0.019  0.00  0.00    +0.046 A 
ATOM     18  C   UNL     1      -3.596  -0.545   0.027  0.00  0.00    +0.004 A 
ATOM     19  C   UNL     1      -3.648  -1.927   0.026  0.00  0.00    +0.001 A 
ATOM     20  C   UNL     1      -2.479  -2.665   0.017  0.00  0.00    +0.009 A 
ATOM     21  C   UNL     1      -1.255  -2.023   0.003  0.00  0.00    +0.016 A 
BRANCH  16  23
ATOM     22  C   UNL     1      -0.017   1.425   0.010  0.00  0.00    +0.277 C 
ATOM     23  O   UNL     1       0.002  -0.004   0.002  0.00  0.00    -0.495 OA
ENDBRANCH  16  23
ENDBRANCH   1  21
TORSDOF 4
