REMARK  Name = ZINC21222588
REMARK  12 active torsions:
REMARK  status: ('A' for Active; 'I' for Inactive)
REMARK    1  A    between atoms: C_1  and  C_2
REMARK    2  A    between atoms: C_2  and  C_3
REMARK    3  A    between atoms: C_3  and  O_4
REMARK    4  A    between atoms: O_4  and  C_5
REMARK    5  A    between atoms: C_8  and  C_11
REMARK    6  A    between atoms: C_16  and  C_26
REMARK    7  A    between atoms: C_30  and  O_36
REMARK    8  A    between atoms: C_31  and  O_32
REMARK    9  A    between atoms: O_32  and  C_33
REMARK   10  A    between atoms: C_33  and  C_34
REMARK   11  A    between atoms: C_33  and  C_35
REMARK   12  A    between atoms: O_36  and  C_37
REMARK                            x       y       z     vdW  Elec       q    Type
REMARK                         _______ _______ _______ _____ _____    ______ ____
ROOT
ATOM      1  C   UNL     1      -2.484   1.153   0.708  0.00  0.00    +0.032 C 
ATOM      2  C   UNL     1      -1.445   1.994  -0.031  0.00  0.00    +0.059 C 
ATOM      3  C   UNL     1      -0.098   1.292  -0.008  0.00  0.00    +0.017 C 
ATOM      4  C   UNL     1      -0.029  -0.051  -0.019  0.00  0.00    +0.037 C 
ATOM      5  C   UNL     1       1.236  -0.873  -0.007  0.00  0.00    +0.140 C 
ATOM      6  N   UNL     1       2.447  -0.117  -0.246  0.00  0.00    -0.331 N 
ATOM      7  C   UNL     1       2.875   0.857   0.655  0.00  0.00    +0.049 A 
ATOM      8  C   UNL     1       4.059   0.720   1.362  0.00  0.00    +0.025 A 
ATOM      9  C   UNL     1       4.418   1.691   2.281  0.00  0.00    +0.002 A 
ATOM     10  C   UNL     1       3.603   2.787   2.497  0.00  0.00    +0.002 A 
ATOM     11  C   UNL     1       2.428   2.936   1.778  0.00  0.00    +0.025 A 
ATOM     12  C   UNL     1       2.079   1.977   0.844  0.00  0.00    +0.052 A 
ATOM     13  N   UNL     1       0.977   2.120   0.009  0.00  0.00    -0.316 N 
ATOM     14  C   UNL     1      -1.214  -0.824  -0.030  0.00  0.00    +0.163 C 
ATOM     15  O   UNL     1      -1.123  -2.035  -0.064  0.00  0.00    -0.292 OA
ATOM     16  C   UNL     1      -2.579  -0.202  -0.003  0.00  0.00    +0.088 C 
ATOM     17  H   UNL     1       3.045  -0.307  -1.150  0.00  0.00    +0.147 HD
ATOM     18  H   UNL     1       1.018   2.982  -0.674  0.00  0.00    +0.152 HD
ENDROOT
BRANCH   1  22
ATOM     19  C   UNL     1      -6.281   3.112   0.602  0.00  0.00    +0.121 A 
ATOM     20  C   UNL     1      -5.691   2.805   1.820  0.00  0.00    +0.046 A 
ATOM     21  C   UNL     1      -4.463   2.172   1.851  0.00  0.00    +0.007 A 
ATOM     22  C   UNL     1      -3.823   1.844   0.671  0.00  0.00    -0.043 A 
ATOM     23  C   UNL     1      -4.406   2.154  -0.544  0.00  0.00    +0.007 A 
ATOM     24  C   UNL     1      -5.636   2.782  -0.581  0.00  0.00    +0.046 A 
BRANCH  19  25
ATOM     25  O   UNL     1      -7.488   3.735   0.569  0.00  0.00    -0.492 OA
BRANCH  25  26
ATOM     26  C   UNL     1      -8.035   4.020  -0.721  0.00  0.00    +0.229 C 
BRANCH  26  28
ATOM     27  C   UNL     1      -9.973   5.022  -1.938  0.00  0.00    +0.007 C 
ATOM     28  C   UNL     1      -9.388   4.716  -0.558  0.00  0.00    +0.038 C 
ENDBRANCH  26  28
ENDBRANCH  25  26
ENDBRANCH  19  25
ENDBRANCH   1  22
BRANCH   5  29
ATOM     29  C   UNL     1       1.353  -1.550   1.335  0.00  0.00    +0.023 A 
ATOM     30  C   UNL     1       1.573  -0.796   2.473  0.00  0.00    +0.009 A 
ATOM     31  C   UNL     1       1.681  -1.413   3.704  0.00  0.00    +0.004 A 
ATOM     32  C   UNL     1       1.569  -2.788   3.804  0.00  0.00    +0.049 A 
ATOM     33  C   UNL     1       1.348  -3.549   2.668  0.00  0.00    +0.162 A 
ATOM     34  C   UNL     1       1.235  -2.927   1.428  0.00  0.00    +0.168 A 
BRANCH  33  35
ATOM     35  O   UNL     1       1.237  -4.901   2.765  0.00  0.00    -0.491 OA
ATOM     36  C   UNL     1       1.359  -5.471   4.070  0.00  0.00    +0.277 C 
ENDBRANCH  33  35
BRANCH  34  37
ATOM     37  O   UNL     1       1.014  -3.669   0.311  0.00  0.00    -0.485 OA
BRANCH  37  38
ATOM     38  C   UNL     1       2.164  -4.143  -0.392  0.00  0.00    +0.168 C 
ATOM     39  C   UNL     1       2.569  -5.513   0.157  0.00  0.00    +0.051 C 
ATOM     40  C   UNL     1       1.838  -4.266  -1.881  0.00  0.00    +0.051 C 
ENDBRANCH  37  38
ENDBRANCH  34  37
ENDBRANCH   5  29
TORSDOF 8
