REMARK  Name = ZINC39630839
REMARK  13 active torsions:
REMARK  status: ('A' for Active; 'I' for Inactive)
REMARK    1  A    between atoms: C_1  and  C_2
REMARK    2  A    between atoms: C_2  and  C_3
REMARK    3  A    between atoms: C_2  and  C_4
REMARK    4  A    between atoms: C_2  and  C_25
REMARK    5  A    between atoms: C_4  and  N_5
REMARK    6  A    between atoms: C_6  and  C_8
REMARK    7  A    between atoms: C_19  and  C_21
REMARK    8  A    between atoms: C_21  and  C_22
REMARK    9  A    between atoms: C_22  and  S_23
REMARK   10  A    between atoms: S_23  and  C_24
REMARK   11  A    between atoms: C_25  and  N_26
REMARK   12  A    between atoms: N_26  and  C_27
REMARK   13  A    between atoms: N_26  and  C_28
REMARK                            x       y       z     vdW  Elec       q    Type
REMARK                         _______ _______ _______ _____ _____    ______ ____
ROOT
ATOM      1  C   UNL     1      -5.553   0.270   2.136  0.00  0.00    +0.100 C 
ATOM      2  C   UNL     1      -5.249  -0.193   3.579  0.00  0.00    +0.121 C 
ATOM      3  N   UNL     1      -6.579  -0.467   4.172  0.00  0.00    -0.300 N 
ATOM      4  C   UNL     1      -7.346  -1.106   3.076  0.00  0.00    +0.115 C 
ATOM      5  C   UNL     1      -6.929  -0.332   1.810  0.00  0.00    -0.004 C 
ATOM      6  C   UNL     1      -7.935   0.777   1.514  0.00  0.00    -0.010 C 
ATOM      7  C   UNL     1      -9.281   0.152   1.137  0.00  0.00    -0.082 C 
ATOM      8  N   UNL     1      -9.110  -0.708  -0.040  0.00  0.00    +0.379 N 
ATOM      9  C   UNL     1      -8.214  -1.825   0.281  0.00  0.00    -0.082 C 
ATOM     10  C   UNL     1      -6.822  -1.283   0.622  0.00  0.00    -0.010 C 
ATOM     11  C   UNL     1      -6.997  -0.197   5.424  0.00  0.00    +0.216 C 
ATOM     12  O   UNL     1      -8.126  -0.485   5.763  0.00  0.00    -0.276 OA
ATOM     13  H   UNL     1     -10.008  -1.070  -0.323  0.00  0.00    -0.086 HD
ATOM     14  H   UNL     1      -8.715  -0.167  -0.795  0.00  0.00    -0.086 HD
ENDROOT
BRANCH   1  16
ATOM     15  N   UNL     1      -4.270   0.382   0.024  0.00  0.00    -0.315 N 
ATOM     16  C   UNL     1      -4.510  -0.259   1.186  0.00  0.00    +0.218 C 
ATOM     17  O   UNL     1      -3.886  -1.260   1.466  0.00  0.00    -0.275 OA
ATOM     18  H   UNL     1      -4.769   1.183  -0.200  0.00  0.00    +0.149 HD
BRANCH  15  19
ATOM     19  C   UNL     1      -3.256  -0.132  -0.900  0.00  0.00    +0.108 C 
BRANCH  19  21
ATOM     20  C   UNL     1      -4.545   0.795  -2.829  0.00  0.00    +0.010 C 
ATOM     21  C   UNL     1      -3.183   0.773  -2.132  0.00  0.00    -0.034 C 
ATOM     22  C   UNL     1      -2.808   2.192  -1.700  0.00  0.00    +0.010 C 
BRANCH  21  23
ATOM     23  C   UNL     1      -2.125   0.236  -3.097  0.00  0.00    -0.072 C 
BRANCH  23  24
ATOM     24  N   UNL     1      -2.043   1.114  -4.272  0.00  0.00    +0.376 N 
ATOM     25  C   UNL     1      -1.123   2.224  -3.991  0.00  0.00    -0.097 C 
ATOM     26  C   UNL     1      -1.548   0.347  -5.423  0.00  0.00    -0.097 C 
ATOM     27  H   UNL     1      -2.959   1.481  -4.482  0.00  0.00    -0.083 HD
ENDBRANCH  23  24
ENDBRANCH  21  23
ENDBRANCH  19  21
ENDBRANCH  15  19
ENDBRANCH   1  16
BRANCH  11  28
ATOM     28  C   UNL     1      -6.063   0.464   6.404  0.00  0.00    +0.106 C 
BRANCH  28  29
ATOM     29  C   UNL     1      -6.779   0.657   7.742  0.00  0.00    +0.078 C 
BRANCH  29  30
ATOM     30  S   UNL     1      -5.654   1.453   8.922  0.00  0.00    -0.164 S 
ATOM     31  C   UNL     1      -6.643   1.607  10.435  0.00  0.00    +0.084 C 
ENDBRANCH  29  30
ENDBRANCH  28  29
ENDBRANCH  11  28
TORSDOF 8
