REMARK  Name = ZINC43263818
REMARK  10 active torsions:
REMARK  status: ('A' for Active; 'I' for Inactive)
REMARK    1  A    between atoms: C_1  and  C_2
REMARK    2  A    between atoms: C_2  and  C_3
REMARK    3  A    between atoms: C_3  and  C_5
REMARK    4  A    between atoms: C_3  and  N_23
REMARK    5  A    between atoms: C_5  and  C_7
REMARK    6  A    between atoms: C_5  and  O_13
REMARK    7  A    between atoms: O_13  and  C_14
REMARK    8  A    between atoms: C_19  and  O_20
REMARK    9  A    between atoms: O_20  and  C_21
REMARK   10  A    between atoms: C_21  and  C_22
REMARK                            x       y       z     vdW  Elec       q    Type
REMARK                         _______ _______ _______ _____ _____    ______ ____
ROOT
ATOM      1  C   UNL     1       0.614  -2.084  -1.348  0.00  0.00    +0.196 C 
ENDROOT
BRANCH   1   2
ATOM      2  C   UNL     1       1.265  -2.793  -2.507  0.00  0.00    +0.029 A 
ATOM      3  C   UNL     1       0.730  -3.145  -3.702  0.00  0.00    +0.016 A 
ATOM      4  C   UNL     1       1.524  -3.798  -4.626  0.00  0.00    +0.023 A 
ATOM      5  C   UNL     1       2.816  -4.066  -4.310  0.00  0.00    +0.055 A 
ATOM      6  S   UNL     1       2.943  -3.382  -2.666  0.00  0.00    -0.083 S 
ATOM      7 BR   UNL     1       4.139  -4.934  -5.344  0.00  0.00    -0.043 Br
ENDBRANCH   1   2
BRANCH   1   8
ATOM      8  C   UNL     1       0.894  -0.583  -1.447  0.00  0.00    -0.029 C 
BRANCH   8   9
ATOM      9  N   UNL     1       2.343  -0.359  -1.531  0.00  0.00    +0.383 N 
ATOM     10  H   UNL     1       2.708  -0.824  -2.349  0.00  0.00    -0.089 HD
ATOM     11  H   UNL     1       2.527   0.631  -1.597  0.00  0.00    -0.089 HD
ATOM     12  H   UNL     1       2.789  -0.731  -0.706  0.00  0.00    -0.089 HD
ENDBRANCH   8   9
BRANCH   8  14
ATOM     13  C   UNL     1       0.508   1.635  -0.362  0.00  0.00    +0.002 C 
ATOM     14  C   UNL     1       0.340   0.122  -0.207  0.00  0.00    -0.016 C 
ENDBRANCH   8  14
ENDBRANCH   1   8
BRANCH   1  15
ATOM     15  O   UNL     1       1.146  -2.587  -0.121  0.00  0.00    -0.482 OA
BRANCH  15  16
ATOM     16  C   UNL     1       0.287  -2.694   0.927  0.00  0.00    +0.163 A 
ATOM     17  C   UNL     1      -1.049  -2.362   0.766  0.00  0.00    +0.049 A 
ATOM     18  C   UNL     1      -1.921  -2.471   1.833  0.00  0.00    +0.004 A 
ATOM     19  C   UNL     1      -1.464  -2.911   3.062  0.00  0.00    +0.004 A 
ATOM     20  C   UNL     1      -0.133  -3.243   3.229  0.00  0.00    +0.049 A 
ATOM     21  C   UNL     1       0.746  -3.142   2.162  0.00  0.00    +0.162 A 
BRANCH  21  22
ATOM     22  O   UNL     1       2.054  -3.474   2.323  0.00  0.00    -0.489 OA
BRANCH  22  23
ATOM     23  C   UNL     1       2.454  -3.926   3.619  0.00  0.00    +0.226 C 
ATOM     24  C   UNL     1       3.949  -4.251   3.607  0.00  0.00    +0.048 C 
ENDBRANCH  22  23
ENDBRANCH  21  22
ENDBRANCH  15  16
ENDBRANCH   1  15
TORSDOF 8
