REMARK  Name = ZINC09512982
REMARK  10 active torsions:
REMARK  status: ('A' for Active; 'I' for Inactive)
REMARK    1  A    between atoms: C_1  and  C_2
REMARK    2  A    between atoms: C_2  and  C_3
REMARK    3  A    between atoms: C_2  and  C_4
REMARK    4  A    between atoms: C_4  and  C_6
REMARK    5  A    between atoms: C_4  and  N_17
REMARK    6  A    between atoms: C_18  and  C_20
REMARK    7  A    between atoms: C_20  and  S_21
REMARK    8  A    between atoms: S_21  and  C_22
REMARK    9  A    between atoms: N_26  and  C_27
REMARK   10  A    between atoms: C_30  and  O_33
REMARK                            x       y       z     vdW  Elec       q    Type
REMARK                         _______ _______ _______ _____ _____    ______ ____
ROOT
ATOM      1  N   UNL     1      -2.873   1.535   0.091  0.00  0.00    -0.308 N 
ATOM      2  C   UNL     1      -2.772   0.866  -1.075  0.00  0.00    +0.224 C 
ATOM      3  O   UNL     1      -2.095  -0.138  -1.141  0.00  0.00    -0.275 OA
ATOM      4  H   UNL     1      -3.414   2.338   0.144  0.00  0.00    +0.149 HD
ENDROOT
BRANCH   1   5
ATOM      5  C   UNL     1      -2.164   1.050   1.278  0.00  0.00    +0.106 C 
BRANCH   5   6
ATOM      6  C   UNL     1      -2.870   1.536   2.518  0.00  0.00    -0.023 A 
ATOM      7  C   UNL     1      -3.374   2.822   2.564  0.00  0.00    +0.009 A 
ATOM      8  C   UNL     1      -4.028   3.273   3.696  0.00  0.00    +0.050 A 
ATOM      9  C   UNL     1      -4.165   2.434   4.789  0.00  0.00    +0.162 A 
ATOM     10  C   UNL     1      -3.655   1.145   4.745  0.00  0.00    +0.162 A 
ATOM     11  C   UNL     1      -3.005   0.695   3.608  0.00  0.00    +0.055 A 
ATOM     12  O   UNL     1      -3.796   0.326   5.827  0.00  0.00    -0.488 OA
ATOM     13  C   UNL     1      -3.052   0.693   6.990  0.00  0.00    +0.232 C 
ATOM     14  C   UNL     1      -3.810   1.724   7.812  0.00  0.00    +0.082 C 
ATOM     15  C   UNL     1      -3.982   3.041   7.071  0.00  0.00    +0.232 C 
ATOM     16  O   UNL     1      -4.803   2.869   5.915  0.00  0.00    -0.488 OA
ENDBRANCH   5   6
BRANCH   5  18
ATOM     17  C   UNL     1      -0.013   1.086   0.008  0.00  0.00    +0.009 C 
ATOM     18  C   UNL     1      -0.729   1.579   1.267  0.00  0.00    +0.008 C 
ATOM     19  C   UNL     1       0.011   1.072   2.506  0.00  0.00    +0.009 C 
ENDBRANCH   5  18
ENDBRANCH   1   5
BRANCH   2  20
ATOM     20  C   UNL     1      -3.501   1.365  -2.296  0.00  0.00    +0.173 C 
BRANCH  20  21
ATOM     21  S   UNL     1      -3.169   0.260  -3.690  0.00  0.00    -0.075 S 
BRANCH  21  22
ATOM     22  C   UNL     1      -4.115   1.058  -4.944  0.00  0.00    +0.214 A 
ATOM     23  N   UNL     1      -4.832   2.152  -4.806  0.00  0.00    -0.101 NA
ATOM     24  N   UNL     1      -5.397   2.464  -5.917  0.00  0.00    -0.022 NA
ATOM     25  N   UNL     1      -5.089   1.609  -6.832  0.00  0.00    -0.038 NA
ATOM     26  N   UNL     1      -4.238   0.663  -6.237  0.00  0.00    -0.187 N 
BRANCH  26  27
ATOM     27  C   UNL     1      -3.644  -0.453  -6.847  0.00  0.00    +0.070 A 
ATOM     28  C   UNL     1      -2.370  -0.856  -6.468  0.00  0.00    +0.031 A 
ATOM     29  C   UNL     1      -1.789  -1.956  -7.066  0.00  0.00    +0.047 A 
ATOM     30  C   UNL     1      -2.473  -2.654  -8.051  0.00  0.00    +0.117 A 
ATOM     31  C   UNL     1      -3.743  -2.248  -8.433  0.00  0.00    +0.047 A 
ATOM     32  C   UNL     1      -4.328  -1.151  -7.833  0.00  0.00    +0.031 A 
BRANCH  30  33
ATOM     33  O   UNL     1      -1.897  -3.734  -8.643  0.00  0.00    -0.507 OA
ATOM     34  H   UNL     1      -1.378  -3.521  -9.430  0.00  0.00    +0.292 HD
ENDBRANCH  30  33
ENDBRANCH  26  27
ENDBRANCH  21  22
ENDBRANCH  20  21
ENDBRANCH   2  20
TORSDOF 8
