REMARK  Name = ZINC35955081
REMARK  4 active torsions:
REMARK  status: ('A' for Active; 'I' for Inactive)
REMARK    1  A    between atoms: C_1  and  O_2
REMARK    2  A    between atoms: O_2  and  C_3
REMARK    3  A    between atoms: C_6  and  C_9
REMARK    4  A    between atoms: CA_15  and  C_19
REMARK                            x       y       z     vdW  Elec       q    Type
REMARK                         _______ _______ _______ _____ _____    ______ ____
ROOT
ATOM      1  C   UNL     1       2.505  -2.503  -4.381  0.00  0.00    +0.039 C 
ATOM      2  C   UNL     1       3.664  -3.370  -3.881  0.00  0.00    +0.017 C 
ATOM      3  C   UNL     1       4.491  -3.850  -5.080  0.00  0.00    +0.073 C 
ATOM      4  C   UNL     1       3.542  -4.416  -6.112  0.00  0.00    +0.088 A 
ATOM      5  N   UNL     1       3.844  -5.171  -7.122  0.00  0.00    -0.338 N 
ATOM      6  CA  UNL     1       2.706  -5.465  -7.806  0.00  0.00    +0.146 A 
ATOM      7  C   UNL     1       1.668  -4.847  -7.163  0.00  0.00    +0.120 A 
ATOM      8  N   UNL     1       2.197  -4.195  -6.110  0.00  0.00    -0.334 N 
ATOM      9  C   UNL     1       1.488  -3.383  -5.117  0.00  0.00    +0.131 C 
ATOM     10  H   UNL     1       4.736  -5.477  -7.353  0.00  0.00    +0.167 HD
ENDROOT
BRANCH   1  14
ATOM     11  C   UNL     1       0.606  -0.607  -1.056  0.00  0.00    +0.120 A 
ATOM     12  C   UNL     1       1.173   0.161  -2.062  0.00  0.00    +0.046 A 
ATOM     13  C   UNL     1       1.786  -0.455  -3.136  0.00  0.00    +0.007 A 
ATOM     14  C   UNL     1       1.835  -1.835  -3.209  0.00  0.00    -0.042 A 
ATOM     15  C   UNL     1       1.270  -2.602  -2.207  0.00  0.00    +0.007 A 
ATOM     16  C   UNL     1       0.661  -1.992  -1.128  0.00  0.00    +0.046 A 
BRANCH  11  18
ATOM     17  C   UNL     1      -0.017   1.425   0.010  0.00  0.00    +0.277 C 
ATOM     18  O   UNL     1       0.002  -0.004   0.002  0.00  0.00    -0.495 OA
ENDBRANCH  11  18
ENDBRANCH   1  14
BRANCH   6  19
ATOM     19  C   UNL     1       2.608  -6.294  -9.015  0.00  0.00    +0.404 C 
ATOM     20  O   UNL     1       3.616  -6.794  -9.497  0.00  0.00    -0.239 OA
ATOM     21  OXT UNL     1       1.519  -6.484  -9.540  0.00  0.00    -0.239 OA
ENDBRANCH   6  19
TORSDOF 3
