REMARK  Name = ZINC11855665
REMARK  7 active torsions:
REMARK  status: ('A' for Active; 'I' for Inactive)
REMARK    1  A    between atoms: C_1  and  C_2
REMARK    2  A    between atoms: C_2  and  C_3
REMARK    3  A    between atoms: C_2  and  C_4
REMARK    4  A    between atoms: C_13  and  N_22
REMARK    5  A    between atoms: C_15  and  C_17
REMARK    6  A    between atoms: C_23  and  C_25
REMARK    7  A    between atoms: N_30  and  C_32
REMARK                            x       y       z     vdW  Elec       q    Type
REMARK                         _______ _______ _______ _____ _____    ______ ____
ROOT
ATOM      1  C   UNL     1       8.958   6.905   2.284  0.00  0.00    +0.053 A 
ATOM      2  C   UNL     1      10.020   7.136   3.108  0.00  0.00    +0.093 A 
ATOM      3  C   UNL     1       9.790   7.272   4.490  0.00  0.00    +0.253 A 
ATOM      4  O   UNL     1      10.716   7.479   5.257  0.00  0.00    -0.268 OA
ATOM      5  N   UNL     1       8.525   7.175   4.950  0.00  0.00    -0.291 N 
ATOM      6  H   UNL     1       8.342   7.269   5.898  0.00  0.00    +0.172 HD
ATOM      7  C   UNL     1       7.507   6.938   4.080  0.00  0.00    +0.234 A 
ATOM      8  N   UNL     1       7.729   6.811   2.789  0.00  0.00    -0.217 NA
ATOM      9  N   UNL     1       6.216   6.834   4.559  0.00  0.00    -0.185 N 
ATOM     10  C   UNL     1       5.111   6.505   3.826  0.00  0.00    +0.132 A 
ATOM     11  C   UNL     1       4.044   6.506   4.665  0.00  0.00    +0.074 A 
ATOM     12  C   UNL     1       4.508   6.850   5.952  0.00  0.00    +0.102 A 
ATOM     13  N   UNL     1       5.809   7.048   5.882  0.00  0.00    -0.162 NA
ENDROOT
BRANCH  12  14
ATOM     14  C   UNL     1       3.678   6.968   7.170  0.00  0.00    +0.039 A 
ATOM     15  C   UNL     1       4.056   7.295   8.444  0.00  0.00    +0.018 A 
ATOM     16  C   UNL     1       3.095   7.343   9.429  0.00  0.00    +0.008 A 
ATOM     17  C   UNL     1       1.805   7.065   9.108  0.00  0.00    +0.046 A 
ATOM     18  S   UNL     1       1.919   6.728   7.359  0.00  0.00    -0.095 S 
ENDBRANCH  12  14
BRANCH  10  19
ATOM     19  N   UNL     1       5.085   6.217   2.463  0.00  0.00    -0.270 N 
ATOM     20  C   UNL     1       3.907   6.019   1.839  0.00  0.00    +0.223 C 
ATOM     21  O   UNL     1       2.869   6.093   2.463  0.00  0.00    -0.275 OA
ATOM     22  H   UNL     1       5.914   6.158   1.964  0.00  0.00    +0.156 HD
BRANCH  20  23
ATOM     23  C   UNL     1       3.878   5.707   0.365  0.00  0.00    +0.102 C 
ATOM     24  C   UNL     1       4.626   4.387   0.064  0.00  0.00    +0.110 C 
ATOM     25  C   UNL     1       3.543   3.332   0.091  0.00  0.00    +0.221 C 
ATOM     26  O   UNL     1       3.737   2.138   0.180  0.00  0.00    -0.275 OA
ATOM     27  N   UNL     1       2.332   3.910   0.002  0.00  0.00    -0.271 N 
ATOM     28  C   UNL     1       2.445   5.369  -0.109  0.00  0.00    +0.127 C 
BRANCH  27  29
ATOM     29  C   UNL     1       1.120   3.210   0.007  0.00  0.00    +0.036 A 
ATOM     30  C   UNL     1       1.119   1.821  -0.014  0.00  0.00    +0.025 A 
ATOM     31  C   UNL     1      -0.078   1.133  -0.008  0.00  0.00    +0.022 A 
ATOM     32  C   UNL     1      -1.276   1.826   0.014  0.00  0.00    +0.041 A 
ATOM     33  C   UNL     1      -1.278   3.209   0.040  0.00  0.00    +0.022 A 
ATOM     34  C   UNL     1      -0.083   3.903   0.034  0.00  0.00    +0.025 A 
ATOM     35 CL   UNL     1      -2.779   0.958   0.014  0.00  0.00    -0.084 Cl
ENDBRANCH  27  29
ENDBRANCH  20  23
ENDBRANCH  10  19
BRANCH   1  37
ATOM     36  C   UNL     1       8.694   5.374   0.352  0.00  0.00    +0.014 C 
ATOM     37  C   UNL     1       9.175   6.755   0.801  0.00  0.00    +0.032 C 
ATOM     38  C   UNL     1       8.386   7.836   0.058  0.00  0.00    +0.014 C 
ENDBRANCH   1  37
TORSDOF 5
