REMARK  Name = ZINC19865354
REMARK  6 active torsions:
REMARK  status: ('A' for Active; 'I' for Inactive)
REMARK    1  A    between atoms: C_1  and  C_2
REMARK    2  A    between atoms: C_2  and  C_5
REMARK    3  A    between atoms: N_3  and  O_4
REMARK    4  A    between atoms: C_11  and  C_29
REMARK    5  A    between atoms: C_21  and  C_28
REMARK    6  A    between atoms: C_24  and  O_27
REMARK                            x       y       z     vdW  Elec       q    Type
REMARK                         _______ _______ _______ _____ _____    ______ ____
ROOT
ATOM      1  C   UNL     1       4.370   2.648  -5.372  0.00  0.00    +0.043 C 
ATOM      2  C   UNL     1       3.842   1.218  -5.569  0.00  0.00    +0.010 C 
ATOM      3  C   UNL     1       4.279   0.403  -4.336  0.00  0.00    +0.005 C 
ATOM      4  C   UNL     1       4.949   1.389  -3.380  0.00  0.00    -0.001 C 
ATOM      5  C   UNL     1       4.609   2.805  -3.844  0.00  0.00    -0.021 C 
ATOM      6  C   UNL     1       3.305   3.333  -3.262  0.00  0.00    +0.008 C 
ATOM      7  C   UNL     1       3.085   3.043  -1.797  0.00  0.00    +0.005 C 
ATOM      8  C   UNL     1       3.360   1.604  -1.388  0.00  0.00    +0.003 C 
ATOM      9  C   UNL     1       4.686   1.128  -1.924  0.00  0.00    +0.000 C 
ATOM     10  C   UNL     1       4.991  -0.314  -1.539  0.00  0.00    +0.031 C 
ATOM     11  C   UNL     1       3.794  -1.196  -1.704  0.00  0.00    -0.027 C 
ATOM     12  C   UNL     1       2.572  -0.768  -1.702  0.00  0.00    -0.065 C 
ATOM     13  C   UNL     1       2.183   0.678  -1.562  0.00  0.00    -0.008 C 
ATOM     14  C   UNL     1       1.263   0.780  -0.330  0.00  0.00    +0.014 C 
ATOM     15  C   UNL     1       0.086  -0.180  -0.455  0.00  0.00    +0.032 C 
ATOM     16  C   UNL     1       0.553  -1.627  -0.591  0.00  0.00    +0.119 C 
ATOM     17  C   UNL     1       1.444  -1.780  -1.829  0.00  0.00    +0.062 C 
ATOM     18  C   UNL     1       1.348   1.067  -2.779  0.00  0.00    +0.016 C 
ATOM     19  C   UNL     1       5.770   3.778  -3.576  0.00  0.00    +0.012 C 
ENDROOT
BRANCH   1  21
ATOM     20  C   UNL     1       6.794   1.869  -5.940  0.00  0.00    +0.064 C 
ATOM     21  C   UNL     1       5.659   2.843  -6.125  0.00  0.00    +0.058 C 
ATOM     22  N   UNL     1       5.791   3.835  -6.922  0.00  0.00    -0.097 NA
BRANCH  22  23
ATOM     23  O   UNL     1       4.777   4.820  -7.000  0.00  0.00    -0.409 OA
ATOM     24  H   UNL     1       4.890   5.673  -7.685  0.00  0.00    +0.328 HD
ENDBRANCH  22  23
ENDBRANCH   1  21
BRANCH  16  25
ATOM     25  O   UNL     1       1.290  -2.006   0.574  0.00  0.00    -0.391 OA
ATOM     26  H   UNL     1       1.707  -3.021   0.655  0.00  0.00    +0.210 HD
ENDBRANCH  16  25
TORSDOF 3
