REMARK  Name = ZINC39630070
REMARK  6 active torsions:
REMARK  status: ('A' for Active; 'I' for Inactive)
REMARK    1  A    between atoms: C_6  and  C_7
REMARK    2  A    between atoms: C_11  and  C_20
REMARK    3  A    between atoms: N_22  and  C_23
REMARK    4  A    between atoms: C_23  and  C_24
REMARK    5  A    between atoms: C_24  and  C_25
REMARK    6  A    between atoms: C_25  and  N_26
REMARK                            x       y       z     vdW  Elec       q    Type
REMARK                         _______ _______ _______ _____ _____    ______ ____
ROOT
ATOM      1  C   UNL     1      -1.550  -0.821   0.109  0.00  0.00    +0.247 C 
ATOM      2  O   UNL     1      -2.651  -0.327   0.258  0.00  0.00    -0.270 OA
ATOM      3  N   UNL     1      -1.425  -2.155  -0.036  0.00  0.00    -0.296 N 
ATOM      4  C   UNL     1      -0.174  -2.948  -0.096  0.00  0.00    +0.121 C 
ATOM      5  C   UNL     1      -0.486  -4.230   0.708  0.00  0.00    +0.100 C 
ATOM      6  C   UNL     1      -2.017  -4.365   0.654  0.00  0.00    -0.004 C 
ATOM      7  C   UNL     1      -2.506  -3.161  -0.165  0.00  0.00    +0.115 C 
ATOM      8  C   UNL     1      -2.409  -5.668  -0.036  0.00  0.00    -0.010 C 
ATOM      9  C   UNL     1      -3.934  -5.807  -0.026  0.00  0.00    -0.082 C 
ATOM     10  N   UNL     1      -4.419  -5.798   1.359  0.00  0.00    +0.379 N 
ATOM     11  C   UNL     1      -4.120  -4.505   1.986  0.00  0.00    -0.082 C 
ATOM     12  C   UNL     1      -2.603  -4.311   2.062  0.00  0.00    -0.010 C 
ATOM     13  H   UNL     1      -5.417  -5.951   1.366  0.00  0.00    -0.086 HD
ATOM     14  H   UNL     1      -3.966  -6.535   1.878  0.00  0.00    -0.086 HD
ENDROOT
BRANCH   1  20
ATOM     15  C   UNL     1       0.829  -0.413  -0.507  0.00  0.00    +0.014 A 
ATOM     16  C   UNL     1       1.945   0.396  -0.525  0.00  0.00    +0.016 A 
ATOM     17  C   UNL     1       1.899   1.657   0.046  0.00  0.00    +0.018 A 
ATOM     18  C   UNL     1       0.734   2.113   0.637  0.00  0.00    +0.016 A 
ATOM     19  C   UNL     1      -0.390   1.313   0.662  0.00  0.00    +0.014 A 
ATOM     20  C   UNL     1      -0.350   0.041   0.088  0.00  0.00    +0.037 A 
ATOM     21 BR   UNL     1       3.435   2.759   0.018  0.00  0.00    -0.050 Br
ENDBRANCH   1  20
BRANCH   5  22
ATOM     22  C   UNL     1      -0.021  -4.081   2.134  0.00  0.00    +0.218 C 
ATOM     23  O   UNL     1      -0.003  -2.986   2.655  0.00  0.00    -0.275 OA
ATOM     24  N   UNL     1       0.376  -5.165   2.830  0.00  0.00    -0.315 N 
ATOM     25  H   UNL     1       0.362  -6.041   2.413  0.00  0.00    +0.149 HD
BRANCH  24  26
ATOM     26  C   UNL     1       0.829  -5.021   4.215  0.00  0.00    +0.106 C 
BRANCH  26  27
ATOM     27  C   UNL     1       1.220  -6.392   4.770  0.00  0.00    +0.040 C 
BRANCH  27  28
ATOM     28  C   UNL     1       1.692  -6.241   6.217  0.00  0.00    +0.124 C 
BRANCH  28  29
ATOM     29  N   UNL     1       2.067  -7.554   6.748  0.00  0.00    -0.338 N 
ATOM     30  C   UNL     1       1.240  -8.436   7.391  0.00  0.00    +0.104 A 
ATOM     31  C   UNL     1       1.987  -9.511   7.707  0.00  0.00    +0.101 A 
ATOM     32  N   UNL     1       3.236  -9.291   7.270  0.00  0.00    -0.352 N 
ATOM     33  C   UNL     1       3.290  -8.123   6.690  0.00  0.00    +0.173 A 
ATOM     34  H   UNL     1       3.981  -9.905   7.367  0.00  0.00    +0.166 HD
ENDBRANCH  28  29
ENDBRANCH  27  28
ENDBRANCH  26  27
ENDBRANCH  24  26
ENDBRANCH   5  22
TORSDOF 6
