REMARK  Name = ZINC08772959
REMARK  10 active torsions:
REMARK  status: ('A' for Active; 'I' for Inactive)
REMARK    1  A    between atoms: C_1  and  C_2
REMARK    2  A    between atoms: C_9  and  C_13
REMARK    3  A    between atoms: C_10  and  O_12
REMARK    4  A    between atoms: C_13  and  C_15
REMARK    5  A    between atoms: C_13  and  N_64
REMARK    6  A    between atoms: N_19  and  C_20
REMARK    7  A    between atoms: C_20  and  C_21
REMARK    8  A    between atoms: C_20  and  C_22
REMARK    9  A    between atoms: C_20  and  C_23
REMARK   10  A    between atoms: C_29  and  C_31
REMARK                            x       y       z     vdW  Elec       q    Type
REMARK                         _______ _______ _______ _____ _____    ______ ____
ROOT
ATOM      1  C   UNL     1       2.443   1.339  -4.540  0.00  0.00    +0.039 C 
ENDROOT
BRANCH   1  10
ATOM      2  C   UNL     1       4.607   0.447   2.500  0.00  0.00    +0.044 C 
ATOM      3  C   UNL     1       3.649   0.173   1.369  0.00  0.00    -0.050 A 
ATOM      4  C   UNL     1       2.547  -0.651   1.586  0.00  0.00    +0.005 A 
ATOM      5  C   UNL     1       1.663  -0.918   0.586  0.00  0.00    +0.029 A 
ATOM      6  C   UNL     1       1.859  -0.356  -0.687  0.00  0.00    +0.075 A 
ATOM      7  C   UNL     1       2.980   0.482  -0.905  0.00  0.00    +0.001 A 
ATOM      8  C   UNL     1       3.872   0.735   0.149  0.00  0.00    +0.013 A 
ATOM      9  C   UNL     1       3.177   1.045  -2.182  0.00  0.00    +0.017 A 
ATOM     10  C   UNL     1       2.272   0.758  -3.160  0.00  0.00    +0.008 A 
ATOM     11  C   UNL     1       1.184  -0.078  -2.881  0.00  0.00    +0.215 A 
ATOM     12  N   UNL     1       1.003  -0.597  -1.686  0.00  0.00    -0.213 NA
BRANCH  11  13
ATOM     13  O   UNL     1       0.293  -0.354  -3.865  0.00  0.00    -0.492 OA
ATOM     14  H   UNL     1       0.551  -1.092  -4.434  0.00  0.00    +0.294 HD
ENDBRANCH  11  13
ENDBRANCH   1  10
BRANCH   1  22
ATOM     15  C   UNL     1       3.798   2.836  -5.877  0.00  0.00    -0.058 C 
ATOM     16  C   UNL     1       4.964   3.828  -5.813  0.00  0.00    +0.089 C 
ATOM     17  N   UNL     1       6.161   3.113  -5.344  0.00  0.00    -0.299 N 
ATOM     18  C   UNL     1       6.055   2.309  -4.117  0.00  0.00    +0.089 C 
ATOM     19  C   UNL     1       4.846   1.377  -4.247  0.00  0.00    -0.058 C 
ATOM     20  C   UNL     1       7.323   3.191  -6.022  0.00  0.00    +0.282 C 
ATOM     21  O   UNL     1       8.216   2.397  -5.792  0.00  0.00    -0.267 OA
ATOM     22  N   UNL     1       3.650   2.191  -4.554  0.00  0.00    +0.391 N 
ATOM     23  H   UNL     1       3.551   2.920  -3.837  0.00  0.00    -0.080 HD
BRANCH  20  24
ATOM     24  C   UNL     1       7.512   4.234  -7.036  0.00  0.00    +0.189 A 
ATOM     25  C   UNL     1       8.509   4.277  -7.967  0.00  0.00    +0.054 A 
ATOM     26  C   UNL     1       8.304   5.440  -8.725  0.00  0.00    +0.042 A 
ATOM     27  C   UNL     1       7.204   6.049  -8.230  0.00  0.00    +0.196 A 
ATOM     28  O   UNL     1       6.727   5.317  -7.215  0.00  0.00    -0.458 OA
ENDBRANCH  20  24
ENDBRANCH   1  22
BRANCH   1  29
ATOM     29  C   UNL     1       1.243   2.185  -4.881  0.00  0.00    +0.143 A 
ATOM     30  N   UNL     1       0.427   2.015  -5.892  0.00  0.00    -0.115 NA
ATOM     31  N   UNL     1      -0.471   2.938  -5.839  0.00  0.00    -0.023 NA
ATOM     32  N   UNL     1      -0.243   3.697  -4.825  0.00  0.00    -0.043 NA
ATOM     33  N   UNL     1       0.805   3.266  -4.209  0.00  0.00    -0.225 N 
BRANCH  33  34
ATOM     34  C   UNL     1       1.405   3.844  -3.004  0.00  0.00    +0.059 C 
ATOM     35  C   UNL     1       2.930   3.812  -3.128  0.00  0.00    +0.036 C 
ATOM     36  C   UNL     1       0.936   5.291  -2.844  0.00  0.00    +0.036 C 
ATOM     37  C   UNL     1       0.976   3.031  -1.780  0.00  0.00    +0.036 C 
ENDBRANCH  33  34
ENDBRANCH   1  29
TORSDOF 6
