REMARK  Name = ZINC13565002
REMARK  6 active torsions:
REMARK  status: ('A' for Active; 'I' for Inactive)
REMARK    1  A    between atoms: C_1  and  C_2
REMARK    2  A    between atoms: C_3  and  C_21
REMARK    3  A    between atoms: N_7  and  C_8
REMARK    4  A    between atoms: C_8  and  C_10
REMARK    5  A    between atoms: C_10  and  N_11
REMARK    6  A    between atoms: C_30  and  C_32
REMARK                            x       y       z     vdW  Elec       q    Type
REMARK                         _______ _______ _______ _____ _____    ______ ____
ROOT
ATOM      1  C   UNL     1      -0.065   0.893   0.363  0.00  0.00    +0.054 C 
ATOM      2  C   UNL     1      -0.154  -0.550  -0.062  0.00  0.00    +0.014 A 
ATOM      3  C   UNL     1      -1.253  -1.308  -0.274  0.00  0.00    +0.058 A 
ATOM      4  N   UNL     1      -1.043  -2.603  -0.659  0.00  0.00    -0.335 N 
ATOM      5  C   UNL     1       0.234  -3.045  -0.804  0.00  0.00    +0.164 A 
ATOM      6  S   UNL     1       1.163  -1.697  -0.424  0.00  0.00    -0.057 S 
ATOM      7  N   UNL     1       0.651  -4.260  -1.168  0.00  0.00    -0.155 NA
ATOM      8  H   UNL     1      -1.793  -3.196  -0.825  0.00  0.00    +0.168 HD
ENDROOT
BRANCH   3   9
ATOM      9  C   UNL     1      -2.617  -0.764  -0.097  0.00  0.00    -0.001 A 
ATOM     10  C   UNL     1      -2.950   0.482  -0.630  0.00  0.00    +0.012 A 
ATOM     11  C   UNL     1      -4.219   0.986  -0.464  0.00  0.00    +0.024 A 
ATOM     12  C   UNL     1      -5.184   0.258   0.238  0.00  0.00    +0.040 A 
ATOM     13  C   UNL     1      -4.849  -0.980   0.766  0.00  0.00    -0.024 A 
ATOM     14  C   UNL     1      -3.580  -1.494   0.600  0.00  0.00    +0.015 A 
ATOM     15  C   UNL     1      -6.062  -1.548   1.469  0.00  0.00    +0.056 C 
ATOM     16  C   UNL     1      -7.152  -0.480   1.283  0.00  0.00    +0.118 C 
ATOM     17  N   UNL     1      -6.514   0.591   0.514  0.00  0.00    -0.267 N 
ATOM     18  C   UNL     1      -7.120   1.731   0.128  0.00  0.00    +0.251 C 
ATOM     19  O   UNL     1      -6.537   2.515  -0.595  0.00  0.00    -0.270 OA
BRANCH  18  20
ATOM     20  C   UNL     1      -8.495   2.028   0.583  0.00  0.00    +0.040 A 
ATOM     21  C   UNL     1      -8.869   1.762   1.902  0.00  0.00    +0.013 A 
ATOM     22  C   UNL     1     -10.152   2.042   2.322  0.00  0.00    +0.004 A 
ATOM     23  C   UNL     1     -11.070   2.584   1.441  0.00  0.00    +0.038 A 
ATOM     24  C   UNL     1     -10.707   2.851   0.130  0.00  0.00    +0.124 A 
ATOM     25  C   UNL     1      -9.422   2.581  -0.301  0.00  0.00    +0.051 A 
ATOM     26  F   UNL     1     -11.608   3.380  -0.725  0.00  0.00    -0.205 F 
ENDBRANCH  18  20
ENDBRANCH   3   9
BRANCH   7  27
ATOM     27  C   UNL     1       1.950  -4.515  -1.258  0.00  0.00    +0.252 C 
ATOM     28  O   UNL     1       2.761  -3.643  -1.010  0.00  0.00    -0.272 OA
BRANCH  27  29
ATOM     29  C   UNL     1       2.421  -5.887  -1.668  0.00  0.00    +0.183 C 
BRANCH  29  30
ATOM     30  N   UNL     1       3.890  -5.913  -1.693  0.00  0.00    -0.289 NA
ATOM     31  C   UNL     1       4.385  -7.162  -2.293  0.00  0.00    +0.090 C 
ATOM     32  C   UNL     1       5.866  -6.986  -2.628  0.00  0.00    +0.051 C 
ATOM     33  C   UNL     1       6.605  -6.454  -1.427  0.00  0.00    -0.042 A 
ATOM     34  C   UNL     1       7.988  -6.560  -1.401  0.00  0.00    +0.004 A 
ATOM     35  C   UNL     1       8.704  -6.082  -0.322  0.00  0.00    +0.000 A 
ATOM     36  C   UNL     1       8.039  -5.493   0.738  0.00  0.00    +0.000 A 
ATOM     37  C   UNL     1       6.663  -5.388   0.713  0.00  0.00    +0.005 A 
ATOM     38  C   UNL     1       5.942  -5.871  -0.369  0.00  0.00    -0.030 A 
ATOM     39  C   UNL     1       4.441  -5.744  -0.345  0.00  0.00    +0.120 C 
ENDBRANCH  29  30
ENDBRANCH  27  29
ENDBRANCH   7  27
TORSDOF 5
