REMARK  Name = ZINC39597405
REMARK  6 active torsions:
REMARK  status: ('A' for Active; 'I' for Inactive)
REMARK    1  A    between atoms: C_1  and  O_2
REMARK    2  A    between atoms: O_2  and  C_3
REMARK    3  A    between atoms: C_8  and  C_9
REMARK    4  A    between atoms: C_9  and  N_10
REMARK    5  A    between atoms: C_11  and  C_13
REMARK    6  A    between atoms: C_24  and  C_26
REMARK                            x       y       z     vdW  Elec       q    Type
REMARK                         _______ _______ _______ _____ _____    ______ ____
ROOT
ATOM      1  C   UNL     1      -3.593  -3.636   0.528  0.00  0.00    +0.100 C 
ATOM      2  C   UNL     1      -4.291  -2.268   0.698  0.00  0.00    +0.121 C 
ATOM      3  N   UNL     1      -5.577  -2.583   1.364  0.00  0.00    -0.297 N 
ATOM      4  C   UNL     1      -5.234  -3.640   2.346  0.00  0.00    +0.115 C 
ATOM      5  C   UNL     1      -4.214  -4.533   1.611  0.00  0.00    -0.004 C 
ATOM      6  C   UNL     1      -4.921  -5.724   0.970  0.00  0.00    -0.010 C 
ATOM      7  C   UNL     1      -5.481  -6.631   2.069  0.00  0.00    -0.082 C 
ATOM      8  N   UNL     1      -4.386  -7.093   2.930  0.00  0.00    +0.379 N 
ATOM      9  C   UNL     1      -3.771  -5.949   3.615  0.00  0.00    -0.082 C 
ATOM     10  C   UNL     1      -3.139  -5.013   2.582  0.00  0.00    -0.010 C 
ATOM     11  C   UNL     1      -6.785  -2.034   1.130  0.00  0.00    +0.260 C 
ATOM     12  O   UNL     1      -6.924  -1.239   0.225  0.00  0.00    -0.271 OA
ATOM     13  H   UNL     1      -4.749  -7.738   3.616  0.00  0.00    -0.086 HD
ATOM     14  H   UNL     1      -3.691  -7.560   2.367  0.00  0.00    -0.086 HD
ENDROOT
BRANCH  11  15
ATOM     15  C   UNL     1      -7.962  -2.408   1.993  0.00  0.00    +0.296 C 
ATOM     16  C   UNL     1      -7.753  -1.870   3.415  0.00  0.00    +0.283 C 
ATOM     17  O   UNL     1      -8.894  -2.230   4.202  0.00  0.00    -0.484 OA
ATOM     18  C   UNL     1     -10.116  -2.011   3.644  0.00  0.00    +0.162 A 
ATOM     19  C   UNL     1     -11.241  -1.988   4.455  0.00  0.00    +0.049 A 
ATOM     20  C   UNL     1     -12.488  -1.770   3.903  0.00  0.00    +0.004 A 
ATOM     21  C   UNL     1     -12.619  -1.575   2.541  0.00  0.00    +0.004 A 
ATOM     22  C   UNL     1     -11.502  -1.595   1.727  0.00  0.00    +0.049 A 
ATOM     23  C   UNL     1     -10.247  -1.812   2.275  0.00  0.00    +0.163 A 
ATOM     24  O   UNL     1      -9.155  -1.821   1.461  0.00  0.00    -0.473 OA
ENDBRANCH  11  15
BRANCH   1  26
ATOM     25  N   UNL     1      -1.263  -4.412   0.231  0.00  0.00    -0.311 N 
ATOM     26  C   UNL     1      -2.108  -3.498   0.748  0.00  0.00    +0.218 C 
ATOM     27  O   UNL     1      -1.674  -2.566   1.390  0.00  0.00    -0.275 OA
ATOM     28  H   UNL     1      -1.611  -5.158  -0.282  0.00  0.00    +0.149 HD
BRANCH  25  29
ATOM     29  C   UNL     1       0.180  -4.279   0.445  0.00  0.00    +0.143 C 
BRANCH  29  35
ATOM     30  C   UNL     1       1.130  -5.381  -1.597  0.00  0.00    +0.125 A 
ATOM     31  C   UNL     1       1.794  -6.431  -2.215  0.00  0.00    +0.046 A 
ATOM     32  C   UNL     1       2.215  -7.515  -1.469  0.00  0.00    +0.004 A 
ATOM     33  C   UNL     1       1.975  -7.554  -0.108  0.00  0.00    +0.001 A 
ATOM     34  C   UNL     1       1.314  -6.509   0.510  0.00  0.00    +0.009 A 
ATOM     35  C   UNL     1       0.895  -5.420  -0.230  0.00  0.00    +0.011 A 
BRANCH  30  37
ATOM     36  C   UNL     1       0.990  -4.341  -3.730  0.00  0.00    +0.277 C 
ATOM     37  O   UNL     1       0.715  -4.313  -2.328  0.00  0.00    -0.495 OA
ENDBRANCH  30  37
ENDBRANCH  29  35
ENDBRANCH  25  29
ENDBRANCH   1  26
TORSDOF 5
