REMARK  Name = ZINC47939916
REMARK  7 active torsions:
REMARK  status: ('A' for Active; 'I' for Inactive)
REMARK    1  A    between atoms: C_1  and  C_2
REMARK    2  A    between atoms: C_2  and  O_3
REMARK    3  A    between atoms: O_3  and  C_4
REMARK    4  A    between atoms: C_7  and  C_10
REMARK    5  A    between atoms: C_12  and  C_15
REMARK    6  A    between atoms: C_15  and  S_16
REMARK    7  A    between atoms: S_16  and  C_19
REMARK                            x       y       z     vdW  Elec       q    Type
REMARK                         _______ _______ _______ _____ _____    ______ ____
ROOT
ATOM      1  C   UNL     1      -1.998  -6.072  -0.011  0.00  0.00    +0.202 A 
ATOM      2  N   UNL     1      -3.176  -6.722  -0.013  0.00  0.00    -0.190 NA
ATOM      3  C   UNL     1      -2.974  -8.009  -0.019  0.00  0.00    +0.249 A 
ATOM      4  O   UNL     1      -1.653  -8.232  -0.020  0.00  0.00    -0.336 OA
ATOM      5  N   UNL     1      -1.031  -6.956  -0.020  0.00  0.00    -0.056 NA
ENDROOT
BRANCH   1   9
ATOM      6  C   UNL     1      -1.498  -1.848   0.006  0.00  0.00    +0.121 A 
ATOM      7  C   UNL     1      -0.385  -2.677  -0.003  0.00  0.00    +0.046 A 
ATOM      8  C   UNL     1      -0.544  -4.047  -0.008  0.00  0.00    +0.015 A 
ATOM      9  C   UNL     1      -1.824  -4.598  -0.004  0.00  0.00    +0.023 A 
ATOM     10  C   UNL     1      -2.940  -3.763   0.005  0.00  0.00    +0.015 A 
ATOM     11  C   UNL     1      -2.775  -2.394   0.016  0.00  0.00    +0.046 A 
BRANCH   6  12
ATOM     12  O   UNL     1      -1.339  -0.499   0.012  0.00  0.00    -0.492 OA
BRANCH  12  14
ATOM     13  C   UNL     1      -0.019   1.526   0.010  0.00  0.00    +0.048 C 
ATOM     14  C   UNL     1       0.002  -0.004   0.002  0.00  0.00    +0.225 C 
ENDBRANCH  12  14
ENDBRANCH   6  12
ENDBRANCH   1   9
BRANCH   3  15
ATOM     15  C   UNL     1      -4.046  -9.068  -0.022  0.00  0.00    +0.273 C 
BRANCH  15  16
ATOM     16  S   UNL     1      -4.477  -9.486  -1.734  0.00  0.00    +0.039 S 
ATOM     17  O   UNL     1      -5.122  -8.385  -2.359  0.00  0.00    -0.166 OA
ATOM     18  O   UNL     1      -3.386 -10.142  -2.367  0.00  0.00    -0.166 OA
BRANCH  16  19
ATOM     19  C   UNL     1      -5.726 -10.722  -1.598  0.00  0.00    +0.250 A 
ATOM     20  N   UNL     1      -5.494 -12.061  -1.536  0.00  0.00    -0.323 N 
ATOM     21  H   UNL     1      -4.628 -12.496  -1.558  0.00  0.00    +0.169 HD
ATOM     22  C   UNL     1      -6.721 -12.685  -1.435  0.00  0.00    +0.067 A 
ATOM     23  C   UNL     1      -7.127 -14.010  -1.339  0.00  0.00    +0.028 A 
ATOM     24  C   UNL     1      -8.470 -14.307  -1.250  0.00  0.00    +0.002 A 
ATOM     25  C   UNL     1      -9.417 -13.293  -1.256  0.00  0.00    +0.002 A 
ATOM     26  C   UNL     1      -9.036 -11.985  -1.349  0.00  0.00    +0.030 A 
ATOM     27  C   UNL     1      -7.681 -11.659  -1.440  0.00  0.00    +0.091 A 
ATOM     28  N   UNL     1      -7.004 -10.486  -1.536  0.00  0.00    -0.212 NA
ENDBRANCH  16  19
ENDBRANCH  15  16
ENDBRANCH   3  15
TORSDOF 6
