REMARK  Name = ZINC66937741
REMARK  4 active torsions:
REMARK  status: ('A' for Active; 'I' for Inactive)
REMARK    1  A    between atoms: C_3  and  C_11
REMARK    2  A    between atoms: N_16  and  S_17
REMARK    3  A    between atoms: S_17  and  C_20
REMARK    4  A    between atoms: C_23  and  C_26
REMARK                            x       y       z     vdW  Elec       q    Type
REMARK                         _______ _______ _______ _____ _____    ______ ____
ROOT
ATOM      1  C   UNL     1       3.670   2.195  -0.023  0.00  0.00    +0.113 C 
ATOM      2  C   UNL     1       4.242   2.278   1.407  0.00  0.00    +0.027 C 
ATOM      3  C   UNL     1       4.814   3.719   1.469  0.00  0.00    +0.019 C 
ATOM      4  C   UNL     1       3.787   4.499   0.612  0.00  0.00    +0.110 C 
ATOM      5  N   UNL     1       3.422   3.571  -0.479  0.00  0.00    -0.169 NA
ENDROOT
BRANCH   1   8
ATOM      6  C   UNL     1      -0.017   1.378   0.010  0.00  0.00    +0.004 A 
ATOM      7  C   UNL     1       1.170   2.088   0.002  0.00  0.00    +0.009 A 
ATOM      8  C   UNL     1       2.378   1.418  -0.014  0.00  0.00    +0.017 A 
ATOM      9  C   UNL     1       2.404   0.031  -0.023  0.00  0.00    +0.167 A 
ATOM     10  C   UNL     1       1.212  -0.683  -0.013  0.00  0.00    +0.162 A 
ATOM     11  C   UNL     1       0.002  -0.004   0.002  0.00  0.00    +0.049 A 
ATOM     12  O   UNL     1       1.214  -2.044  -0.013  0.00  0.00    -0.485 OA
ATOM     13  C   UNL     1       2.434  -2.685  -0.404  0.00  0.00    +0.270 C 
ATOM     14  C   UNL     1       3.594  -1.997   0.328  0.00  0.00    +0.270 C 
ATOM     15  O   UNL     1       3.602  -0.615  -0.043  0.00  0.00    -0.485 OA
ENDBRANCH   1   8
BRANCH   5  16
ATOM     16  S   UNL     1       2.833   4.004  -1.964  0.00  0.00    +0.061 S 
ATOM     17  O   UNL     1       3.262   5.339  -2.198  0.00  0.00    -0.153 OA
ATOM     18  O   UNL     1       3.143   2.938  -2.851  0.00  0.00    -0.153 OA
BRANCH  16  19
ATOM     19  C   UNL     1       1.077   4.056  -1.834  0.00  0.00    +0.106 A 
ATOM     20  C   UNL     1       0.333   2.918  -2.092  0.00  0.00    +0.029 A 
ATOM     21  C   UNL     1      -1.042   2.952  -1.992  0.00  0.00    +0.015 A 
ATOM     22  C   UNL     1      -1.684   4.137  -1.629  0.00  0.00    +0.037 A 
ATOM     23  C   UNL     1      -0.928   5.281  -1.370  0.00  0.00    +0.015 A 
ATOM     24  C   UNL     1       0.448   5.233  -1.468  0.00  0.00    +0.029 A 
BRANCH  22  25
ATOM     25  C   UNL     1      -3.158   4.180  -1.520  0.00  0.00    +0.242 C 
ATOM     26  O   UNL     1      -3.813   3.182  -1.747  0.00  0.00    -0.270 OA
ATOM     27  N   UNL     1      -3.774   5.326  -1.169  0.00  0.00    -0.325 N 
ATOM     28  H   UNL     1      -3.251   6.123  -0.988  0.00  0.00    +0.145 HD
ATOM     29  H   UNL     1      -4.741   5.355  -1.098  0.00  0.00    +0.145 HD
ENDBRANCH  22  25
ENDBRANCH  16  19
ENDBRANCH   5  16
TORSDOF 4
