REMARK  Name = ZINC13153532
REMARK  10 active torsions:
REMARK  status: ('A' for Active; 'I' for Inactive)
REMARK    1  A    between atoms: C_1  and  C_2
REMARK    2  A    between atoms: C_2  and  N_3
REMARK    3  A    between atoms: C_6  and  C_21
REMARK    4  A    between atoms: N_10  and  C_11
REMARK    5  A    between atoms: C_14  and  S_17
REMARK    6  A    between atoms: S_17  and  N_20
REMARK    7  A    between atoms: C_21  and  C_22
REMARK    8  A    between atoms: N_24  and  C_25
REMARK    9  A    between atoms: C_27  and  C_32
REMARK   10  A    between atoms: C_30  and  C_31
REMARK                            x       y       z     vdW  Elec       q    Type
REMARK                         _______ _______ _______ _____ _____    ______ ____
ROOT
ATOM      1  N   UNL     1      -1.384  -0.501  -0.017  0.00  0.00    -0.250 N 
ATOM      2  C   UNL     1      -1.964  -0.720   1.151  0.00  0.00    +0.235 C 
ATOM      3  O   UNL     1      -1.397  -0.510   2.201  0.00  0.00    -0.274 OA
ATOM      4  C   UNL     1      -3.388  -1.251   1.093  0.00  0.00    +0.149 C 
ATOM      5  S   UNL     1      -3.633  -1.338  -0.729  0.00  0.00    -0.077 S 
ATOM      6  C   UNL     1      -2.025  -0.732  -1.216  0.00  0.00    +0.164 C 
ATOM      7  N   UNL     1      -1.561  -0.550  -2.430  0.00  0.00    -0.226 NA
ENDROOT
BRANCH   7   8
ATOM      8  C   UNL     1      -2.348  -0.836  -3.514  0.00  0.00    +0.067 A 
ATOM      9  C   UNL     1      -3.089  -2.019  -3.550  0.00  0.00    +0.030 A 
ATOM     10  C   UNL     1      -3.880  -2.301  -4.645  0.00  0.00    +0.030 A 
ATOM     11  C   UNL     1      -3.940  -1.414  -5.705  0.00  0.00    +0.105 A 
ATOM     12  C   UNL     1      -3.209  -0.240  -5.676  0.00  0.00    +0.030 A 
ATOM     13  C   UNL     1      -2.418   0.057  -4.585  0.00  0.00    +0.030 A 
BRANCH  11  14
ATOM     14  S   UNL     1      -4.952  -1.782  -7.100  0.00  0.00    +0.056 S 
ATOM     15  O   UNL     1      -4.414  -1.056  -8.196  0.00  0.00    -0.153 OA
ATOM     16  O   UNL     1      -5.110  -3.195  -7.125  0.00  0.00    -0.153 OA
BRANCH  14  17
ATOM     17  N   UNL     1      -6.450  -1.145  -6.799  0.00  0.00    -0.204 NA
ATOM     18  H   UNL     1      -7.006  -0.843  -7.535  0.00  0.00    +0.144 HD
ATOM     19  H   UNL     1      -6.773  -1.073  -5.887  0.00  0.00    +0.144 HD
ENDBRANCH  14  17
ENDBRANCH  11  14
ENDBRANCH   7   8
BRANCH   1  21
ATOM     20  C   UNL     1      -0.038   1.541  -0.035  0.00  0.00    +0.025 C 
ATOM     21  C   UNL     1      -0.012   0.011  -0.037  0.00  0.00    +0.112 C 
ENDBRANCH   1  21
BRANCH   4  22
ATOM     22  C   UNL     1      -4.371  -0.272   1.740  0.00  0.00    +0.120 C 
BRANCH  22  23
ATOM     23  C   UNL     1      -5.746  -0.889   1.772  0.00  0.00    +0.219 C 
ATOM     24  O   UNL     1      -5.922  -2.001   1.321  0.00  0.00    -0.275 OA
ATOM     25  N   UNL     1      -6.779  -0.204   2.300  0.00  0.00    -0.285 N 
ATOM     26  H   UNL     1      -6.625   0.651   2.732  0.00  0.00    +0.155 HD
BRANCH  25  27
ATOM     27  C   UNL     1      -8.075  -0.726   2.226  0.00  0.00    +0.037 A 
ATOM     28  C   UNL     1      -8.407  -1.625   1.221  0.00  0.00    +0.027 A 
ATOM     29  C   UNL     1      -9.687  -2.138   1.150  0.00  0.00    -0.049 A 
ATOM     30  C   UNL     1     -10.638  -1.758   2.079  0.00  0.00    +0.004 A 
ATOM     31  C   UNL     1     -10.311  -0.863   3.081  0.00  0.00    +0.005 A 
ATOM     32  C   UNL     1      -9.031  -0.351   3.161  0.00  0.00    -0.029 A 
ATOM     33  C   UNL     1      -8.673   0.620   4.257  0.00  0.00    +0.045 C 
ATOM     34  C   UNL     1     -10.048  -3.114   0.060  0.00  0.00    +0.044 C 
ENDBRANCH  25  27
ENDBRANCH  22  23
ENDBRANCH   4  22
TORSDOF 7
