REMARK  Name = ZINC39672467
REMARK  5 active torsions:
REMARK  status: ('A' for Active; 'I' for Inactive)
REMARK    1  A    between atoms: C_8  and  C_13
REMARK    2  A    between atoms: C_13  and  C_14
REMARK    3  A    between atoms: C_14  and  C_15
REMARK    4  A    between atoms: N_17  and  C_18
REMARK    5  A    between atoms: C_18  and  C_19
REMARK                            x       y       z     vdW  Elec       q    Type
REMARK                         _______ _______ _______ _____ _____    ______ ____
ROOT
ATOM      1  C   UNL     1       1.624  -4.553   1.169  0.00  0.00    +0.098 C 
ENDROOT
BRANCH   1   2
ATOM      2  C   UNL     1       1.715  -5.446   2.380  0.00  0.00    +0.213 C 
ATOM      3  O   UNL     1       2.613  -5.293   3.180  0.00  0.00    -0.276 OA
ATOM      4  N   UNL     1       0.798  -6.415   2.572  0.00  0.00    -0.312 N 
ATOM      5  H   UNL     1       0.080  -6.538   1.932  0.00  0.00    +0.149 HD
BRANCH   4   6
ATOM      6  C   UNL     1       0.887  -7.284   3.749  0.00  0.00    +0.152 C 
BRANCH   6   7
ATOM      7  C   UNL     1      -0.266  -8.290   3.728  0.00  0.00    +0.228 C 
ATOM      8  C   UNL     1      -0.186  -9.194   4.966  0.00  0.00    +0.275 C 
ATOM      9  O   UNL     1      -1.284 -10.112   4.922  0.00  0.00    -0.485 OA
ATOM     10  C   UNL     1      -2.506  -9.589   4.629  0.00  0.00    +0.162 A 
ATOM     11  C   UNL     1      -3.647 -10.323   4.918  0.00  0.00    +0.049 A 
ATOM     12  C   UNL     1      -4.895  -9.808   4.623  0.00  0.00    +0.004 A 
ATOM     13  C   UNL     1      -5.010  -8.560   4.040  0.00  0.00    +0.004 A 
ATOM     14  C   UNL     1      -3.877  -7.823   3.750  0.00  0.00    +0.049 A 
ATOM     15  C   UNL     1      -2.622  -8.334   4.044  0.00  0.00    +0.163 A 
ATOM     16  O   UNL     1      -1.516  -7.593   3.759  0.00  0.00    -0.480 OA
ENDBRANCH   6   7
ENDBRANCH   4   6
ENDBRANCH   1   2
BRANCH   1  17
ATOM     17  C   UNL     1       2.776  -3.547   1.190  0.00  0.00    +0.043 C 
BRANCH  17  25
ATOM     18  C   UNL     1      -0.016   1.347   0.009  0.00  0.00    +0.002 A 
ATOM     19  C   UNL     1       1.169   2.101   0.002  0.00  0.00    +0.002 A 
ATOM     20  C   UNL     1       2.398   1.533  -0.013  0.00  0.00    +0.025 A 
ATOM     21  C   UNL     1       2.536   0.127  -0.022  0.00  0.00    +0.057 A 
ATOM     22  N   UNL     1       3.739  -0.422  -0.036  0.00  0.00    -0.282 N 
ATOM     23  C   UNL     1       3.903  -1.747  -0.045  0.00  0.00    +0.240 C 
ATOM     24  O   UNL     1       5.019  -2.228  -0.058  0.00  0.00    -0.273 OA
ATOM     25  C   UNL     1       2.683  -2.640  -0.038  0.00  0.00    +0.166 C 
ATOM     26  N   UNL     1       1.360  -1.997  -0.022  0.00  0.00    -0.372 N 
ATOM     27  C   UNL     1       1.301  -0.697  -0.014  0.00  0.00    +0.057 A 
ATOM     28  C   UNL     1       0.002  -0.004   0.002  0.00  0.00    +0.027 A 
ATOM     29  H   UNL     1       0.550  -2.531  -0.017  0.00  0.00    +0.160 HD
ATOM     30  H   UNL     1       4.521   0.152  -0.041  0.00  0.00    +0.155 HD
ENDBRANCH  17  25
ENDBRANCH   1  17
TORSDOF 5
