REMARK  Name = ZINC04199464
REMARK  9 active torsions:
REMARK  status: ('A' for Active; 'I' for Inactive)
REMARK    1  A    between atoms: C_1  and  C_2
REMARK    2  A    between atoms: C_2  and  C_34
REMARK    3  A    between atoms: N_5  and  C_9
REMARK    4  A    between atoms: C_9  and  C_10
REMARK    5  A    between atoms: C_10  and  C_12
REMARK    6  A    between atoms: C_10  and  O_33
REMARK    7  A    between atoms: C_12  and  O_13
REMARK    8  A    between atoms: O_13  and  C_14
REMARK    9  A    between atoms: C_17  and  N_20
REMARK                            x       y       z     vdW  Elec       q    Type
REMARK                         _______ _______ _______ _____ _____    ______ ____
ROOT
ATOM      1  C   UNL     1      -5.041  -6.172   1.312  0.00  0.00    +0.121 A 
ATOM      2  C   UNL     1      -6.031  -5.686   2.153  0.00  0.00    +0.047 A 
ATOM      3  C   UNL     1      -7.138  -6.462   2.437  0.00  0.00    +0.027 A 
ATOM      4  C   UNL     1      -7.260  -7.727   1.879  0.00  0.00    +0.044 A 
ATOM      5  C   UNL     1      -6.269  -8.213   1.037  0.00  0.00    +0.027 A 
ATOM      6  C   UNL     1      -5.165  -7.435   0.750  0.00  0.00    +0.047 A 
ENDROOT
BRANCH   4   7
ATOM      7  N   UNL     1      -8.385  -8.515   2.167  0.00  0.00    -0.210 N 
ATOM      8  C   UNL     1      -9.385  -8.104   2.971  0.00  0.00    +0.230 C 
ATOM      9  O   UNL     1      -9.562  -6.976   3.378  0.00  0.00    -0.274 OA
ATOM     10  C   UNL     1     -10.259  -9.332   3.275  0.00  0.00    +0.092 C 
ATOM     11  C   UNL     1      -9.623  -9.969   4.513  0.00  0.00    +0.040 C 
ATOM     12  C   UNL     1      -9.709 -11.456   4.522  0.00  0.00    -0.030 C 
ATOM     13  C   UNL     1      -9.954 -12.188   3.487  0.00  0.00    -0.030 C 
ATOM     14  C   UNL     1     -10.236 -11.624   2.130  0.00  0.00    +0.040 C 
ATOM     15  C   UNL     1      -9.973 -10.152   2.006  0.00  0.00    +0.092 C 
ATOM     16  C   UNL     1      -8.567  -9.755   1.659  0.00  0.00    +0.230 C 
ATOM     17  O   UNL     1      -7.756 -10.416   1.047  0.00  0.00    -0.274 OA
ENDBRANCH   4   7
BRANCH   1  18
ATOM     18  O   UNL     1      -3.951  -5.409   1.033  0.00  0.00    -0.489 OA
BRANCH  18  19
ATOM     19  C   UNL     1      -3.889  -4.119   1.645  0.00  0.00    +0.261 C 
BRANCH  19  20
ATOM     20  C   UNL     1      -2.601  -3.413   1.217  0.00  0.00    +0.170 C 
BRANCH  20  21
ATOM     21  O   UNL     1      -1.474  -4.128   1.725  0.00  0.00    -0.387 OA
ATOM     22  H   UNL     1      -1.454  -4.197   2.690  0.00  0.00    +0.210 HD
ENDBRANCH  20  21
BRANCH  20  23
ATOM     23  C   UNL     1      -2.593  -1.987   1.771  0.00  0.00    +0.152 C 
BRANCH  23  28
ATOM     24  C   UNL     1      -0.019   1.526   0.010  0.00  0.00    +0.041 C 
ATOM     25  C   UNL     1       0.002  -0.004   0.002  0.00  0.00    +0.107 C 
ATOM     26  C   UNL     1      -1.404  -0.557   0.121  0.00  0.00    +0.246 C 
ATOM     27  O   UNL     1      -2.324  -0.392  -0.652  0.00  0.00    -0.273 OA
ATOM     28  N   UNL     1      -1.419  -1.272   1.263  0.00  0.00    -0.222 N 
ATOM     29  C   UNL     1      -0.231  -1.248   1.876  0.00  0.00    +0.309 C 
ATOM     30  O   UNL     1       0.001  -1.819   2.923  0.00  0.00    -0.252 OA
ATOM     31  N   UNL     1       0.679  -0.520   1.204  0.00  0.00    -0.285 N 
ATOM     32  C   UNL     1       0.684  -0.525  -1.265  0.00  0.00    +0.041 C 
ATOM     33  H   UNL     1       1.602  -0.365   1.461  0.00  0.00    +0.151 HD
ENDBRANCH  23  28
ENDBRANCH  20  23
ENDBRANCH  19  20
ENDBRANCH  18  19
ENDBRANCH   1  18
TORSDOF 7
