REMARK  Name = ZINC02780288
REMARK  5 active torsions:
REMARK  status: ('A' for Active; 'I' for Inactive)
REMARK    1  A    between atoms: C_1  and  N_2
REMARK    2  A    between atoms: C_3  and  C_23
REMARK    3  A    between atoms: C_5  and  C_7
REMARK    4  A    between atoms: N_9  and  C_10
REMARK    5  A    between atoms: C_11  and  C_19
REMARK                            x       y       z     vdW  Elec       q    Type
REMARK                         _______ _______ _______ _____ _____    ______ ____
ROOT
ATOM      1  C   UNL     1       1.147   1.655   0.000  0.00  0.00    +0.270 C 
ATOM      2  O   UNL     1       1.130   2.871   0.007  0.00  0.00    -0.268 OA
ATOM      3  N   UNL     1      -0.011   0.966   0.007  0.00  0.00    -0.274 N 
ATOM      4  H   UNL     1       0.002  -0.004   0.002  0.00  0.00    +0.156 HD
ENDROOT
BRANCH   3   5
ATOM      5  C   UNL     1      -1.220   1.642   0.017  0.00  0.00    +0.085 A 
ATOM      6  C   UNL     1      -2.504   1.114   0.014  0.00  0.00    +0.068 A 
ATOM      7  C   UNL     1      -3.615   2.050   0.031  0.00  0.00    -0.023 A 
ATOM      8  C   UNL     1      -3.267   3.356   0.035  0.00  0.00    -0.004 A 
ATOM      9  S   UNL     1      -1.497   3.353   0.027  0.00  0.00    -0.077 S 
ATOM     10  C   UNL     1      -4.189   4.536   0.045  0.00  0.00    +0.043 C 
ATOM     11  C   UNL     1      -5.598   4.052  -0.329  0.00  0.00    +0.005 C 
ATOM     12  C   UNL     1      -5.930   2.810   0.503  0.00  0.00    +0.005 C 
ATOM     13  C   UNL     1      -5.079   1.628   0.036  0.00  0.00    +0.037 C 
BRANCH   6  14
ATOM     14  C   UNL     1      -2.730  -0.334   0.000  0.00  0.00    +0.244 C 
ATOM     15  O   UNL     1      -2.822  -0.946   1.048  0.00  0.00    -0.270 OA
ATOM     16  N   UNL     1      -2.836  -0.988  -1.173  0.00  0.00    -0.325 N 
ATOM     17  H   UNL     1      -2.763  -0.501  -2.009  0.00  0.00    +0.145 HD
ATOM     18  H   UNL     1      -2.986  -1.947  -1.183  0.00  0.00    +0.145 HD
ENDBRANCH   6  14
ENDBRANCH   3   5
BRANCH   1  23
ATOM     19  C   UNL     1       4.403  -2.017  -0.051  0.00  0.00    +0.173 C 
ATOM     20  N   UNL     1       3.853  -0.659  -0.038  0.00  0.00    -0.261 N 
ATOM     21  C   UNL     1       4.593   0.478  -0.039  0.00  0.00    +0.160 A 
ATOM     22  C   UNL     1       3.725   1.518  -0.025  0.00  0.00    +0.103 A 
ATOM     23  C   UNL     1       2.435   0.935  -0.016  0.00  0.00    +0.166 A 
ATOM     24  N   UNL     1       2.601  -0.373  -0.019  0.00  0.00    -0.165 NA
ATOM     25 CL   UNL     1       4.113   3.210  -0.021  0.00  0.00    -0.079 Cl
BRANCH  21  26
ATOM     26  C   UNL     1       6.097   0.567  -0.054  0.00  0.00    +0.435 C 
ATOM     27  F   UNL     1       6.550   0.602  -1.377  0.00  0.00    -0.164 F 
ATOM     28  F   UNL     1       6.501   1.732   0.609  0.00  0.00    -0.164 F 
ATOM     29  F   UNL     1       6.637  -0.549   0.594  0.00  0.00    -0.164 F 
ENDBRANCH  21  26
ENDBRANCH   1  23
TORSDOF 4
