REMARK  Name = ZINC03434243
REMARK  10 active torsions:
REMARK  status: ('A' for Active; 'I' for Inactive)
REMARK    1  A    between atoms: C_1  and  C_2
REMARK    2  A    between atoms: C_2  and  N_3
REMARK    3  A    between atoms: C_7  and  C_9
REMARK    4  A    between atoms: C_9  and  C_11
REMARK    5  A    between atoms: C_9  and  O_12
REMARK    6  A    between atoms: O_12  and  C_13
REMARK    7  A    between atoms: C_13  and  C_15
REMARK    8  A    between atoms: C_18  and  N_21
REMARK    9  A    between atoms: C_25  and  S_27
REMARK   10  A    between atoms: S_27  and  C_28
REMARK                            x       y       z     vdW  Elec       q    Type
REMARK                         _______ _______ _______ _____ _____    ______ ____
ROOT
ATOM      1  C   UNL     1       2.309  -6.078   5.187  0.00  0.00    +0.340 C 
ATOM      2  O   UNL     1       2.800  -5.413   6.078  0.00  0.00    -0.245 OA
ENDROOT
BRANCH   1   3
ATOM      3  C   UNL     1       2.229  -7.544   5.319  0.00  0.00    +0.059 A 
ATOM      4  C   UNL     1       1.670  -8.310   4.292  0.00  0.00    +0.017 A 
ATOM      5  C   UNL     1       1.597  -9.679   4.418  0.00  0.00    +0.028 A 
ATOM      6  C   UNL     1       2.079 -10.300   5.566  0.00  0.00    +0.067 A 
ATOM      7  C   UNL     1       2.637  -9.540   6.591  0.00  0.00    +0.028 A 
ATOM      8  C   UNL     1       2.717  -8.172   6.469  0.00  0.00    +0.017 A 
BRANCH   6   9
ATOM      9  N   UNL     1       2.003 -11.685   5.691  0.00  0.00    -0.217 N 
ATOM     10  C   UNL     1       1.508 -12.253   6.820  0.00  0.00    +0.150 A 
ATOM     11  S   UNL     1       0.909 -11.506   8.239  0.00  0.00    -0.023 S 
ATOM     12  S   UNL     1       1.650 -13.989   6.424  0.00  0.00    -0.034 S 
ATOM     13  C   UNL     1       2.354 -13.808   4.793  0.00  0.00    +0.157 A 
ATOM     14  N   UNL     1       2.423 -12.506   4.670  0.00  0.00    -0.151 NA
BRANCH  13  15
ATOM     15  S   UNL     1       2.829 -15.057   3.645  0.00  0.00    -0.100 S 
ATOM     16  C   UNL     1       3.458 -14.128   2.220  0.00  0.00    +0.092 C 
ENDBRANCH  13  15
ENDBRANCH   6   9
ENDBRANCH   1   3
BRANCH   1  17
ATOM     17  O   UNL     1       1.839  -5.474   4.078  0.00  0.00    -0.449 OA
BRANCH  17  18
ATOM     18  C   UNL     1       1.949  -4.051   4.017  0.00  0.00    +0.259 C 
ATOM     19  C   UNL     1       3.285  -3.670   3.376  0.00  0.00    +0.062 C 
BRANCH  18  24
ATOM     20  N   UNL     1      -0.512  -0.329   2.227  0.00  0.00    -0.299 N 
ATOM     21  C   UNL     1      -0.352  -1.663   2.340  0.00  0.00    +0.306 C 
ATOM     22  O   UNL     1      -1.121  -2.416   1.775  0.00  0.00    -0.252 OA
ATOM     23  N   UNL     1       0.659  -2.160   3.079  0.00  0.00    -0.237 N 
ATOM     24  C   UNL     1       0.818  -3.494   3.191  0.00  0.00    +0.261 C 
ATOM     25  O   UNL     1       0.052  -4.246   2.628  0.00  0.00    -0.271 OA
ATOM     26  H   UNL     1       0.102   0.273   2.678  0.00  0.00    +0.150 HD
ATOM     27  H   UNL     1       1.272  -1.559   3.529  0.00  0.00    +0.159 HD
BRANCH  20  29
ATOM     28  C   UNL     1      -1.565   1.741   1.462  0.00  0.00    +0.024 C 
ATOM     29  C   UNL     1      -1.611   0.212   1.424  0.00  0.00    +0.102 C 
ENDBRANCH  20  29
ENDBRANCH  18  24
ENDBRANCH  17  18
ENDBRANCH   1  17
TORSDOF 7
