REMARK  Name = ZINC02879496
REMARK  6 active torsions:
REMARK  status: ('A' for Active; 'I' for Inactive)
REMARK    1  A    between atoms: C_6  and  C_7
REMARK    2  A    between atoms: C_7  and  C_8
REMARK    3  A    between atoms: N_10  and  C_11
REMARK    4  A    between atoms: C_14  and  S_17
REMARK    5  A    between atoms: S_17  and  N_20
REMARK    6  A    between atoms: N_20  and  C_21
REMARK                            x       y       z     vdW  Elec       q    Type
REMARK                         _______ _______ _______ _____ _____    ______ ____
ROOT
ATOM      1  C   UNL     1       0.044  -2.771  -0.011  0.00  0.00    +0.034 A 
ATOM      2  C   UNL     1       0.225  -2.082   1.181  0.00  0.00    +0.025 A 
ATOM      3  C   UNL     1       0.211  -0.701   1.188  0.00  0.00    +0.030 A 
ATOM      4  C   UNL     1       0.018  -0.004   0.009  0.00  0.00    +0.105 A 
ATOM      5  C   UNL     1      -0.168  -0.687  -1.179  0.00  0.00    +0.030 A 
ATOM      6  C   UNL     1      -0.150  -2.068  -1.193  0.00  0.00    +0.025 A 
ENDROOT
BRANCH   1   9
ATOM      7  C   UNL     1      -0.418  -4.856   1.038  0.00  0.00    +0.222 C 
ATOM      8  O   UNL     1      -0.943  -4.264   1.958  0.00  0.00    -0.275 OA
ATOM      9  N   UNL     1       0.057  -4.170  -0.021  0.00  0.00    -0.285 N 
ATOM     10  H   UNL     1       0.407  -4.646  -0.790  0.00  0.00    +0.155 HD
BRANCH   7  11
ATOM     11  C   UNL     1      -0.296  -6.357   1.079  0.00  0.00    +0.131 C 
BRANCH  11  17
ATOM     12  C   UNL     1      -0.111  -7.017   3.486  0.00  0.00    +0.005 A 
ATOM     13  C   UNL     1      -0.665  -7.488   4.662  0.00  0.00    +0.015 A 
ATOM     14  C   UNL     1      -2.006  -7.827   4.708  0.00  0.00    +0.018 A 
ATOM     15  C   UNL     1      -2.792  -7.690   3.578  0.00  0.00    +0.015 A 
ATOM     16  C   UNL     1      -2.239  -7.214   2.404  0.00  0.00    +0.005 A 
ATOM     17  C   UNL     1      -0.899  -6.875   2.359  0.00  0.00    -0.039 A 
ATOM     18 BR   UNL     1      -2.763  -8.477   6.314  0.00  0.00    -0.050 Br
ENDBRANCH  11  17
ENDBRANCH   7  11
ENDBRANCH   1   9
BRANCH   4  19
ATOM     19  S   UNL     1       0.001   1.758   0.022  0.00  0.00    +0.059 S 
ATOM     20  O   UNL     1      -0.742   2.165  -1.119  0.00  0.00    -0.153 OA
ATOM     21  O   UNL     1      -0.353   2.151   1.341  0.00  0.00    -0.153 OA
BRANCH  19  22
ATOM     22  N   UNL     1       1.558   2.265  -0.221  0.00  0.00    -0.187 NA
ATOM     23  H   UNL     1       2.026   2.747   0.479  0.00  0.00    +0.148 HD
BRANCH  22  24
ATOM     24  C   UNL     1       2.230   1.985  -1.492  0.00  0.00    +0.077 C 
ATOM     25  C   UNL     1       3.054   0.702  -1.363  0.00  0.00    +0.020 C 
ATOM     26  C   UNL     1       3.755   0.410  -2.691  0.00  0.00    +0.002 C 
ATOM     27  C   UNL     1       4.679   1.576  -3.047  0.00  0.00    +0.000 C 
ATOM     28  C   UNL     1       3.855   2.859  -3.177  0.00  0.00    +0.002 C 
ATOM     29  C   UNL     1       3.154   3.151  -1.849  0.00  0.00    +0.020 C 
ENDBRANCH  22  24
ENDBRANCH  19  22
ENDBRANCH   4  19
TORSDOF 6
