REMARK  Name = ZINC12584078
REMARK  8 active torsions:
REMARK  status: ('A' for Active; 'I' for Inactive)
REMARK    1  A    between atoms: C_1  and  C_2
REMARK    2  A    between atoms: C_2  and  C_3
REMARK    3  A    between atoms: C_3  and  C_18
REMARK    4  A    between atoms: N_4  and  N_5
REMARK    5  A    between atoms: C_6  and  C_8
REMARK    6  A    between atoms: C_8  and  O_9
REMARK    7  A    between atoms: O_9  and  C_10
REMARK    8  A    between atoms: C_21  and  O_24
REMARK                            x       y       z     vdW  Elec       q    Type
REMARK                         _______ _______ _______ _____ _____    ______ ____
ROOT
ATOM      1  N   UNL     1       3.909  -2.193  -0.047  0.00  0.00    -0.204 N 
ATOM      2  C   UNL     1       3.713  -0.860  -0.038  0.00  0.00    +0.270 C 
ATOM      3  O   UNL     1       4.664  -0.106  -0.043  0.00  0.00    -0.270 OA
ATOM      4  H   UNL     1       3.149  -2.795  -0.043  0.00  0.00    +0.177 HD
ENDROOT
BRANCH   1   6
ATOM      5  C   UNL     1       5.401  -3.993  -0.071  0.00  0.00    +0.066 C 
ATOM      6  N   UNL     1       5.212  -2.709  -0.062  0.00  0.00    -0.184 NA
BRANCH   5   7
ATOM      7  C   UNL     1       6.771  -4.536  -0.087  0.00  0.00    -0.002 A 
ATOM      8  C   UNL     1       6.977  -5.918  -0.090  0.00  0.00    +0.013 A 
ATOM      9  C   UNL     1       8.259  -6.422  -0.111  0.00  0.00    +0.046 A 
ATOM     10  C   UNL     1       9.347  -5.558  -0.116  0.00  0.00    +0.117 A 
ATOM     11  C   UNL     1       9.147  -4.183  -0.107  0.00  0.00    +0.046 A 
ATOM     12  C   UNL     1       7.868  -3.671  -0.093  0.00  0.00    +0.013 A 
BRANCH  10  13
ATOM     13  O   UNL     1      10.610  -6.058  -0.132  0.00  0.00    -0.507 OA
ATOM     14  H   UNL     1      10.984  -6.208   0.748  0.00  0.00    +0.292 HD
ENDBRANCH  10  13
ENDBRANCH   5   7
BRANCH   5  16
ATOM     15  C   UNL     1       3.806  -5.238  -1.505  0.00  0.00    +0.010 C 
ATOM     16  C   UNL     1       4.219  -4.929  -0.065  0.00  0.00    +0.054 C 
ENDBRANCH   5  16
ENDBRANCH   1   6
BRANCH   2  17
ATOM     17  C   UNL     1       2.312  -0.304  -0.022  0.00  0.00    +0.326 C 
BRANCH  17  18
ATOM     18  O   UNL     1       2.366   1.124  -0.015  0.00  0.00    -0.482 OA
BRANCH  18  19
ATOM     19  C   UNL     1       1.179   1.786   0.000  0.00  0.00    +0.135 A 
ATOM     20  C   UNL     1      -0.013   1.076   0.008  0.00  0.00    +0.048 A 
ATOM     21  C   UNL     1      -1.218   1.751   0.017  0.00  0.00    +0.019 A 
ATOM     22  C   UNL     1      -1.238   3.134   0.030  0.00  0.00    +0.019 A 
ATOM     23  C   UNL     1      -0.051   3.845   0.022  0.00  0.00    +0.034 A 
ATOM     24  C   UNL     1       1.157   3.174   0.008  0.00  0.00    +0.061 A 
ATOM     25 BR   UNL     1       2.779   4.146  -0.003  0.00  0.00    -0.046 Br
ATOM     26 BR   UNL     1      -2.889   4.054   0.050  0.00  0.00    -0.050 Br
ENDBRANCH  18  19
ENDBRANCH  17  18
ENDBRANCH   2  17
TORSDOF 7
