REMARK  Name = ZINC14983121
REMARK  4 active torsions:
REMARK  status: ('A' for Active; 'I' for Inactive)
REMARK    1  A    between atoms: C_1  and  O_2
REMARK    2  A    between atoms: O_2  and  C_3
REMARK    3  A    between atoms: C_3  and  C_5
REMARK    4  A    between atoms: C_7  and  N_16
REMARK                            x       y       z     vdW  Elec       q    Type
REMARK                         _______ _______ _______ _____ _____    ______ ____
ROOT
ATOM      1  C   UNL     1       1.185   1.784   0.000  0.00  0.00    +0.073 A 
ATOM      2  C   UNL     1       0.005   1.101   0.275  0.00  0.00    +0.048 A 
ATOM      3  C   UNL     1      -1.207   1.772   0.285  0.00  0.00    +0.129 A 
ATOM      4  C   UNL     1      -1.265   3.126   0.035  0.00  0.00    +0.060 A 
ATOM      5  C   UNL     1      -0.102   3.838  -0.243  0.00  0.00    +0.070 A 
ATOM      6  C   UNL     1       1.137   3.172  -0.263  0.00  0.00    +0.047 A 
ATOM      7  C   UNL     1       2.120   4.138  -0.569  0.00  0.00    +0.131 A 
ATOM      8  N   UNL     1       1.537   5.293  -0.722  0.00  0.00    -0.167 NA
ATOM      9  N   UNL     1       0.157   5.155  -0.529  0.00  0.00    -0.276 N 
ATOM     10  H   UNL     1      -0.521   5.887  -0.590  0.00  0.00    +0.189 HD
ATOM     11  I   UNL     1       4.176   3.775  -0.746  0.00  0.00    -0.019 I 
ENDROOT
BRANCH   3  12
ATOM     12  N   UNL     1      -2.453   1.027   0.572  0.00  0.00    +0.057 N 
ATOM     13  O   UNL     1      -2.409  -0.169   0.799  0.00  0.00    -0.126 OA
ATOM     14  O   UNL     1      -3.522   1.610   0.583  0.00  0.00    -0.126 OA
ENDBRANCH   3  12
BRANCH   1  15
ATOM     15  C   UNL     1       2.472   1.067  -0.016  0.00  0.00    +0.340 C 
ATOM     16  O   UNL     1       3.210   1.166  -0.977  0.00  0.00    -0.245 OA
BRANCH  15  18
ATOM     17  C   UNL     1       4.113  -0.374   0.949  0.00  0.00    +0.280 C 
ATOM     18  O   UNL     1       2.831   0.302   1.034  0.00  0.00    -0.464 OA
ENDBRANCH  15  18
ENDBRANCH   1  15
TORSDOF 3
