REMARK  Name = ZINC38806368
REMARK  11 active torsions:
REMARK  status: ('A' for Active; 'I' for Inactive)
REMARK    1  A    between atoms: C_1  and  C_2
REMARK    2  A    between atoms: C_2  and  O_3
REMARK    3  A    between atoms: O_3  and  C_4
REMARK    4  A    between atoms: C_4  and  C_6
REMARK    5  A    between atoms: C_10  and  N_11
REMARK    6  A    between atoms: C_12  and  C_14
REMARK    7  A    between atoms: C_16  and  C_26
REMARK    8  A    between atoms: C_27  and  C_33
REMARK    9  A    between atoms: C_27  and  C_34
REMARK   10  A    between atoms: C_29  and  C_31
REMARK   11  A    between atoms: C_29  and  C_32
REMARK                            x       y       z     vdW  Elec       q    Type
REMARK                         _______ _______ _______ _____ _____    ______ ____
ROOT
ATOM      1  C   UNL     1      -2.710  -2.607   0.046  0.00  0.00    +0.091 A 
ATOM      2  C   UNL     1      -3.412  -2.925  -1.178  0.00  0.00    -0.024 A 
ATOM      3  C   UNL     1      -4.657  -3.426  -0.999  0.00  0.00    -0.016 A 
ATOM      4  S   UNL     1      -4.863  -3.478   0.756  0.00  0.00    -0.079 S 
ATOM      5  C   UNL     1      -3.384  -2.844   1.238  0.00  0.00    +0.086 A 
ATOM      6  C   UNL     1      -5.613  -3.824  -2.073  0.00  0.00    -0.041 C 
ATOM      7  N   UNL     1      -4.997  -3.803  -3.399  0.00  0.00    +0.389 N 
ATOM      8  C   UNL     1      -3.542  -3.863  -3.443  0.00  0.00    -0.069 C 
ATOM      9  C   UNL     1      -2.895  -2.759  -2.598  0.00  0.00    +0.024 C 
ATOM     10  C   UNL     1      -3.092  -3.665  -4.903  0.00  0.00    -0.010 C 
ATOM     11  C   UNL     1      -3.031  -5.228  -2.975  0.00  0.00    -0.010 C 
ATOM     12  C   UNL     1      -6.174  -5.221  -1.771  0.00  0.00    -0.005 C 
ATOM     13  C   UNL     1      -6.791  -2.830  -2.061  0.00  0.00    -0.005 C 
ATOM     14  H   UNL     1      -5.370  -4.584  -3.942  0.00  0.00    -0.084 HD
ATOM     15  H   UNL     1      -5.302  -2.958  -3.886  0.00  0.00    -0.084 HD
ENDROOT
BRANCH   5  16
ATOM     16  N   UNL     1      -2.939  -2.606   2.529  0.00  0.00    -0.276 N 
ATOM     17  C   UNL     1      -3.731  -2.898   3.579  0.00  0.00    +0.262 C 
ATOM     18  O   UNL     1      -4.865  -3.284   3.395  0.00  0.00    -0.271 OA
ATOM     19  H   UNL     1      -2.057  -2.229   2.676  0.00  0.00    +0.155 HD
BRANCH  17  20
ATOM     20  C   UNL     1      -3.206  -2.744   4.984  0.00  0.00    +0.299 C 
ATOM     21  C   UNL     1      -3.114  -1.255   5.342  0.00  0.00    +0.220 C 
ATOM     22  O   UNL     1      -2.627  -1.146   6.684  0.00  0.00    -0.481 OA
ATOM     23  C   UNL     1      -3.203  -1.960   7.611  0.00  0.00    +0.163 A 
ATOM     24  C   UNL     1      -3.053  -1.668   8.959  0.00  0.00    +0.049 A 
ATOM     25  C   UNL     1      -3.629  -2.486   9.913  0.00  0.00    +0.004 A 
ATOM     26  C   UNL     1      -4.355  -3.597   9.526  0.00  0.00    +0.004 A 
ATOM     27  C   UNL     1      -4.509  -3.892   8.185  0.00  0.00    +0.049 A 
ATOM     28  C   UNL     1      -3.936  -3.074   7.223  0.00  0.00    +0.163 A 
ATOM     29  O   UNL     1      -4.103  -3.374   5.905  0.00  0.00    -0.472 OA
ATOM     30  C   UNL     1      -2.151  -0.552   4.384  0.00  0.00    +0.056 C 
ENDBRANCH  17  20
ENDBRANCH   5  16
BRANCH   1  31
ATOM     31  C   UNL     1      -1.355  -2.053   0.042  0.00  0.00    +0.342 C 
ATOM     32  O   UNL     1      -0.393  -2.797   0.072  0.00  0.00    -0.245 OA
BRANCH  31  33
ATOM     33  O   UNL     1      -1.172  -0.717   0.004  0.00  0.00    -0.461 OA
BRANCH  33  35
ATOM     34  C   UNL     1       0.183   1.284  -0.043  0.00  0.00    +0.048 C 
ATOM     35  C   UNL     1       0.177  -0.246   0.002  0.00  0.00    +0.229 C 
ENDBRANCH  33  35
ENDBRANCH  31  33
ENDBRANCH   1  31
TORSDOF 5
