REMARK  Name = ZINC28245049
REMARK  5 active torsions:
REMARK  status: ('A' for Active; 'I' for Inactive)
REMARK    1  A    between atoms: C_4  and  N_29
REMARK    2  A    between atoms: C_6  and  S_7
REMARK    3  A    between atoms: S_7  and  N_10
REMARK    4  A    between atoms: N_10  and  C_11
REMARK    5  A    between atoms: C_13  and  C_19
REMARK                            x       y       z     vdW  Elec       q    Type
REMARK                         _______ _______ _______ _____ _____    ______ ____
ROOT
ATOM      1  C   UNL     1      -1.154   3.212   2.463  0.00  0.00    +0.084 A 
ATOM      2  C   UNL     1      -0.517   4.349   1.994  0.00  0.00    +0.041 A 
ATOM      3  C   UNL     1       0.335   5.064   2.836  0.00  0.00    +0.056 A 
ATOM      4  C   UNL     1       0.550   4.622   4.145  0.00  0.00    +0.137 A 
ATOM      5  C   UNL     1      -0.087   3.484   4.602  0.00  0.00    +0.079 A 
ATOM      6  C   UNL     1      -0.936   2.779   3.767  0.00  0.00    +0.148 A 
ATOM      7  F   UNL     1      -1.555   1.667   4.220  0.00  0.00    -0.203 F 
ATOM      8  F   UNL     1       1.378   5.308   4.962  0.00  0.00    -0.205 F 
ENDROOT
BRANCH   3   9
ATOM      9  C   UNL     1       1.014   6.282   2.344  0.00  0.00    +0.167 A 
ATOM     10  N   UNL     1       2.296   6.564   2.452  0.00  0.00    -0.129 NA
ATOM     11  N   UNL     1       2.538   7.704   1.905  0.00  0.00    -0.134 NA
ATOM     12  C   UNL     1       1.438   8.206   1.418  0.00  0.00    +0.134 A 
ATOM     13  N   UNL     1       0.435   7.326   1.685  0.00  0.00    -0.311 N 
ATOM     14  C   UNL     1      -0.981   7.493   1.355  0.00  0.00    +0.125 C 
ATOM     15  C   UNL     1      -1.108   8.373   0.107  0.00  0.00    +0.022 C 
ATOM     16  C   UNL     1      -1.191   9.842   0.518  0.00  0.00    +0.002 C 
ATOM     17  C   UNL     1       0.076  10.266   1.254  0.00  0.00    +0.008 C 
ATOM     18  C   UNL     1       1.280   9.511   0.682  0.00  0.00    +0.076 C 
ENDBRANCH   3   9
BRANCH   1  19
ATOM     19  N   UNL     1      -2.014   2.495   1.622  0.00  0.00    -0.213 N 
ATOM     20  H   UNL     1      -2.915   2.018   2.035  0.00  0.00    +0.174 HD
BRANCH  19  21
ATOM     21  S   UNL     1      -1.675   2.366   0.006  0.00  0.00    +0.072 S 
ATOM     22  O   UNL     1      -1.481   3.689  -0.475  0.00  0.00    -0.150 OA
ATOM     23  O   UNL     1      -2.649   1.490  -0.544  0.00  0.00    -0.150 OA
BRANCH  21  29
ATOM     24  C   UNL     1       1.047   2.282  -0.164  0.00  0.00    +0.033 A 
ATOM     25  C   UNL     1       2.266   1.642  -0.281  0.00  0.00    +0.055 A 
ATOM     26  C   UNL     1       2.315   0.259  -0.371  0.00  0.00    +0.209 A 
ATOM     27  C   UNL     1       1.140  -0.478  -0.342  0.00  0.00    +0.174 A 
ATOM     28  C   UNL     1      -0.076   0.167  -0.225  0.00  0.00    +0.065 A 
ATOM     29  C   UNL     1      -0.122   1.546  -0.136  0.00  0.00    +0.111 A 
ATOM     30  O   UNL     1       3.513  -0.374  -0.487  0.00  0.00    -0.285 OA
BRANCH  27  31
ATOM     31  N   UNL     1       1.189  -1.955  -0.437  0.00  0.00    +0.060 N 
ATOM     32  O   UNL     1       0.157  -2.601  -0.411  0.00  0.00    -0.126 OA
ATOM     33  O   UNL     1       2.261  -2.523  -0.540  0.00  0.00    -0.126 OA
ENDBRANCH  27  31
ENDBRANCH  21  29
ENDBRANCH  19  21
ENDBRANCH   1  19
TORSDOF 5
