REMARK  Name = ZINC29481147
REMARK  6 active torsions:
REMARK  status: ('A' for Active; 'I' for Inactive)
REMARK    1  A    between atoms: C_4  and  C_7
REMARK    2  A    between atoms: C_7  and  C_9
REMARK    3  A    between atoms: C_7  and  O_35
REMARK    4  A    between atoms: N_12  and  C_15
REMARK    5  A    between atoms: C_15  and  C_16
REMARK    6  A    between atoms: C_29  and  C_31
REMARK                            x       y       z     vdW  Elec       q    Type
REMARK                         _______ _______ _______ _____ _____    ______ ____
ROOT
ATOM      1  C   UNL     1      -4.215   0.557  -4.924  0.00  0.00    +0.204 C 
ATOM      2  O   UNL     1      -4.500  -0.171  -3.997  0.00  0.00    -0.277 OA
ATOM      3  N   UNL     1      -5.058   0.681  -5.968  0.00  0.00    -0.259 N 
ATOM      4  C   UNL     1      -4.742   1.519  -7.046  0.00  0.00    +0.058 A 
ATOM      5  C   UNL     1      -4.781   2.896  -6.906  0.00  0.00    +0.025 A 
ATOM      6  C   UNL     1      -4.488   3.707  -7.987  0.00  0.00    +0.002 A 
ATOM      7  C   UNL     1      -4.157   3.147  -9.208  0.00  0.00    +0.002 A 
ATOM      8  C   UNL     1      -4.106   1.773  -9.354  0.00  0.00    +0.025 A 
ATOM      9  C   UNL     1      -4.388   0.955  -8.273  0.00  0.00    +0.055 A 
ATOM     10  N   UNL     1      -4.289  -0.437  -8.381  0.00  0.00    -0.284 N 
ATOM     11  C   UNL     1      -5.284  -1.232  -7.928  0.00  0.00    +0.219 C 
ATOM     12  O   UNL     1      -5.150  -2.437  -7.952  0.00  0.00    -0.275 OA
ATOM     13  C   UNL     1      -6.557  -0.631  -7.394  0.00  0.00    +0.128 C 
ATOM     14  C   UNL     1      -6.319  -0.062  -5.999  0.00  0.00    +0.194 C 
ATOM     15  H   UNL     1      -3.398  -0.891  -8.838  0.00  0.00    +0.155 HD
ENDROOT
BRANCH  14  16
ATOM     16  C   UNL     1      -7.472   0.876  -5.635  0.00  0.00    +0.409 C 
ATOM     17  F   UNL     1      -7.526   1.928  -6.557  0.00  0.00    -0.169 F 
ATOM     18  F   UNL     1      -8.678   0.168  -5.665  0.00  0.00    -0.169 F 
ATOM     19  F   UNL     1      -7.265   1.392  -4.351  0.00  0.00    -0.169 F 
ENDBRANCH  14  16
BRANCH   1  20
ATOM     20  C   UNL     1      -2.917   1.323  -4.909  0.00  0.00    +0.019 C 
BRANCH  20  24
ATOM     21  C   UNL     1      -0.753   1.593  -1.232  0.00  0.00    +0.019 C 
ATOM     22  C   UNL     1      -2.188   1.061  -1.224  0.00  0.00    -0.012 C 
ATOM     23  C   UNL     1      -2.904   1.519  -2.496  0.00  0.00    -0.078 C 
ATOM     24  N   UNL     1      -2.183   1.019  -3.674  0.00  0.00    +0.385 N 
ATOM     25  C   UNL     1      -0.817   1.556  -3.727  0.00  0.00    -0.078 C 
ATOM     26  C   UNL     1      -0.039   1.097  -2.492  0.00  0.00    -0.012 C 
ATOM     27  H   UNL     1      -2.110  -0.075  -3.582  0.00  0.00    -0.081 HD
BRANCH  21  28
ATOM     28  C   UNL     1      -0.013   1.086   0.008  0.00  0.00    +0.147 C 
BRANCH  28  32
ATOM     29  C   UNL     1      -2.011   2.463   3.523  0.00  0.00    +0.000 A 
ATOM     30  C   UNL     1      -2.215   1.172   3.073  0.00  0.00    +0.000 A 
ATOM     31  C   UNL     1      -1.568   0.726   1.936  0.00  0.00    +0.006 A 
ATOM     32  C   UNL     1      -0.718   1.572   1.248  0.00  0.00    -0.019 A 
ATOM     33  C   UNL     1      -0.511   2.861   1.700  0.00  0.00    +0.006 A 
ATOM     34  C   UNL     1      -1.161   3.309   2.835  0.00  0.00    +0.000 A 
ENDBRANCH  28  32
BRANCH  28  35
ATOM     35  O   UNL     1       1.328   1.580  -0.002  0.00  0.00    -0.387 OA
ATOM     36  H   UNL     1       2.001   1.328  -0.835  0.00  0.00    +0.210 HD
ENDBRANCH  28  35
ENDBRANCH  21  28
ENDBRANCH  20  24
ENDBRANCH   1  20
TORSDOF 6
