REMARK  Name = ZINC03197548
REMARK  9 active torsions:
REMARK  status: ('A' for Active; 'I' for Inactive)
REMARK    1  A    between atoms: C_1  and  C_2
REMARK    2  A    between atoms: C_2  and  C_31
REMARK    3  A    between atoms: C_3  and  C_4
REMARK    4  A    between atoms: C_4  and  C_5
REMARK    5  A    between atoms: C_6  and  O_30
REMARK    6  A    between atoms: C_18  and  O_28
REMARK    7  A    between atoms: C_19  and  O_26
REMARK    8  A    between atoms: O_26  and  C_27
REMARK    9  A    between atoms: O_28  and  C_29
REMARK                            x       y       z     vdW  Elec       q    Type
REMARK                         _______ _______ _______ _____ _____    ______ ____
ROOT
ATOM      1  C   UNL     1      -2.170   1.352  -1.144  0.00  0.00    +0.040 A 
ATOM      2  C   UNL     1      -2.085   2.006  -2.365  0.00  0.00    +0.124 A 
ATOM      3  C   UNL     1      -2.855   1.589  -3.447  0.00  0.00    +0.046 A 
ATOM      4  C   UNL     1      -3.709   0.531  -3.317  0.00  0.00    +0.018 A 
ATOM      5  C   UNL     1      -3.803  -0.138  -2.094  0.00  0.00    +0.060 A 
ATOM      6  C   UNL     1      -3.033   0.279  -0.994  0.00  0.00    +0.139 A 
ATOM      7  O   UNL     1      -3.133  -0.348   0.198  0.00  0.00    -0.483 OA
ATOM      8  C   UNL     1      -3.615  -1.692   0.254  0.00  0.00    +0.226 C 
ATOM      9  C   UNL     1      -3.936  -2.021   1.723  0.00  0.00    +0.274 C 
ATOM     10  O   UNL     1      -4.793  -0.997   2.229  0.00  0.00    -0.488 OA
ATOM     11  C   UNL     1      -5.875  -0.638   1.488  0.00  0.00    +0.128 A 
ATOM     12  C   UNL     1      -6.878   0.109   2.098  0.00  0.00    +0.095 A 
ATOM     13  C   UNL     1      -7.988   0.506   1.375  0.00  0.00    +0.165 A 
ATOM     14  C   UNL     1      -8.103   0.156   0.033  0.00  0.00    +0.162 A 
ATOM     15  C   UNL     1      -7.106  -0.589  -0.571  0.00  0.00    +0.057 A 
ATOM     16  C   UNL     1      -5.994  -0.988   0.154  0.00  0.00    +0.012 A 
ATOM     17  C   UNL     1      -4.929  -1.801  -0.530  0.00  0.00    +0.138 C 
ATOM     18  C   UNL     1      -4.698  -1.293  -1.934  0.00  0.00    +0.178 C 
ATOM     19  O   UNL     1      -5.230  -1.817  -2.891  0.00  0.00    -0.291 OA
ENDROOT
BRANCH  14  20
ATOM     20  O   UNL     1      -9.192   0.547  -0.683  0.00  0.00    -0.491 OA
ATOM     21  C   UNL     1      -9.241   0.152  -2.056  0.00  0.00    +0.277 C 
ENDBRANCH  14  20
BRANCH  13  22
ATOM     22  O   UNL     1      -8.966   1.236   1.975  0.00  0.00    -0.491 OA
ATOM     23  C   UNL     1      -8.782   1.558   3.355  0.00  0.00    +0.277 C 
ENDBRANCH  13  22
BRANCH   2  24
ATOM     24  O   UNL     1      -1.239   3.058  -2.506  0.00  0.00    -0.506 OA
ATOM     25  H   UNL     1      -0.351   2.812  -2.798  0.00  0.00    +0.292 HD
ENDBRANCH   2  24
BRANCH   1  26
ATOM     26  C   UNL     1      -1.328   1.812   0.018  0.00  0.00    +0.069 C 
BRANCH  26  29
ATOM     27  C   UNL     1       2.428   1.010  -0.016  0.00  0.00    +0.038 C 
ATOM     28  C   UNL     1       1.113   1.746   0.001  0.00  0.00    -0.079 C 
ATOM     29  C   UNL     1      -0.013   1.076   0.008  0.00  0.00    -0.023 C 
ATOM     30  C   UNL     1       1.092   3.253   0.009  0.00  0.00    +0.038 C 
ENDBRANCH  26  29
ENDBRANCH   1  26
TORSDOF 5
