REMARK  Name = ZINC39532589
REMARK  11 active torsions:
REMARK  status: ('A' for Active; 'I' for Inactive)
REMARK    1  A    between atoms: C_1  and  C_2
REMARK    2  A    between atoms: C_2  and  C_3
REMARK    3  A    between atoms: C_3  and  C_4
REMARK    4  A    between atoms: C_7  and  C_10
REMARK    5  A    between atoms: C_10  and  C_12
REMARK    6  A    between atoms: C_10  and  N_21
REMARK    7  A    between atoms: C_12  and  N_13
REMARK    8  A    between atoms: N_13  and  C_14
REMARK    9  A    between atoms: C_19  and  O_20
REMARK   10  A    between atoms: C_25  and  C_28
REMARK   11  A    between atoms: C_28  and  C_29
REMARK                            x       y       z     vdW  Elec       q    Type
REMARK                         _______ _______ _______ _____ _____    ______ ____
ROOT
ATOM      1  C   UNL     1       0.796  -6.277  -1.298  0.00  0.00    -0.021 C 
ENDROOT
BRANCH   1   2
ATOM      2  N   UNL     1      -0.521  -6.876  -1.044  0.00  0.00    +0.383 N 
ATOM      3  C   UNL     1      -1.084  -6.314   0.191  0.00  0.00    -0.097 C 
ATOM      4  C   UNL     1      -2.456  -6.938   0.456  0.00  0.00    -0.101 C 
ATOM      5  N   UNL     1      -2.312  -8.393   0.601  0.00  0.00    +0.379 N 
ATOM      6  C   UNL     1      -1.749  -8.955  -0.634  0.00  0.00    -0.085 C 
ATOM      7  C   UNL     1      -0.377  -8.331  -0.898  0.00  0.00    -0.094 C 
ATOM      8  H   UNL     1      -1.696  -8.595   1.374  0.00  0.00    -0.086 HD
ATOM      9  H   UNL     1      -3.217  -8.805   0.776  0.00  0.00    -0.086 HD
ATOM     10  H   UNL     1      -1.137  -6.674  -1.817  0.00  0.00    -0.081 HD
BRANCH   6  11
ATOM     11  C   UNL     1      -1.599 -10.470  -0.483  0.00  0.00    +0.017 C 
BRANCH  11  12
ATOM     12  C   UNL     1      -2.962 -11.098  -0.344  0.00  0.00    -0.049 A 
ATOM     13  C   UNL     1      -3.526 -11.256   0.908  0.00  0.00    +0.003 A 
ATOM     14  C   UNL     1      -4.776 -11.832   1.034  0.00  0.00    +0.000 A 
ATOM     15  C   UNL     1      -5.462 -12.250  -0.091  0.00  0.00    +0.000 A 
ATOM     16  C   UNL     1      -4.898 -12.091  -1.343  0.00  0.00    +0.000 A 
ATOM     17  C   UNL     1      -3.650 -11.511  -1.470  0.00  0.00    +0.003 A 
ENDBRANCH  11  12
ENDBRANCH   6  11
ENDBRANCH   1   2
BRANCH   1  21
ATOM     18  C   UNL     1       0.394  -2.036  -1.617  0.00  0.00    -0.047 A 
ATOM     19  C   UNL     1       1.477  -2.579  -0.951  0.00  0.00    +0.004 A 
ATOM     20  C   UNL     1       1.607  -3.951  -0.848  0.00  0.00    +0.002 A 
ATOM     21  C   UNL     1       0.654  -4.780  -1.410  0.00  0.00    -0.059 A 
ATOM     22  C   UNL     1      -0.429  -4.237  -2.075  0.00  0.00    +0.002 A 
ATOM     23  C   UNL     1      -0.561  -2.865  -2.175  0.00  0.00    +0.004 A 
BRANCH  18  24
ATOM     24  C   UNL     1       0.253  -0.540  -1.730  0.00  0.00    +0.035 C 
BRANCH  24  26
ATOM     25  C   UNL     1      -0.681   1.509  -0.646  0.00  0.00    +0.004 C 
ATOM     26  C   UNL     1      -0.537  -0.010  -0.532  0.00  0.00    +0.001 C 
ENDBRANCH  24  26
ENDBRANCH  18  24
ENDBRANCH   1  21
BRANCH   1  27
ATOM     27  C   UNL     1       1.366  -6.834  -2.604  0.00  0.00    +0.091 C 
BRANCH  27  28
ATOM     28  N   UNL     1       2.719  -6.310  -2.808  0.00  0.00    -0.342 N 
ATOM     29  H   UNL     1       3.138  -5.767  -2.123  0.00  0.00    +0.146 HD
BRANCH  28  30
ATOM     30  C   UNL     1       3.408  -6.595  -3.993  0.00  0.00    +0.069 A 
ATOM     31  C   UNL     1       2.809  -7.367  -4.977  0.00  0.00    +0.026 A 
ATOM     32  C   UNL     1       3.491  -7.646  -6.147  0.00  0.00    +0.002 A 
ATOM     33  C   UNL     1       4.769  -7.157  -6.339  0.00  0.00    +0.004 A 
ATOM     34  C   UNL     1       5.373  -6.387  -5.362  0.00  0.00    +0.047 A 
ATOM     35  C   UNL     1       4.694  -6.098  -4.190  0.00  0.00    +0.138 A 
BRANCH  35  36
ATOM     36  O   UNL     1       5.285  -5.336  -3.230  0.00  0.00    -0.505 OA
ATOM     37  H   UNL     1       5.793  -5.843  -2.583  0.00  0.00    +0.292 HD
ENDBRANCH  35  36
ENDBRANCH  28  30
ENDBRANCH  27  28
ENDBRANCH   1  27
TORSDOF 10
