REMARK  Name = ZINC06443664
REMARK  12 active torsions:
REMARK  status: ('A' for Active; 'I' for Inactive)
REMARK    1  A    between atoms: C_1  and  C_2
REMARK    2  A    between atoms: C_12  and  C_14
REMARK    3  A    between atoms: C_14  and  C_16
REMARK    4  A    between atoms: C_14  and  N_66
REMARK    5  A    between atoms: N_20  and  C_21
REMARK    6  A    between atoms: C_21  and  C_22
REMARK    7  A    between atoms: C_22  and  O_23
REMARK    8  A    between atoms: O_23  and  C_24
REMARK    9  A    between atoms: C_25  and  C_26
REMARK   10  A    between atoms: C_25  and  N_66
REMARK   11  A    between atoms: C_32  and  C_33
REMARK   12  A    between atoms: C_32  and  N_66
REMARK                            x       y       z     vdW  Elec       q    Type
REMARK                         _______ _______ _______ _____ _____    ______ ____
ROOT
ATOM      1  C   UNL     1       0.624   3.030   0.235  0.00  0.00    +0.039 C 
ENDROOT
BRANCH   1  13
ATOM      2  C   UNL     1      -3.102  -2.295   1.217  0.00  0.00    +0.046 C 
ATOM      3  C   UNL     1      -1.615  -2.085   1.336  0.00  0.00    -0.026 A 
ATOM      4  C   UNL     1      -0.796  -3.130   1.709  0.00  0.00    +0.005 A 
ATOM      5  C   UNL     1       0.575  -2.950   1.823  0.00  0.00    +0.001 A 
ATOM      6  C   UNL     1       1.140  -1.733   1.566  0.00  0.00    +0.010 A 
ATOM      7  C   UNL     1       0.330  -0.659   1.185  0.00  0.00    -0.001 A 
ATOM      8  C   UNL     1      -1.062  -0.838   1.068  0.00  0.00    +0.052 A 
ATOM      9  N   UNL     1      -1.856   0.225   0.691  0.00  0.00    -0.322 N 
ATOM     10  H   UNL     1      -2.815   0.100   0.612  0.00  0.00    +0.169 HD
ATOM     11  C   UNL     1      -1.321   1.431   0.433  0.00  0.00    +0.251 A 
ATOM     12  O   UNL     1      -2.053   2.346   0.098  0.00  0.00    -0.268 OA
ATOM     13  C   UNL     1       0.068   1.662   0.535  0.00  0.00    +0.011 A 
ATOM     14  C   UNL     1       0.902   0.659   0.901  0.00  0.00    +0.017 A 
ENDBRANCH   1  13
BRANCH   1  15
ATOM     15  C   UNL     1       0.395   3.359  -1.217  0.00  0.00    +0.143 A 
ATOM     16  N   UNL     1      -0.743   3.700  -1.772  0.00  0.00    -0.115 NA
ATOM     17  N   UNL     1      -0.529   3.902  -3.026  0.00  0.00    -0.023 NA
ATOM     18  N   UNL     1       0.714   3.691  -3.288  0.00  0.00    -0.044 NA
ATOM     19  N   UNL     1       1.317   3.355  -2.198  0.00  0.00    -0.228 N 
BRANCH  19  20
ATOM     20  C   UNL     1       2.738   3.029  -2.054  0.00  0.00    +0.175 C 
BRANCH  20  21
ATOM     21  C   UNL     1       2.942   1.529  -2.271  0.00  0.00    +0.183 C 
BRANCH  21  22
ATOM     22  O   UNL     1       4.328   1.211  -2.131  0.00  0.00    -0.381 OA
ATOM     23  C   UNL     1       4.629  -0.174  -2.316  0.00  0.00    +0.194 C 
ENDBRANCH  21  22
ENDBRANCH  20  21
ENDBRANCH  19  20
ENDBRANCH   1  15
BRANCH   1  24
ATOM     24  N   UNL     1      -0.077   4.032   1.066  0.00  0.00    +0.395 N 
ATOM     25  H   UNL     1      -1.024   4.170   0.694  0.00  0.00    -0.079 HD
BRANCH  24  26
ATOM     26  C   UNL     1       0.648   5.320   1.023  0.00  0.00    -0.041 C 
BRANCH  26  27
ATOM     27  C   UNL     1       0.294   6.030  -0.258  0.00  0.00    -0.064 A 
ATOM     28  C   UNL     1       1.144   5.959  -1.345  0.00  0.00    +0.002 A 
ATOM     29  C   UNL     1       0.817   6.606  -2.522  0.00  0.00    +0.000 A 
ATOM     30  C   UNL     1      -0.356   7.333  -2.608  0.00  0.00    +0.000 A 
ATOM     31  C   UNL     1      -1.203   7.409  -1.519  0.00  0.00    +0.000 A 
ATOM     32  C   UNL     1      -0.879   6.757  -0.344  0.00  0.00    +0.002 A 
ENDBRANCH  26  27
ENDBRANCH  24  26
BRANCH  24  33
ATOM     33  C   UNL     1      -0.174   3.553   2.461  0.00  0.00    -0.040 C 
BRANCH  33  34
ATOM     34  C   UNL     1      -1.190   4.394   3.191  0.00  0.00    -0.046 A 
ATOM     35  C   UNL     1      -0.802   5.555   3.842  0.00  0.00    +0.005 A 
ATOM     36  C   UNL     1      -1.771   6.299   4.498  0.00  0.00    +0.020 A 
ATOM     37  C   UNL     1      -3.080   5.857   4.489  0.00  0.00    +0.111 A 
ATOM     38  N   UNL     1      -3.412   4.744   3.863  0.00  0.00    -0.263 NA
ATOM     39  C   UNL     1      -2.518   4.014   3.226  0.00  0.00    +0.112 A 
ENDBRANCH  33  34
ENDBRANCH  24  33
ENDBRANCH   1  24
TORSDOF 10
