REMARK  Name = ZINC13539872
REMARK  6 active torsions:
REMARK  status: ('A' for Active; 'I' for Inactive)
REMARK    1  A    between atoms: C_1  and  C_2
REMARK    2  A    between atoms: C_4  and  C_15
REMARK    3  A    between atoms: C_5  and  C_14
REMARK    4  A    between atoms: N_6  and  C_7
REMARK    5  A    between atoms: C_10  and  O_13
REMARK    6  A    between atoms: N_21  and  C_24
REMARK                            x       y       z     vdW  Elec       q    Type
REMARK                         _______ _______ _______ _____ _____    ______ ____
ROOT
ATOM      1  C   UNL     1      -0.857  -3.706  -1.113  0.00  0.00    +0.028 C 
ATOM      2  C   UNL     1      -1.097  -3.549  -2.469  0.00  0.00    +0.102 C 
ATOM      3  C   UNL     1      -0.679  -4.571  -3.451  0.00  0.00    +0.276 C 
ATOM      4  N   UNL     1      -0.943  -4.353  -4.750  0.00  0.00    -0.123 NA
ATOM      5  C   UNL     1      -1.553  -3.270  -5.162  0.00  0.00    +0.340 C 
ATOM      6  O   UNL     1      -1.779  -3.131  -6.483  0.00  0.00    -0.250 OA
ATOM      7  N   UNL     1      -1.973  -2.278  -4.332  0.00  0.00    -0.188 N 
ATOM      8  C   UNL     1      -1.784  -2.357  -2.997  0.00  0.00    +0.264 C 
ATOM      9  O   UNL     1      -2.164  -1.471  -2.255  0.00  0.00    -0.269 OA
ATOM     10  O   UNL     1      -0.109  -5.587  -3.091  0.00  0.00    -0.268 OA
ENDROOT
BRANCH   1  14
ATOM     11  C   UNL     1      -0.910   0.912   0.926  0.00  0.00    +0.064 C 
ATOM     12  C   UNL     1      -1.101  -0.562   0.675  0.00  0.00    +0.022 A 
ATOM     13  C   UNL     1      -0.681  -1.226  -0.414  0.00  0.00    +0.031 A 
ATOM     14  C   UNL     1      -1.083  -2.628  -0.226  0.00  0.00    -0.003 A 
ATOM     15  C   UNL     1      -1.728  -2.675   1.002  0.00  0.00    +0.028 A 
ATOM     16  N   UNL     1      -1.723  -1.435   1.524  0.00  0.00    -0.317 N 
ATOM     17  C   UNL     1      -2.325  -3.903   1.641  0.00  0.00    +0.064 C 
BRANCH  16  18
ATOM     18  C   UNL     1      -2.281  -1.087   2.763  0.00  0.00    +0.047 A 
ATOM     19  C   UNL     1      -1.742  -1.597   3.936  0.00  0.00    +0.030 A 
ATOM     20  C   UNL     1      -2.291  -1.254   5.155  0.00  0.00    +0.047 A 
ATOM     21  C   UNL     1      -3.382  -0.398   5.208  0.00  0.00    +0.117 A 
ATOM     22  C   UNL     1      -3.921   0.113   4.036  0.00  0.00    +0.047 A 
ATOM     23  C   UNL     1      -3.369  -0.226   2.817  0.00  0.00    +0.030 A 
BRANCH  21  24
ATOM     24  O   UNL     1      -3.922  -0.059   6.409  0.00  0.00    -0.507 OA
ATOM     25  H   UNL     1      -3.532   0.731   6.807  0.00  0.00    +0.292 HD
ENDBRANCH  21  24
ENDBRANCH  16  18
ENDBRANCH   1  14
BRANCH   7  26
ATOM     26  C   UNL     1      -2.618  -1.156  -4.870  0.00  0.00    +0.046 A 
ATOM     27  C   UNL     1      -4.000  -1.143  -4.996  0.00  0.00    +0.027 A 
ATOM     28  C   UNL     1      -4.634  -0.036  -5.527  0.00  0.00    +0.040 A 
ATOM     29  C   UNL     1      -3.891   1.060  -5.933  0.00  0.00    +0.124 A 
ATOM     30  C   UNL     1      -2.512   1.048  -5.808  0.00  0.00    +0.040 A 
ATOM     31  C   UNL     1      -1.875  -0.054  -5.273  0.00  0.00    +0.027 A 
ATOM     32  F   UNL     1      -4.513   2.141  -6.451  0.00  0.00    -0.205 F 
ENDBRANCH   7  26
TORSDOF 4
