REMARK  Name = ZINC16049286
REMARK  4 active torsions:
REMARK  status: ('A' for Active; 'I' for Inactive)
REMARK    1  A    between atoms: C_11  and  C_16
REMARK    2  A    between atoms: C_16  and  O_17
REMARK    3  A    between atoms: O_17  and  C_18
REMARK    4  A    between atoms: C_18  and  C_20
REMARK                            x       y       z     vdW  Elec       q    Type
REMARK                         _______ _______ _______ _____ _____    ______ ____
ROOT
ATOM      1  C   UNL     1       2.267  -3.104  -0.056  0.00  0.00    +0.269 C 
ENDROOT
BRANCH   1  12
ATOM      2  C   UNL     1       4.763   1.681  -0.043  0.00  0.00    +0.001 A 
ATOM      3  C   UNL     1       4.864   0.297  -0.042  0.00  0.00    +0.001 A 
ATOM      4  C   UNL     1       3.749  -0.499  -0.052  0.00  0.00    +0.009 A 
ATOM      5  C   UNL     1       2.463   0.042  -0.062  0.00  0.00    -0.007 A 
ATOM      6  C   UNL     1       2.377   1.463  -0.064  0.00  0.00    -0.017 A 
ATOM      7  C   UNL     1       3.534   2.260  -0.053  0.00  0.00    +0.008 A 
ATOM      8  C   UNL     1       1.127   2.111  -0.075  0.00  0.00    +0.012 A 
ATOM      9  C   UNL     1      -0.014   1.392  -0.085  0.00  0.00    +0.047 A 
ATOM     10  C   UNL     1       0.006  -0.006  -0.084  0.00  0.00    +0.140 A 
ATOM     11  C   UNL     1       1.217  -0.730  -0.072  0.00  0.00    +0.032 A 
ATOM     12  C   UNL     1       1.112  -2.136  -0.070  0.00  0.00    +0.008 A 
ATOM     13  C   UNL     1      -0.123  -2.732  -0.083  0.00  0.00    +0.099 A 
ATOM     14  C   UNL     1      -1.293  -1.959  -0.095  0.00  0.00    +0.338 A 
ATOM     15  O   UNL     1      -2.385  -2.494  -0.106  0.00  0.00    -0.245 OA
ATOM     16  O   UNL     1      -1.196  -0.624  -0.095  0.00  0.00    -0.422 OA
ENDBRANCH   1  12
BRANCH   1  17
ATOM     17  O   UNL     1       1.761  -4.460   0.062  0.00  0.00    -0.456 OA
BRANCH  17  18
ATOM     18  C   UNL     1       2.672  -5.443   0.192  0.00  0.00    +0.340 C 
ATOM     19  O   UNL     1       3.850  -5.169   0.299  0.00  0.00    -0.245 OA
BRANCH  18  20
ATOM     20  C   UNL     1       2.236  -6.860   0.204  0.00  0.00    +0.073 A 
ATOM     21  C   UNL     1       0.909  -7.182   0.209  0.00  0.00    +0.085 A 
ATOM     22  C   UNL     1       0.511  -8.589   0.217  0.00  0.00    +0.250 A 
ATOM     23  O   UNL     1      -0.672  -8.877   0.218  0.00  0.00    -0.268 OA
ATOM     24  N   UNL     1       1.432  -9.569   0.229  0.00  0.00    -0.322 N 
ATOM     25  H   UNL     1       1.114 -10.622   0.238  0.00  0.00    +0.169 HD
ATOM     26  C   UNL     1       2.781  -9.285   0.228  0.00  0.00    +0.050 A 
ATOM     27  C   UNL     1       3.224  -7.950   0.216  0.00  0.00    +0.012 A 
ATOM     28  C   UNL     1       4.594  -7.672   0.217  0.00  0.00    +0.011 A 
ATOM     29  C   UNL     1       5.496  -8.698   0.230  0.00  0.00    +0.001 A 
ATOM     30  C   UNL     1       5.063 -10.017   0.242  0.00  0.00    +0.002 A 
ATOM     31  C   UNL     1       3.718 -10.315   0.241  0.00  0.00    +0.026 A 
ENDBRANCH  18  20
ENDBRANCH  17  18
ENDBRANCH   1  17
TORSDOF 4
