REMARK  Name = ZINC00805199
REMARK  5 active torsions:
REMARK  status: ('A' for Active; 'I' for Inactive)
REMARK    1  A    between atoms: C_4  and  C_7
REMARK    2  A    between atoms: N_11  and  N_12
REMARK    3  A    between atoms: C_13  and  C_14
REMARK    4  A    between atoms: C_17  and  O_22
REMARK    5  A    between atoms: C_18  and  O_21
REMARK                            x       y       z     vdW  Elec       q    Type
REMARK                         _______ _______ _______ _____ _____    ______ ____
ROOT
ATOM      1  N   UNL     1       2.800  -2.968   0.185  0.00  0.00    -0.170 NA
ATOM      2  C   UNL     1       2.670  -3.644   1.287  0.00  0.00    +0.142 C 
ENDROOT
BRANCH   2   3
ATOM      3  C   UNL     1       1.660  -4.713   1.380  0.00  0.00    +0.014 A 
ATOM      4  C   UNL     1       1.552  -5.475   2.546  0.00  0.00    +0.029 A 
ATOM      5  C   UNL     1       0.606  -6.475   2.631  0.00  0.00    +0.064 A 
ATOM      6  C   UNL     1      -0.240  -6.728   1.560  0.00  0.00    +0.174 A 
ATOM      7  C   UNL     1      -0.138  -5.973   0.395  0.00  0.00    +0.174 A 
ATOM      8  C   UNL     1       0.804  -4.964   0.303  0.00  0.00    +0.072 A 
ATOM      9 BR   UNL     1       0.938  -3.933  -1.276  0.00  0.00    -0.046 Br
ATOM     10 BR   UNL     1       0.462  -7.505   4.211  0.00  0.00    -0.046 Br
BRANCH   7  11
ATOM     11  O   UNL     1      -0.969  -6.224  -0.653  0.00  0.00    -0.503 OA
ATOM     12  H   UNL     1      -1.793  -5.717  -0.631  0.00  0.00    +0.292 HD
ENDBRANCH   7  11
BRANCH   6  13
ATOM     13  O   UNL     1      -1.171  -7.715   1.650  0.00  0.00    -0.503 OA
ATOM     14  H   UNL     1      -2.023  -7.421   2.000  0.00  0.00    +0.292 HD
ENDBRANCH   6  13
ENDBRANCH   2   3
BRANCH   1  19
ATOM     15  C   UNL     1       3.684  -0.666  -0.062  0.00  0.00    +0.184 A 
ATOM     16  N   UNL     1       4.867  -0.125  -0.159  0.00  0.00    -0.152 NA
ATOM     17  N   UNL     1       5.819  -1.151  -0.110  0.00  0.00    -0.253 N 
ATOM     18  C   UNL     1       5.154  -2.317   0.019  0.00  0.00    +0.197 A 
ATOM     19  N   UNL     1       3.837  -2.035   0.055  0.00  0.00    -0.188 N 
ATOM     20  S   UNL     1       5.856  -3.875   0.124  0.00  0.00    -0.010 S 
ATOM     21  H   UNL     1       6.782  -1.043  -0.160  0.00  0.00    +0.191 HD
BRANCH  15  25
ATOM     22  C   UNL     1      -0.014   1.426  -0.088  0.00  0.00    +0.000 A 
ATOM     23  C   UNL     1       1.177   2.131  -0.107  0.00  0.00    +0.001 A 
ATOM     24  C   UNL     1       2.381   1.457  -0.099  0.00  0.00    +0.011 A 
ATOM     25  C   UNL     1       2.396   0.062  -0.071  0.00  0.00    +0.021 A 
ATOM     26  C   UNL     1       1.193  -0.642  -0.051  0.00  0.00    +0.011 A 
ATOM     27  C   UNL     1      -0.005   0.043  -0.060  0.00  0.00    +0.001 A 
ENDBRANCH  15  25
ENDBRANCH   1  19
TORSDOF 5
