REMARK  Name = ZINC23251272
REMARK  8 active torsions:
REMARK  status: ('A' for Active; 'I' for Inactive)
REMARK    1  A    between atoms: C_1  and  C_2
REMARK    2  A    between atoms: C_2  and  N_3
REMARK    3  A    between atoms: C_11  and  C_12
REMARK    4  A    between atoms: C_12  and  N_13
REMARK    5  A    between atoms: C_16  and  N_19
REMARK    6  A    between atoms: C_21  and  C_24
REMARK    7  A    between atoms: C_24  and  C_26
REMARK    8  A    between atoms: C_24  and  O_27
REMARK                            x       y       z     vdW  Elec       q    Type
REMARK                         _______ _______ _______ _____ _____    ______ ____
ROOT
ATOM      1  N   UNL     1       0.826   4.137   3.398  0.00  0.00    +0.384 N 
ATOM      2  C   UNL     1       0.635   3.818   4.819  0.00  0.00    -0.076 C 
ATOM      3  C   UNL     1      -0.259   4.879   5.465  0.00  0.00    +0.008 C 
ATOM      4  C   UNL     1       0.400   6.254   5.315  0.00  0.00    +0.105 C 
ATOM      5  C   UNL     1       0.632   6.540   3.829  0.00  0.00    +0.008 C 
ATOM      6  C   UNL     1       1.500   5.431   3.230  0.00  0.00    -0.076 C 
ATOM      7  H   UNL     1      -0.168   4.214   2.934  0.00  0.00    -0.081 HD
ENDROOT
BRANCH   4   8
ATOM      8  N   UNL     1      -0.477   7.282   5.881  0.00  0.00    -0.248 N 
ATOM      9  C   UNL     1      -1.830   7.276   5.848  0.00  0.00    +0.136 A 
ATOM     10  C   UNL     1      -2.227   8.405   6.481  0.00  0.00    +0.111 A 
ATOM     11  N   UNL     1      -1.113   9.037   6.865  0.00  0.00    -0.132 NA
ATOM     12  N   UNL     1      -0.093   8.344   6.499  0.00  0.00    -0.065 NA
BRANCH  10  13
ATOM     13  C   UNL     1      -3.646   8.859   6.708  0.00  0.00    +0.163 C 
ATOM     14  C   UNL     1      -3.871   9.104   8.201  0.00  0.00    +0.044 C 
BRANCH  13  15
ATOM     15  O   UNL     1      -4.549   7.850   6.250  0.00  0.00    -0.386 OA
ATOM     16  H   UNL     1      -5.635   8.005   6.333  0.00  0.00    +0.210 HD
ENDBRANCH  13  15
ENDBRANCH  10  13
ENDBRANCH   4   8
BRANCH   1  17
ATOM     17  C   UNL     1       1.564   3.067   2.713  0.00  0.00    -0.003 C 
BRANCH  17  26
ATOM     18  N   UNL     1      -0.020   1.094   2.454  0.00  0.00    -0.329 N 
ATOM     19  C   UNL     1      -0.258  -0.091   3.121  0.00  0.00    +0.069 A 
ATOM     20  C   UNL     1      -1.149  -1.140   2.941  0.00  0.00    +0.028 A 
ATOM     21  C   UNL     1      -1.129  -2.210   3.811  0.00  0.00    +0.002 A 
ATOM     22  C   UNL     1      -0.225  -2.244   4.863  0.00  0.00    +0.002 A 
ATOM     23  C   UNL     1       0.665  -1.225   5.050  0.00  0.00    +0.030 A 
ATOM     24  C   UNL     1       0.659  -0.128   4.185  0.00  0.00    +0.089 A 
ATOM     25  N   UNL     1       1.388   1.016   4.118  0.00  0.00    -0.234 NA
ATOM     26  C   UNL     1       0.990   1.730   3.106  0.00  0.00    +0.094 A 
BRANCH  18  28
ATOM     27  C   UNL     1      -0.013   1.086   0.008  0.00  0.00    +0.027 C 
ATOM     28  C   UNL     1      -0.729   1.579   1.267  0.00  0.00    +0.120 C 
ENDBRANCH  18  28
ENDBRANCH  17  26
ENDBRANCH   1  17
TORSDOF 6
