REMARK  Name = ZINC38189582
REMARK  4 active torsions:
REMARK  status: ('A' for Active; 'I' for Inactive)
REMARK    1  A    between atoms: C_1  and  C_2
REMARK    2  A    between atoms: C_5  and  C_8
REMARK    3  A    between atoms: C_21  and  C_23
REMARK    4  A    between atoms: C_26  and  C_29
REMARK                            x       y       z     vdW  Elec       q    Type
REMARK                         _______ _______ _______ _____ _____    ______ ____
ROOT
ATOM      1  C   UNL     1       0.058  -4.245  -0.021  0.00  0.00    +0.013 C 
ATOM      2  C   UNL     1       0.162  -4.882   1.167  0.00  0.00    -0.027 C 
ATOM      3  C   UNL     1       0.292  -6.369   1.156  0.00  0.00    +0.037 C 
ATOM      4  C   UNL     1       0.337  -6.967   2.553  0.00  0.00    +0.005 C 
ATOM      5  C   UNL     1       1.099  -6.055   3.511  0.00  0.00    +0.012 C 
ATOM      6  C   UNL     1       0.319  -4.749   3.686  0.00  0.00    +0.065 C 
ATOM      7  C   UNL     1       0.146  -4.101   2.338  0.00  0.00    +0.028 C 
ATOM      8  N   UNL     1      -0.069  -2.805   2.226  0.00  0.00    -0.327 N 
ATOM      9  C   UNL     1       0.009  -2.025   3.332  0.00  0.00    +0.227 A 
ATOM     10  N   UNL     1      -0.370  -0.785   3.532  0.00  0.00    -0.199 NA
ATOM     11  C   UNL     1      -0.099  -0.430   4.788  0.00  0.00    +0.247 A 
ATOM     12  N   UNL     1       0.462  -1.437   5.417  0.00  0.00    -0.156 NA
ATOM     13  N   UNL     1       0.551  -2.481   4.503  0.00  0.00    -0.223 N 
ATOM     14  C   UNL     1       1.082  -3.829   4.645  0.00  0.00    +0.150 C 
ATOM     15  H   UNL     1      -0.280  -2.415   1.364  0.00  0.00    +0.169 HD
ENDROOT
BRANCH   1  20
ATOM     16  C   UNL     1      -3.509   0.228  -0.584  0.00  0.00    +0.044 C 
ATOM     17  C   UNL     1      -2.573  -0.945  -0.436  0.00  0.00    -0.050 A 
ATOM     18  C   UNL     1      -1.369  -0.955  -1.119  0.00  0.00    +0.004 A 
ATOM     19  C   UNL     1      -0.508  -2.024  -0.990  0.00  0.00    +0.008 A 
ATOM     20  C   UNL     1      -0.854  -3.100  -0.165  0.00  0.00    -0.025 A 
ATOM     21  C   UNL     1      -2.073  -3.082   0.522  0.00  0.00    +0.008 A 
ATOM     22  C   UNL     1      -2.921  -2.003   0.386  0.00  0.00    +0.004 A 
ENDBRANCH   1  20
BRANCH  14  23
ATOM     23  C   UNL     1       2.547  -3.824   4.290  0.00  0.00    -0.022 A 
ATOM     24  C   UNL     1       2.953  -3.398   3.040  0.00  0.00    +0.006 A 
ATOM     25  C   UNL     1       4.297  -3.393   2.714  0.00  0.00    +0.004 A 
ATOM     26  C   UNL     1       5.234  -3.814   3.639  0.00  0.00    -0.050 A 
ATOM     27  C   UNL     1       4.827  -4.240   4.890  0.00  0.00    +0.004 A 
ATOM     28  C   UNL     1       3.484  -4.240   5.217  0.00  0.00    +0.006 A 
ATOM     29  C   UNL     1       6.698  -3.810   3.284  0.00  0.00    +0.044 C 
ENDBRANCH  14  23
TORSDOF 2
