REMARK  Name = ZINC25162518
REMARK  8 active torsions:
REMARK  status: ('A' for Active; 'I' for Inactive)
REMARK    1  A    between atoms: C_1  and  C_2
REMARK    2  A    between atoms: C_4  and  C_14
REMARK    3  A    between atoms: N_16  and  C_17
REMARK    4  A    between atoms: C_19  and  C_30
REMARK    5  A    between atoms: N_21  and  C_22
REMARK    6  A    between atoms: C_30  and  C_31
REMARK    7  A    between atoms: C_30  and  C_32
REMARK    8  A    between atoms: C_30  and  C_33
REMARK                            x       y       z     vdW  Elec       q    Type
REMARK                         _______ _______ _______ _____ _____    ______ ____
ROOT
ATOM      1  C   UNL     1       1.119   1.666  -0.067  0.00  0.00    +0.124 A 
ATOM      2  C   UNL     1       1.256   3.006  -0.267  0.00  0.00    +0.069 A 
ATOM      3  C   UNL     1       2.622   3.299  -0.282  0.00  0.00    +0.070 A 
ATOM      4  N   UNL     1       3.284   2.184  -0.106  0.00  0.00    -0.174 NA
ATOM      5  N   UNL     1       2.361   1.139   0.032  0.00  0.00    -0.246 N 
ENDROOT
BRANCH   5   6
ATOM      6  C   UNL     1       2.683  -0.274   0.246  0.00  0.00    +0.132 C 
ATOM      7  C   UNL     1       3.481  -0.424   1.551  0.00  0.00    +0.051 C 
ATOM      8  C   UNL     1       4.074  -1.861   1.594  0.00  0.00    +0.168 C 
ATOM      9  S   UNL     1       4.598  -2.062  -0.161  0.00  0.00    -0.029 S 
ATOM     10  O   UNL     1       5.954  -1.658  -0.288  0.00  0.00    -0.174 OA
ATOM     11  O   UNL     1       4.206  -3.350  -0.616  0.00  0.00    -0.174 OA
ATOM     12  C   UNL     1       3.520  -0.795  -0.947  0.00  0.00    +0.192 C 
ENDBRANCH   5   6
BRANCH   1  15
ATOM     13  C   UNL     1      -1.255   1.618  -0.107  0.00  0.00    +0.263 C 
ATOM     14  O   UNL     1      -1.269   2.828  -0.192  0.00  0.00    -0.271 OA
ATOM     15  N   UNL     1      -0.083   0.964   0.015  0.00  0.00    -0.267 N 
ATOM     16  H   UNL     1      -0.075  -0.124   0.180  0.00  0.00    +0.156 HD
BRANCH  13  19
ATOM     17  C   UNL     1      -3.668   2.603   1.255  0.00  0.00    +0.056 C 
ATOM     18  C   UNL     1      -3.342   1.112   1.149  0.00  0.00    +0.220 C 
ATOM     19  C   UNL     1      -2.549   0.846  -0.138  0.00  0.00    +0.299 C 
ATOM     20  O   UNL     1      -2.273  -0.557  -0.212  0.00  0.00    -0.472 OA
ATOM     21  C   UNL     1      -3.310  -1.399   0.048  0.00  0.00    +0.163 A 
ATOM     22  C   UNL     1      -3.224  -2.727  -0.346  0.00  0.00    +0.049 A 
ATOM     23  C   UNL     1      -4.268  -3.594  -0.087  0.00  0.00    +0.004 A 
ATOM     24  C   UNL     1      -5.400  -3.143   0.565  0.00  0.00    +0.004 A 
ATOM     25  C   UNL     1      -5.492  -1.821   0.960  0.00  0.00    +0.049 A 
ATOM     26  C   UNL     1      -4.449  -0.945   0.702  0.00  0.00    +0.163 A 
ATOM     27  O   UNL     1      -4.556   0.355   1.093  0.00  0.00    -0.481 OA
ENDBRANCH  13  19
ENDBRANCH   1  15
BRANCH   3  28
ATOM     28  C   UNL     1       3.229   4.665  -0.472  0.00  0.00    +0.006 C 
ATOM     29  C   UNL     1       3.070   5.478   0.814  0.00  0.00    +0.017 C 
ATOM     30  C   UNL     1       4.716   4.520  -0.803  0.00  0.00    +0.017 C 
ATOM     31  C   UNL     1       2.519   5.383  -1.621  0.00  0.00    +0.017 C 
ENDBRANCH   3  28
TORSDOF 4
