REMARK  Name = ZINC06655381
REMARK  9 active torsions:
REMARK  status: ('A' for Active; 'I' for Inactive)
REMARK    1  A    between atoms: C_1  and  C_2
REMARK    2  A    between atoms: C_2  and  O_3
REMARK    3  A    between atoms: O_3  and  C_4
REMARK    4  A    between atoms: C_4  and  C_6
REMARK    5  A    between atoms: C_7  and  C_30
REMARK    6  A    between atoms: C_14  and  C_16
REMARK    7  A    between atoms: C_20  and  O_22
REMARK    8  A    between atoms: O_22  and  C_23
REMARK    9  A    between atoms: C_23  and  C_24
REMARK                            x       y       z     vdW  Elec       q    Type
REMARK                         _______ _______ _______ _____ _____    ______ ____
ROOT
ATOM      1  C   UNL     1       1.651  -2.380   2.322  0.00  0.00    +0.082 C 
ATOM      2  C   UNL     1       1.478  -3.684   2.590  0.00  0.00    +0.020 C 
ATOM      3  N   UNL     1       1.931  -4.261   3.750  0.00  0.00    -0.286 N 
ATOM      4  C   UNL     1       2.802  -3.519   4.534  0.00  0.00    +0.240 A 
ATOM      5  N   UNL     1       3.546  -3.865   5.546  0.00  0.00    -0.092 NA
ATOM      6  N   UNL     1       4.212  -2.849   5.979  0.00  0.00    -0.021 NA
ATOM      7  N   UNL     1       3.937  -1.797   5.277  0.00  0.00    -0.042 NA
ATOM      8  N   UNL     1       3.009  -2.194   4.316  0.00  0.00    -0.201 N 
ATOM      9  C   UNL     1       2.348  -1.433   3.264  0.00  0.00    +0.181 C 
ATOM     10  C   UNL     1       0.760  -4.544   1.582  0.00  0.00    +0.061 C 
ATOM     11  H   UNL     1       1.653  -5.153   4.012  0.00  0.00    +0.155 HD
ENDROOT
BRANCH   9  12
ATOM     12  C   UNL     1       1.336  -0.504   3.882  0.00  0.00    -0.015 A 
ATOM     13  C   UNL     1       0.298  -1.018   4.639  0.00  0.00    +0.006 A 
ATOM     14  C   UNL     1      -0.632  -0.168   5.208  0.00  0.00    +0.004 A 
ATOM     15  C   UNL     1      -0.528   1.197   5.021  0.00  0.00    +0.045 A 
ATOM     16  C   UNL     1       0.511   1.715   4.262  0.00  0.00    +0.121 A 
ATOM     17  C   UNL     1       1.448   0.860   3.697  0.00  0.00    +0.051 A 
BRANCH  16  18
ATOM     18  O   UNL     1       0.616   3.057   4.077  0.00  0.00    -0.487 OA
BRANCH  18  19
ATOM     19  C   UNL     1      -0.380   3.876   4.693  0.00  0.00    +0.264 C 
BRANCH  19  20
ATOM     20  C   UNL     1      -0.102   5.324   4.380  0.00  0.00    -0.010 A 
ATOM     21  C   UNL     1       0.706   6.070   5.217  0.00  0.00    +0.007 A 
ATOM     22  C   UNL     1       0.960   7.398   4.930  0.00  0.00    +0.000 A 
ATOM     23  C   UNL     1       0.406   7.980   3.805  0.00  0.00    +0.000 A 
ATOM     24  C   UNL     1      -0.402   7.234   2.968  0.00  0.00    +0.000 A 
ATOM     25  C   UNL     1      -0.652   5.905   3.252  0.00  0.00    +0.007 A 
ENDBRANCH  19  20
ENDBRANCH  18  19
ENDBRANCH  16  18
ENDBRANCH   9  12
BRANCH   1  26
ATOM     26  C   UNL     1       1.163  -1.874   1.098  0.00  0.00    +0.339 C 
ATOM     27  O   UNL     1       1.920  -1.719   0.158  0.00  0.00    -0.245 OA
BRANCH  26  28
ATOM     28  O   UNL     1      -0.144  -1.562   0.970  0.00  0.00    -0.462 OA
BRANCH  28  30
ATOM     29  C   UNL     1      -2.070  -0.760  -0.251  0.00  0.00    +0.048 C 
ATOM     30  C   UNL     1      -0.569  -1.055  -0.297  0.00  0.00    +0.229 C 
ENDBRANCH  28  30
ENDBRANCH  26  28
ENDBRANCH   1  26
TORSDOF 7
