REMARK  Name = ZINC01725501
REMARK  2 active torsions:
REMARK  status: ('A' for Active; 'I' for Inactive)
REMARK    1  A    between atoms: C_2  and  C_3
REMARK    2  A    between atoms: C_5  and  C_17
REMARK                            x       y       z     vdW  Elec       q    Type
REMARK                         _______ _______ _______ _____ _____    ______ ____
ROOT
ATOM      1  C   UNL     1       1.077   2.122   0.294  0.00  0.00    +0.183 C 
ATOM      2  C   UNL     1       2.115   1.491   1.236  0.00  0.00    +0.129 C 
ATOM      3  N   UNL     1       1.536   1.390   2.572  0.00  0.00    -0.333 N 
ATOM      4  C   UNL     1       1.003   2.477   3.260  0.00  0.00    +0.053 A 
ATOM      5  C   UNL     1       0.874   2.378   4.646  0.00  0.00    +0.025 A 
ATOM      6  C   UNL     1       0.342   3.423   5.372  0.00  0.00    +0.002 A 
ATOM      7  C   UNL     1      -0.067   4.577   4.729  0.00  0.00    +0.002 A 
ATOM      8  C   UNL     1       0.062   4.683   3.357  0.00  0.00    +0.029 A 
ATOM      9  C   UNL     1       0.599   3.640   2.625  0.00  0.00    +0.110 A 
ATOM     10  S   UNL     1       0.771   3.818   0.876  0.00  0.00    +0.007 S 
ATOM     11  O   UNL     1       1.935   4.615   0.703  0.00  0.00    -0.169 OA
ATOM     12  O   UNL     1      -0.498   4.271   0.427  0.00  0.00    -0.169 OA
ATOM     13  H   UNL     1       1.523   0.521   3.003  0.00  0.00    +0.147 HD
ENDROOT
BRANCH   2  14
ATOM     14  C   UNL     1       3.346   2.358   1.284  0.00  0.00    -0.025 A 
ATOM     15  C   UNL     1       4.208   2.393   0.203  0.00  0.00    +0.007 A 
ATOM     16  C   UNL     1       5.335   3.192   0.244  0.00  0.00    +0.020 A 
ATOM     17  C   UNL     1       5.607   3.949   1.370  0.00  0.00    +0.041 A 
ATOM     18  C   UNL     1       4.747   3.909   2.453  0.00  0.00    +0.020 A 
ATOM     19  C   UNL     1       3.617   3.113   2.409  0.00  0.00    +0.007 A 
ATOM     20 CL   UNL     1       7.025   4.948   1.425  0.00  0.00    -0.084 Cl
ENDBRANCH   2  14
BRANCH   1  22
ATOM     21  C   UNL     1      -0.708   0.838  -0.769  0.00  0.00    +0.006 C 
ATOM     22  C   UNL     1      -0.203   1.327   0.337  0.00  0.00    -0.006 C 
ENDBRANCH   1  22
TORSDOF 2
