REMARK  Name = ZINC23076165
REMARK  7 active torsions:
REMARK  status: ('A' for Active; 'I' for Inactive)
REMARK    1  A    between atoms: C_1  and  N_2
REMARK    2  A    between atoms: N_2  and  C_3
REMARK    3  A    between atoms: C_6  and  C_11
REMARK    4  A    between atoms: C_11  and  O_12
REMARK    5  A    between atoms: O_12  and  C_13
REMARK    6  A    between atoms: C_13  and  C_15
REMARK    7  A    between atoms: C_20  and  N_21
REMARK                            x       y       z     vdW  Elec       q    Type
REMARK                         _______ _______ _______ _____ _____    ______ ____
ROOT
ATOM      1  C   UNL     1       1.192   3.136  -0.070  0.00  0.00    +0.080 A 
ATOM      2  C   UNL     1       1.158   1.745   0.021  0.00  0.00    +0.017 A 
ATOM      3  C   UNL     1      -0.051   1.079   0.106  0.00  0.00    +0.013 A 
ATOM      4  C   UNL     1      -1.248   1.788   0.096  0.00  0.00    +0.035 A 
ATOM      5  C   UNL     1      -1.233   3.192   0.011  0.00  0.00    +0.054 A 
ATOM      6  C   UNL     1      -0.009   3.869  -0.075  0.00  0.00    +0.050 A 
ATOM      7  C   UNL     1      -2.498   3.946   0.005  0.00  0.00    +0.196 C 
ATOM      8  O   UNL     1      -2.482   5.159  -0.074  0.00  0.00    -0.287 OA
ATOM      9  C   UNL     1      -3.787   3.227   0.080  0.00  0.00    +0.033 A 
ATOM     10  C   UNL     1      -4.986   3.934   0.071  0.00  0.00    +0.012 A 
ATOM     11  C   UNL     1      -6.189   3.254   0.152  0.00  0.00    +0.001 A 
ATOM     12  C   UNL     1      -6.208   1.874   0.241  0.00  0.00    +0.001 A 
ATOM     13  C   UNL     1      -5.026   1.155   0.251  0.00  0.00    +0.012 A 
ATOM     14  C   UNL     1      -3.807   1.824   0.171  0.00  0.00    +0.033 A 
ATOM     15  C   UNL     1      -2.539   1.067   0.181  0.00  0.00    +0.195 C 
ATOM     16  O   UNL     1      -2.554  -0.145   0.260  0.00  0.00    -0.287 OA
ENDROOT
BRANCH   6  17
ATOM     17  N   UNL     1       0.018   5.246  -0.166  0.00  0.00    -0.357 N 
ATOM     18  H   UNL     1      -0.923   5.815  -0.170  0.00  0.00    +0.142 HD
ATOM     19  H   UNL     1       0.981   5.774  -0.233  0.00  0.00    +0.142 HD
ENDBRANCH   6  17
BRANCH   1  20
ATOM     20  C   UNL     1       2.486   3.838  -0.160  0.00  0.00    +0.341 C 
ATOM     21  O   UNL     1       2.515   5.050  -0.247  0.00  0.00    -0.245 OA
BRANCH  20  22
ATOM     22  O   UNL     1       3.636   3.136  -0.144  0.00  0.00    -0.453 OA
BRANCH  22  23
ATOM     23  C   UNL     1       4.872   3.893  -0.236  0.00  0.00    +0.308 C 
BRANCH  23  29
ATOM     24  C   UNL     1       9.339   0.514   2.227  0.00  0.00    +0.132 C 
ATOM     25  N   UNL     1       8.199   1.433   2.192  0.00  0.00    -0.306 N 
ATOM     26  C   UNL     1       7.665   1.986   3.440  0.00  0.00    +0.132 C 
ATOM     27  C   UNL     1       7.628   1.779   0.984  0.00  0.00    +0.222 A 
ATOM     28  N   UNL     1       6.595   2.618   0.952  0.00  0.00    -0.196 NA
ATOM     29  C   UNL     1       6.044   2.946  -0.204  0.00  0.00    +0.173 A 
ATOM     30  N   UNL     1       6.522   2.450  -1.332  0.00  0.00    -0.196 NA
ATOM     31  C   UNL     1       7.557   1.615  -1.308  0.00  0.00    +0.217 A 
ATOM     32  N   UNL     1       8.111   1.279  -0.147  0.00  0.00    -0.181 NA
ATOM     33  N   UNL     1       8.055   1.097  -2.486  0.00  0.00    -0.327 N 
ATOM     34  H   UNL     1       8.911   0.406  -2.465  0.00  0.00    +0.145 HD
ATOM     35  H   UNL     1       7.597   1.376  -3.446  0.00  0.00    +0.145 HD
ENDBRANCH  23  29
ENDBRANCH  22  23
ENDBRANCH  20  22
ENDBRANCH   1  20
TORSDOF 5
