REMARK  Name = ZINC13259687
REMARK  5 active torsions:
REMARK  status: ('A' for Active; 'I' for Inactive)
REMARK    1  A    between atoms: C_3  and  N_9
REMARK    2  A    between atoms: C_6  and  C_7
REMARK    3  A    between atoms: C_10  and  C_12
REMARK    4  A    between atoms: N_17  and  S_18
REMARK    5  A    between atoms: S_18  and  C_21
REMARK                            x       y       z     vdW  Elec       q    Type
REMARK                         _______ _______ _______ _____ _____    ______ ____
ROOT
ATOM      1  C   UNL     1      -1.439   1.647  -0.331  0.00  0.00    +0.166 C 
ATOM      2  C   UNL     1      -1.533   2.463   0.975  0.00  0.00    +0.031 C 
ATOM      3  C   UNL     1      -3.003   2.229   1.423  0.00  0.00    +0.019 C 
ATOM      4  C   UNL     1      -3.236   0.763   0.978  0.00  0.00    +0.110 C 
ATOM      5  N   UNL     1      -2.504   0.634  -0.295  0.00  0.00    -0.165 NA
ENDROOT
BRANCH   1   7
ATOM      6  N   UNL     1       0.941   1.605  -1.006  0.00  0.00    -0.284 N 
ATOM      7  C   UNL     1      -0.093   0.973  -0.418  0.00  0.00    +0.236 C 
ATOM      8  O   UNL     1       0.057  -0.141   0.037  0.00  0.00    -0.274 OA
ATOM      9  H   UNL     1       0.803   2.466  -1.433  0.00  0.00    +0.155 HD
BRANCH   6  12
ATOM     10  C   UNL     1       4.319   0.652  -2.076  0.00  0.00    +0.017 A 
ATOM     11  C   UNL     1       3.067   1.225  -2.077  0.00  0.00    +0.024 A 
ATOM     12  C   UNL     1       2.208   1.024  -1.002  0.00  0.00    +0.033 A 
ATOM     13  C   UNL     1       2.611   0.248   0.080  0.00  0.00    +0.024 A 
ATOM     14  C   UNL     1       3.860  -0.332   0.086  0.00  0.00    +0.017 A 
ATOM     15  C   UNL     1       4.726  -0.132  -0.993  0.00  0.00    +0.063 A 
BRANCH  15  16
ATOM     16  C   UNL     1       6.066  -0.747  -0.988  0.00  0.00    +0.387 C 
ATOM     17  O   UNL     1       6.818  -0.573  -1.927  0.00  0.00    -0.241 OA
ATOM     18  O   UNL     1       6.457  -1.503   0.057  0.00  0.00    -0.241 OA
ENDBRANCH  15  16
ENDBRANCH   6  12
ENDBRANCH   1   7
BRANCH   5  19
ATOM     19  S   UNL     1      -2.827  -0.470  -1.487  0.00  0.00    +0.062 S 
ATOM     20  O   UNL     1      -1.645  -0.584  -2.266  0.00  0.00    -0.153 OA
ATOM     21  O   UNL     1      -3.432  -1.588  -0.852  0.00  0.00    -0.153 OA
BRANCH  19  22
ATOM     22  C   UNL     1      -4.054   0.239  -2.534  0.00  0.00    +0.106 A 
ATOM     23  C   UNL     1      -5.394   0.076  -2.237  0.00  0.00    +0.030 A 
ATOM     24  C   UNL     1      -6.357   0.636  -3.055  0.00  0.00    +0.022 A 
ATOM     25  C   UNL     1      -5.980   1.351  -4.178  0.00  0.00    +0.041 A 
ATOM     26  C   UNL     1      -4.638   1.510  -4.478  0.00  0.00    +0.022 A 
ATOM     27  C   UNL     1      -3.676   0.953  -3.656  0.00  0.00    +0.030 A 
ATOM     28 CL   UNL     1      -7.189   2.050  -5.209  0.00  0.00    -0.084 Cl
ENDBRANCH  19  22
ENDBRANCH   5  19
TORSDOF 5
