REMARK  Name = ZINC42630402
REMARK  5 active torsions:
REMARK  status: ('A' for Active; 'I' for Inactive)
REMARK    1  A    between atoms: C_3  and  O_12
REMARK    2  A    between atoms: O_12  and  C_13
REMARK    3  A    between atoms: C_13  and  C_14
REMARK    4  A    between atoms: N_19  and  C_22
REMARK    5  A    between atoms: C_25  and  O_28
REMARK                            x       y       z     vdW  Elec       q    Type
REMARK                         _______ _______ _______ _____ _____    ______ ____
ROOT
ATOM      1  C   UNL     1       4.793   4.153  -0.023  0.00  0.00    +0.253 C 
ATOM      2  O   UNL     1       5.771   3.436  -0.051  0.00  0.00    -0.272 OA
ATOM      3  N   UNL     1       4.940   5.492  -0.017  0.00  0.00    -0.296 N 
ATOM      4  C   UNL     1       3.764   6.373   0.023  0.00  0.00    +0.127 C 
ATOM      5  C   UNL     1       3.903   7.322   1.220  0.00  0.00    +0.124 C 
ATOM      6  N   UNL     1       5.242   7.928   1.186  0.00  0.00    -0.327 N 
ATOM      7  C   UNL     1       6.417   7.046   1.146  0.00  0.00    +0.124 C 
ATOM      8  C   UNL     1       6.279   6.098  -0.045  0.00  0.00    +0.127 C 
ENDROOT
BRANCH   6   9
ATOM      9  C   UNL     1       5.394   9.319   1.192  0.00  0.00    +0.030 A 
ATOM     10  C   UNL     1       6.662   9.878   1.276  0.00  0.00    +0.027 A 
ATOM     11  C   UNL     1       6.812  11.251   1.281  0.00  0.00    +0.047 A 
ATOM     12  C   UNL     1       5.696  12.071   1.202  0.00  0.00    +0.117 A 
ATOM     13  C   UNL     1       4.429  11.513   1.118  0.00  0.00    +0.047 A 
ATOM     14  C   UNL     1       4.278  10.140   1.107  0.00  0.00    +0.027 A 
BRANCH  12  15
ATOM     15  O   UNL     1       5.844  13.423   1.207  0.00  0.00    -0.507 OA
ATOM     16  H   UNL     1       5.947  13.811   0.327  0.00  0.00    +0.292 HD
ENDBRANCH  12  15
ENDBRANCH   6   9
BRANCH   1  17
ATOM     17  C   UNL     1       3.414   3.546   0.006  0.00  0.00    +0.324 C 
BRANCH  17  18
ATOM     18  O   UNL     1       3.520   2.121  -0.006  0.00  0.00    -0.483 OA
BRANCH  18  21
ATOM     19  C   UNL     1      -0.033   1.397   0.074  0.00  0.00    +0.015 A 
ATOM     20  C   UNL     1       1.142   2.091   0.051  0.00  0.00    +0.046 A 
ATOM     21  C   UNL     1       2.361   1.416   0.018  0.00  0.00    +0.125 A 
ATOM     22  C   UNL     1       2.398   0.031   0.007  0.00  0.00    +0.092 A 
ATOM     23  C   UNL     1       1.214  -0.690   0.030  0.00  0.00    +0.143 A 
ATOM     24  C   UNL     1      -0.014  -0.003   0.064  0.00  0.00    +0.018 A 
ATOM     25  C   UNL     1      -1.258  -0.774   0.088  0.00  0.00    +0.018 A 
ATOM     26  C   UNL     1      -1.174  -2.130   0.076  0.00  0.00    +0.092 A 
ATOM     27  C   UNL     1       0.091  -2.753   0.042  0.00  0.00    +0.337 A 
ATOM     28  O   UNL     1       0.152  -3.969   0.031  0.00  0.00    -0.245 OA
ATOM     29  O   UNL     1       1.228  -2.041   0.020  0.00  0.00    -0.422 OA
ENDBRANCH  18  21
ENDBRANCH  17  18
ENDBRANCH   1  17
TORSDOF 5
