REMARK  Name = ZINC30593359
REMARK  5 active torsions:
REMARK  status: ('A' for Active; 'I' for Inactive)
REMARK    1  A    between atoms: C_7  and  N_28
REMARK    2  A    between atoms: C_9  and  C_11
REMARK    3  A    between atoms: C_11  and  N_12
REMARK    4  A    between atoms: N_15  and  S_18
REMARK    5  A    between atoms: S_18  and  C_21
REMARK                            x       y       z     vdW  Elec       q    Type
REMARK                         _______ _______ _______ _____ _____    ______ ____
ROOT
ATOM      1  N   UNL     1      -0.701   1.560   1.216  0.00  0.00    -0.293 NA
ATOM      2  C   UNL     1      -0.013   1.086   0.008  0.00  0.00    +0.102 C 
ATOM      3  C   UNL     1      -0.755   1.594  -1.233  0.00  0.00    +0.125 C 
ATOM      4  N   UNL     1      -0.893   3.055  -1.129  0.00  0.00    -0.174 NA
ATOM      5  C   UNL     1      -1.450   3.614   0.112  0.00  0.00    +0.125 C 
ATOM      6  C   UNL     1      -0.681   3.026   1.300  0.00  0.00    +0.102 C 
ENDROOT
BRANCH   4   7
ATOM      7  S   UNL     1      -0.434   4.043  -2.376  0.00  0.00    +0.064 S 
ATOM      8  O   UNL     1      -0.158   5.314  -1.806  0.00  0.00    -0.153 OA
ATOM      9  O   UNL     1       0.528   3.321  -3.132  0.00  0.00    -0.153 OA
BRANCH   7  10
ATOM     10  C   UNL     1      -1.840   4.253  -3.418  0.00  0.00    +0.140 A 
ATOM     11  C   UNL     1      -2.421   5.500  -3.551  0.00  0.00    +0.031 A 
ATOM     12  C   UNL     1      -3.520   5.666  -4.373  0.00  0.00    +0.002 A 
ATOM     13  C   UNL     1      -4.045   4.584  -5.054  0.00  0.00    +0.003 A 
ATOM     14  C   UNL     1      -3.469   3.335  -4.918  0.00  0.00    +0.040 A 
ATOM     15  C   UNL     1      -2.365   3.168  -4.100  0.00  0.00    +0.150 A 
ATOM     16  F   UNL     1      -1.800   1.948  -3.966  0.00  0.00    -0.203 F 
ENDBRANCH   7  10
ENDBRANCH   4   7
BRANCH   1  17
ATOM     17  C   UNL     1      -0.123   0.955   2.423  0.00  0.00    +0.160 C 
BRANCH  17  26
ATOM     18  C   UNL     1      -3.333   3.002   7.520  0.00  0.00    +0.001 A 
ATOM     19  C   UNL     1      -3.971   1.889   6.980  0.00  0.00    +0.002 A 
ATOM     20  C   UNL     1      -3.475   1.262   5.876  0.00  0.00    +0.028 A 
ATOM     21  C   UNL     1      -2.306   1.744   5.272  0.00  0.00    +0.076 A 
ATOM     22  C   UNL     1      -1.658   2.877   5.823  0.00  0.00    +0.040 A 
ATOM     23  C   UNL     1      -2.193   3.497   6.957  0.00  0.00    +0.013 A 
ATOM     24  C   UNL     1      -0.478   3.344   5.195  0.00  0.00    +0.127 A 
ATOM     25  N   UNL     1      -0.038   2.692   4.126  0.00  0.00    -0.216 NA
ATOM     26  C   UNL     1      -0.680   1.641   3.644  0.00  0.00    +0.146 A 
ATOM     27  N   UNL     1      -1.777   1.164   4.185  0.00  0.00    -0.231 NA
BRANCH  24  28
ATOM     28  N   UNL     1       0.197   4.442   5.683  0.00  0.00    -0.343 N 
ATOM     29  H   UNL     1       1.113   4.791   5.183  0.00  0.00    +0.144 HD
ATOM     30  H   UNL     1      -0.179   4.968   6.572  0.00  0.00    +0.144 HD
ENDBRANCH  24  28
ENDBRANCH  17  26
ENDBRANCH   1  17
TORSDOF 5
