REMARK  Name = ZINC38804494
REMARK  5 active torsions:
REMARK  status: ('A' for Active; 'I' for Inactive)
REMARK    1  A    between atoms: C_1  and  C_2
REMARK    2  A    between atoms: C_4  and  N_8
REMARK    3  A    between atoms: C_9  and  C_11
REMARK    4  A    between atoms: C_11  and  S_12
REMARK    5  A    between atoms: S_12  and  C_13
REMARK                            x       y       z     vdW  Elec       q    Type
REMARK                         _______ _______ _______ _____ _____    ______ ____
ROOT
ATOM      1  C   UNL     1      -2.291  -6.855   4.348  0.00  0.00    +0.182 C 
ATOM      2  N   UNL     1      -1.824  -6.075   5.309  0.00  0.00    -0.151 NA
ATOM      3  C   UNL     1      -1.844  -6.426   6.594  0.00  0.00    +0.272 C 
ATOM      4  O   UNL     1      -1.402  -5.682   7.455  0.00  0.00    -0.268 OA
ATOM      5  C   UNL     1      -2.425  -7.761   6.951  0.00  0.00    +0.071 C 
ATOM      6  C   UNL     1      -2.599  -8.281   8.177  0.00  0.00    -0.042 C 
ATOM      7  C   UNL     1      -2.376  -7.502   9.471  0.00  0.00    +0.033 C 
ATOM      8  C   UNL     1      -3.679  -7.600  10.276  0.00  0.00    +0.004 C 
ATOM      9  C   UNL     1      -4.094  -9.061  10.434  0.00  0.00    +0.002 C 
ATOM     10  C   UNL     1      -4.402  -9.690   9.072  0.00  0.00    +0.019 C 
ATOM     11  C   UNL     1      -3.115  -9.714   8.243  0.00  0.00    +0.079 C 
ATOM     12  S   UNL     1      -3.508 -10.059   6.487  0.00  0.00    -0.097 S 
ATOM     13  C   UNL     1      -2.903  -8.542   5.790  0.00  0.00    +0.112 C 
ATOM     14  N   UNL     1      -2.821  -8.056   4.578  0.00  0.00    -0.217 NA
ENDROOT
BRANCH   1  15
ATOM     15  S   UNL     1      -2.216  -6.275   2.686  0.00  0.00    -0.079 S 
BRANCH  15  16
ATOM     16  C   UNL     1      -1.442  -4.640   2.826  0.00  0.00    +0.173 C 
BRANCH  16  18
ATOM     17  N   UNL     1      -0.767  -2.803   1.314  0.00  0.00    -0.293 N 
ATOM     18  C   UNL     1      -1.317  -4.025   1.456  0.00  0.00    +0.225 C 
ATOM     19  O   UNL     1      -1.710  -4.630   0.482  0.00  0.00    -0.275 OA
ATOM     20  H   UNL     1      -0.452  -2.319   2.094  0.00  0.00    +0.151 HD
BRANCH  17  24
ATOM     21  C   UNL     1      -0.018   1.503   0.010  0.00  0.00    +0.088 C 
ATOM     22  C   UNL     1       0.002  -0.004   0.002  0.00  0.00    +0.121 C 
ATOM     23  C   UNL     1      -1.081  -0.752   0.003  0.00  0.00    +0.057 C 
ATOM     24  C   UNL     1      -0.645  -2.204  -0.017  0.00  0.00    +0.204 C 
ATOM     25  N   UNL     1       0.780  -2.110  -0.429  0.00  0.00    -0.131 NA
ATOM     26  O   UNL     1       1.137  -0.743  -0.013  0.00  0.00    -0.409 OA
ATOM     27  H   UNL     1       1.342  -2.796   0.054  0.00  0.00    +0.170 HD
ENDBRANCH  17  24
ENDBRANCH  16  18
ENDBRANCH  15  16
ENDBRANCH   1  15
TORSDOF 4
