REMARK  Name = ZINC08855212
REMARK  11 active torsions:
REMARK  status: ('A' for Active; 'I' for Inactive)
REMARK    1  A    between atoms: C_1  and  C_2
REMARK    2  A    between atoms: C_4  and  C_37
REMARK    3  A    between atoms: C_5  and  S_9
REMARK    4  A    between atoms: C_6  and  C_8
REMARK    5  A    between atoms: S_9  and  N_12
REMARK    6  A    between atoms: C_16  and  C_18
REMARK    7  A    between atoms: C_18  and  N_19
REMARK    8  A    between atoms: C_20  and  C_22
REMARK    9  A    between atoms: N_24  and  C_25
REMARK   10  A    between atoms: C_25  and  C_26
REMARK   11  A    between atoms: C_26  and  C_27
REMARK                            x       y       z     vdW  Elec       q    Type
REMARK                         _______ _______ _______ _____ _____    ______ ____
ROOT
ATOM      1  N   UNL     1      -0.576  -7.644   1.865  0.00  0.00    -0.304 N 
ATOM      2  C   UNL     1      -1.491  -8.454   2.432  0.00  0.00    +0.299 C 
ATOM      3  O   UNL     1      -1.936  -8.192   3.530  0.00  0.00    -0.265 OA
ATOM      4  H   UNL     1      -0.220  -7.854   0.987  0.00  0.00    +0.149 HD
ENDROOT
BRANCH   2   5
ATOM      5  C   UNL     1      -1.958  -9.676   1.708  0.00  0.00    +0.299 C 
ATOM      6  O   UNL     1      -1.513  -9.938   0.611  0.00  0.00    -0.265 OA
ATOM      7  N   UNL     1      -2.874 -10.486   2.276  0.00  0.00    -0.307 N 
ATOM      8  H   UNL     1      -3.230 -10.277   3.153  0.00  0.00    +0.149 HD
BRANCH   7   9
ATOM      9  C   UNL     1      -3.332 -11.684   1.567  0.00  0.00    +0.109 C 
BRANCH   9  10
ATOM     10  C   UNL     1      -4.362 -12.421   2.424  0.00  0.00    +0.056 C 
BRANCH  10  11
ATOM     11  C   UNL     1      -4.833 -13.653   1.694  0.00  0.00    -0.021 A 
ATOM     12  C   UNL     1      -5.924 -13.754   0.919  0.00  0.00    +0.087 A 
ATOM     13  N   UNL     1      -6.030 -15.025   0.425  0.00  0.00    -0.360 N 
ATOM     14  H   UNL     1      -6.737 -15.339  -0.160  0.00  0.00    +0.165 HD
ATOM     15  C   UNL     1      -4.983 -15.793   0.882  0.00  0.00    +0.047 A 
ATOM     16  C   UNL     1      -4.183 -14.966   1.692  0.00  0.00    +0.003 A 
ATOM     17  C   UNL     1      -3.034 -15.481   2.293  0.00  0.00    +0.010 A 
ATOM     18  C   UNL     1      -2.688 -16.787   2.089  0.00  0.00    +0.001 A 
ATOM     19  C   UNL     1      -3.471 -17.606   1.287  0.00  0.00    +0.002 A 
ATOM     20  C   UNL     1      -4.614 -17.121   0.692  0.00  0.00    +0.026 A 
ENDBRANCH  10  11
ENDBRANCH   9  10
ENDBRANCH   7   9
ENDBRANCH   2   5
BRANCH   1  21
ATOM     21  C   UNL     1      -0.118  -6.447   2.574  0.00  0.00    +0.154 C 
BRANCH  21  26
ATOM     22  N   UNL     1       0.303  -5.315   0.436  0.00  0.00    -0.145 NA
ATOM     23  C   UNL     1       1.116  -5.956  -0.621  0.00  0.00    +0.140 C 
ATOM     24  C   UNL     1       2.457  -6.238   0.102  0.00  0.00    +0.179 C 
ATOM     25  O   UNL     1       2.021  -6.581   1.438  0.00  0.00    -0.357 OA
ATOM     26  C   UNL     1       0.913  -5.709   1.717  0.00  0.00    +0.226 C 
BRANCH  22  27
ATOM     27  S   UNL     1      -1.021  -4.344   0.222  0.00  0.00    +0.064 S 
ATOM     28  O   UNL     1      -1.777  -4.416   1.424  0.00  0.00    -0.153 OA
ATOM     29  O   UNL     1      -1.570  -4.679  -1.044  0.00  0.00    -0.153 OA
BRANCH  27  34
ATOM     30  C   UNL     1       0.984   1.330  -0.215  0.00  0.00    +0.044 C 
ATOM     31  C   UNL     1       0.483  -0.087  -0.105  0.00  0.00    -0.050 A 
ATOM     32  C   UNL     1       0.157  -0.611   1.131  0.00  0.00    +0.008 A 
ATOM     33  C   UNL     1      -0.302  -1.911   1.231  0.00  0.00    -0.024 A 
ATOM     34  C   UNL     1      -0.436  -2.686   0.095  0.00  0.00    +0.111 A 
ATOM     35  C   UNL     1      -0.111  -2.162  -1.142  0.00  0.00    -0.024 A 
ATOM     36  C   UNL     1       0.344  -0.860  -1.243  0.00  0.00    +0.008 A 
ATOM     37  C   UNL     1      -0.257  -3.007  -2.381  0.00  0.00    +0.046 C 
ATOM     38  C   UNL     1      -0.657  -2.483   2.580  0.00  0.00    +0.046 C 
ENDBRANCH  27  34
ENDBRANCH  22  27
ENDBRANCH  21  26
ENDBRANCH   1  21
TORSDOF 8
