REMARK  Name = ZINC13546804
REMARK  5 active torsions:
REMARK  status: ('A' for Active; 'I' for Inactive)
REMARK    1  A    between atoms: C_1  and  O_2
REMARK    2  A    between atoms: O_2  and  C_3
REMARK    3  A    between atoms: C_5  and  C_10
REMARK    4  A    between atoms: C_8  and  O_9
REMARK    5  A    between atoms: N_16  and  C_17
REMARK                            x       y       z     vdW  Elec       q    Type
REMARK                         _______ _______ _______ _____ _____    ______ ____
ROOT
ATOM      1  C   UNL     1      -4.852   0.220   0.038  0.00  0.00    +0.028 C 
ATOM      2  C   UNL     1      -6.048  -0.415  -0.056  0.00  0.00    +0.078 C 
ATOM      3  C   UNL     1      -6.343  -1.860  -0.071  0.00  0.00    +0.256 C 
ATOM      4  O   UNL     1      -5.457  -2.691   0.007  0.00  0.00    -0.269 OA
ATOM      5  N   UNL     1      -7.613  -2.213  -0.173  0.00  0.00    -0.260 N 
ATOM      6  C   UNL     1      -8.602  -1.257  -0.261  0.00  0.00    +0.166 C 
ATOM      7  N   UNL     1      -9.900  -1.432  -0.367  0.00  0.00    -0.226 NA
ATOM      8  S   UNL     1      -7.691   0.277  -0.188  0.00  0.00    -0.049 S 
ATOM      9  H   UNL     1      -7.851  -3.153  -0.187  0.00  0.00    +0.157 HD
ENDROOT
BRANCH   7  10
ATOM     10  C   UNL     1     -10.420  -2.698  -0.402  0.00  0.00    +0.067 A 
ATOM     11  C   UNL     1      -9.825  -3.679  -1.199  0.00  0.00    +0.029 A 
ATOM     12  C   UNL     1     -10.354  -4.952  -1.229  0.00  0.00    +0.017 A 
ATOM     13  C   UNL     1     -11.471  -5.260  -0.471  0.00  0.00    +0.018 A 
ATOM     14  C   UNL     1     -12.065  -4.292   0.321  0.00  0.00    +0.017 A 
ATOM     15  C   UNL     1     -11.543  -3.016   0.365  0.00  0.00    +0.029 A 
ATOM     16 BR   UNL     1     -12.188  -7.008  -0.518  0.00  0.00    -0.050 Br
ENDBRANCH   7  10
BRANCH   1  19
ATOM     17  C   UNL     1      -1.350  -0.951   0.694  0.00  0.00    +0.162 A 
ATOM     18  C   UNL     1      -2.521  -0.223   0.778  0.00  0.00    +0.057 A 
ATOM     19  C   UNL     1      -3.604  -0.550  -0.046  0.00  0.00    -0.020 A 
ATOM     20  C   UNL     1      -3.494  -1.613  -0.951  0.00  0.00    +0.012 A 
ATOM     21  C   UNL     1      -2.323  -2.333  -1.027  0.00  0.00    +0.050 A 
ATOM     22  C   UNL     1      -1.247  -2.005  -0.213  0.00  0.00    +0.158 A 
BRANCH  17  24
ATOM     23  C   UNL     1      -0.471   0.454   2.400  0.00  0.00    +0.277 C 
ATOM     24  O   UNL     1      -0.295  -0.637   1.494  0.00  0.00    -0.491 OA
ENDBRANCH  17  24
BRANCH  22  25
ATOM     25  O   UNL     1      -0.092  -2.716  -0.297  0.00  0.00    -0.503 OA
ATOM     26  H   UNL     1      -0.057  -3.480   0.293  0.00  0.00    +0.292 HD
ENDBRANCH  22  25
ENDBRANCH   1  19
TORSDOF 4
