REMARK  Name = ZINC39652907
REMARK  6 active torsions:
REMARK  status: ('A' for Active; 'I' for Inactive)
REMARK    1  A    between atoms: C_1  and  N_2
REMARK    2  A    between atoms: C_6  and  C_7
REMARK    3  A    between atoms: C_11  and  C_20
REMARK    4  A    between atoms: N_22  and  C_23
REMARK    5  A    between atoms: C_23  and  C_24
REMARK    6  A    between atoms: C_24  and  C_25
REMARK                            x       y       z     vdW  Elec       q    Type
REMARK                         _______ _______ _______ _____ _____    ______ ____
ROOT
ATOM      1  C   UNL     1      -0.177  -0.368   2.470  0.00  0.00    +0.263 C 
ATOM      2  O   UNL     1      -0.113  -1.191   3.364  0.00  0.00    -0.268 OA
ATOM      3  N   UNL     1      -0.385   0.931   2.762  0.00  0.00    -0.295 N 
ATOM      4  C   UNL     1      -0.633   2.046   1.818  0.00  0.00    +0.121 C 
ATOM      5  C   UNL     1      -1.706   2.914   2.512  0.00  0.00    +0.100 C 
ATOM      6  C   UNL     1      -1.558   2.597   4.010  0.00  0.00    -0.004 C 
ATOM      7  C   UNL     1      -0.424   1.566   4.101  0.00  0.00    +0.115 C 
ATOM      8  C   UNL     1      -1.190   3.859   4.783  0.00  0.00    -0.010 C 
ATOM      9  C   UNL     1      -1.106   3.531   6.276  0.00  0.00    -0.082 C 
ATOM     10  N   UNL     1      -2.398   3.009   6.739  0.00  0.00    +0.379 N 
ATOM     11  C   UNL     1      -2.700   1.746   6.056  0.00  0.00    -0.082 C 
ATOM     12  C   UNL     1      -2.852   1.998   4.553  0.00  0.00    -0.010 C 
ATOM     13  H   UNL     1      -2.358   2.851   7.734  0.00  0.00    -0.086 HD
ATOM     14  H   UNL     1      -3.122   3.682   6.536  0.00  0.00    -0.086 HD
ENDROOT
BRANCH   1  20
ATOM     15  C   UNL     1      -0.035  -3.291   1.452  0.00  0.00    +0.149 C 
ATOM     16  N   UNL     1       0.036  -2.089   0.618  0.00  0.00    -0.346 N 
ATOM     17  C   UNL     1       0.169  -2.069  -0.731  0.00  0.00    +0.086 A 
ATOM     18  C   UNL     1       0.197  -0.781  -1.149  0.00  0.00    +0.020 A 
ATOM     19  C   UNL     1       0.078   0.039  -0.023  0.00  0.00    +0.032 A 
ATOM     20  C   UNL     1      -0.028  -0.791   1.073  0.00  0.00    +0.104 A 
ENDBRANCH   1  20
BRANCH   5  21
ATOM     21  C   UNL     1      -3.082   2.535   2.027  0.00  0.00    +0.218 C 
ATOM     22  O   UNL     1      -3.288   1.420   1.597  0.00  0.00    -0.275 OA
ATOM     23  N   UNL     1      -4.083   3.437   2.070  0.00  0.00    -0.315 N 
ATOM     24  H   UNL     1      -3.918   4.329   2.413  0.00  0.00    +0.149 HD
BRANCH  23  25
ATOM     25  C   UNL     1      -5.420   3.069   1.598  0.00  0.00    +0.109 C 
BRANCH  25  26
ATOM     26  C   UNL     1      -6.363   4.264   1.755  0.00  0.00    +0.054 C 
BRANCH  26  27
ATOM     27  C   UNL     1      -7.739   3.886   1.270  0.00  0.00    -0.046 A 
ATOM     28  C   UNL     1      -8.081   4.078  -0.056  0.00  0.00    +0.005 A 
ATOM     29  C   UNL     1      -9.342   3.731  -0.501  0.00  0.00    +0.015 A 
ATOM     30  C   UNL     1     -10.262   3.191   0.379  0.00  0.00    +0.018 A 
ATOM     31  C   UNL     1      -9.920   2.998   1.705  0.00  0.00    +0.015 A 
ATOM     32  C   UNL     1      -8.656   3.341   2.149  0.00  0.00    +0.005 A 
ATOM     33 BR   UNL     1     -11.989   2.717  -0.230  0.00  0.00    -0.050 Br
ENDBRANCH  26  27
ENDBRANCH  25  26
ENDBRANCH  23  25
ENDBRANCH   5  21
TORSDOF 5
