REMARK  Name = ZINC04830108
REMARK  5 active torsions:
REMARK  status: ('A' for Active; 'I' for Inactive)
REMARK    1  A    between atoms: C_1  and  C_2
REMARK    2  A    between atoms: C_5  and  C_14
REMARK    3  A    between atoms: C_12  and  C_13
REMARK    4  A    between atoms: C_14  and  S_15
REMARK    5  A    between atoms: S_15  and  C_16
REMARK                            x       y       z     vdW  Elec       q    Type
REMARK                         _______ _______ _______ _____ _____    ______ ____
ROOT
ATOM      1  C   UNL     1       6.882   4.787   4.952  0.00  0.00    +0.044 C 
ATOM      2  C   UNL     1       7.559   4.934   3.614  0.00  0.00    -0.047 A 
ATOM      3  C   UNL     1       6.830   4.781   2.456  0.00  0.00    +0.015 A 
ATOM      4  C   UNL     1       7.463   4.920   1.217  0.00  0.00    +0.022 A 
ATOM      5  C   UNL     1       6.716   4.763  -0.035  0.00  0.00    -0.020 A 
ATOM      6  C   UNL     1       7.387   4.915  -1.204  0.00  0.00    +0.097 A 
ATOM      7  C   UNL     1       8.768   5.209  -1.188  0.00  0.00    +0.338 A 
ATOM      8  O   UNL     1       9.358   5.343  -2.244  0.00  0.00    -0.245 OA
ATOM      9  O   UNL     1       9.446   5.346  -0.038  0.00  0.00    -0.422 OA
ATOM     10  C   UNL     1       8.838   5.207   1.160  0.00  0.00    +0.140 A 
ATOM     11  C   UNL     1       9.555   5.352   2.340  0.00  0.00    +0.050 A 
ATOM     12  C   UNL     1       8.915   5.224   3.555  0.00  0.00    -0.044 A 
ATOM     13  C   UNL     1       9.699   5.387   4.832  0.00  0.00    +0.044 C 
ENDROOT
BRANCH   5  14
ATOM     14  C   UNL     1       5.242   4.449  -0.023  0.00  0.00    +0.113 C 
BRANCH  14  15
ATOM     15  S   UNL     1       5.008   2.654  -0.030  0.00  0.00    -0.083 S 
BRANCH  15  16
ATOM     16  C   UNL     1       3.248   2.575  -0.015  0.00  0.00    +0.168 A 
ATOM     17  N   UNL     1       2.514   1.422  -0.014  0.00  0.00    -0.333 N 
ATOM     18  H   UNL     1       2.874   0.489  -0.022  0.00  0.00    +0.168 HD
ATOM     19  C   UNL     1       1.178   1.787   0.000  0.00  0.00    +0.067 A 
ATOM     20  C   UNL     1      -0.013   1.076   0.008  0.00  0.00    +0.028 A 
ATOM     21  C   UNL     1      -1.216   1.751   0.017  0.00  0.00    +0.002 A 
ATOM     22  C   UNL     1      -1.243   3.138   0.030  0.00  0.00    +0.002 A 
ATOM     23  C   UNL     1      -0.071   3.860   0.023  0.00  0.00    +0.030 A 
ATOM     24  C   UNL     1       1.156   3.191   0.008  0.00  0.00    +0.090 A 
ATOM     25  N   UNL     1       2.448   3.612  -0.001  0.00  0.00    -0.222 NA
ENDBRANCH  15  16
ENDBRANCH  14  15
ENDBRANCH   5  14
TORSDOF 3
