REMARK  Name = ZINC43467666
REMARK  4 active torsions:
REMARK  status: ('A' for Active; 'I' for Inactive)
REMARK    1  A    between atoms: C_1  and  C_2
REMARK    2  A    between atoms: C_2  and  C_3
REMARK    3  A    between atoms: C_2  and  C_4
REMARK    4  A    between atoms: N_14  and  C_15
REMARK                            x       y       z     vdW  Elec       q    Type
REMARK                         _______ _______ _______ _____ _____    ______ ____
ROOT
ATOM      1  C   UNL     1       0.706  -0.610   1.183  0.00  0.00    +0.218 C 
ATOM      2  O   UNL     1       1.708  -1.271   1.014  0.00  0.00    -0.275 OA
ATOM      3  N   UNL     1       0.224  -0.422   2.428  0.00  0.00    -0.298 N 
ATOM      4  C   UNL     1      -1.052   0.275   2.639  0.00  0.00    +0.127 C 
ATOM      5  C   UNL     1      -1.977  -0.632   3.460  0.00  0.00    +0.128 C 
ATOM      6  N   UNL     1      -1.236  -1.122   4.630  0.00  0.00    -0.283 N 
ATOM      7  C   UNL     1       0.041  -1.819   4.420  0.00  0.00    +0.128 C 
ATOM      8  C   UNL     1       0.963  -0.917   3.598  0.00  0.00    +0.127 C 
ATOM      9  C   UNL     1      -1.717  -0.935   5.875  0.00  0.00    +0.303 C 
ATOM     10  O   UNL     1      -2.724  -0.274   6.044  0.00  0.00    -0.253 OA
ATOM     11  N   UNL     1      -1.083  -1.480   6.932  0.00  0.00    -0.294 N 
ATOM     12  H   UNL     1      -0.243  -1.946   6.806  0.00  0.00    +0.151 HD
ENDROOT
BRANCH  11  13
ATOM     13  C   UNL     1      -1.665  -1.367   8.272  0.00  0.00    +0.037 C 
ATOM     14  C   UNL     1      -1.803   0.110   8.646  0.00  0.00    +0.029 C 
ATOM     15  C   UNL     1      -2.410   0.227  10.046  0.00  0.00    -0.008 C 
ATOM     16  C   UNL     1      -1.499  -0.472  11.057  0.00  0.00    +0.007 C 
ATOM     17  C   UNL     1      -1.360  -1.949  10.683  0.00  0.00    -0.008 C 
ATOM     18  C   UNL     1      -0.753  -2.066   9.284  0.00  0.00    +0.029 C 
ATOM     19  C   UNL     1      -2.740  -2.610  10.698  0.00  0.00    +0.007 C 
ATOM     20  C   UNL     1      -3.651  -1.912   9.687  0.00  0.00    -0.008 C 
ATOM     21  C   UNL     1      -3.789  -0.435  10.060  0.00  0.00    +0.007 C 
ATOM     22  C   UNL     1      -3.044  -2.029   8.287  0.00  0.00    +0.029 C 
ENDBRANCH  11  13
BRANCH   1  24
ATOM     23  C   UNL     1       0.994   0.198  -1.144  0.00  0.00    +0.017 C 
ATOM     24  C   UNL     1      -0.002   0.002   0.001  0.00  0.00    +0.069 C 
ATOM     25  C   UNL     1      -1.128  -0.928  -0.456  0.00  0.00    +0.017 C 
ENDBRANCH   1  24
TORSDOF 2
