REMARK  Name = ZINC02639624
REMARK  12 active torsions:
REMARK  status: ('A' for Active; 'I' for Inactive)
REMARK    1  A    between atoms: C_1  and  O_2
REMARK    2  A    between atoms: O_2  and  C_3
REMARK    3  A    between atoms: C_6  and  C_9
REMARK    4  A    between atoms: C_9  and  C_11
REMARK    5  A    between atoms: C_9  and  C_25
REMARK    6  A    between atoms: C_11  and  N_58
REMARK    7  A    between atoms: C_12  and  C_13
REMARK    8  A    between atoms: C_12  and  N_58
REMARK    9  A    between atoms: C_13  and  C_15
REMARK   10  A    between atoms: C_13  and  O_24
REMARK   11  A    between atoms: C_15  and  O_16
REMARK   12  A    between atoms: O_16  and  C_17
REMARK                            x       y       z     vdW  Elec       q    Type
REMARK                         _______ _______ _______ _____ _____    ______ ____
ROOT
ATOM      1  C   UNL     1      -0.729   1.579   1.267  0.00  0.00    +0.034 C 
ENDROOT
BRANCH   1   2
ATOM      2  C   UNL     1      -2.100   0.959   1.340  0.00  0.00    -0.017 A 
ATOM      3  C   UNL     1      -2.382  -0.352   1.400  0.00  0.00    +0.087 A 
ATOM      4  N   UNL     1      -3.737  -0.536   1.456  0.00  0.00    -0.360 N 
ATOM      5  H   UNL     1      -4.180  -1.397   1.505  0.00  0.00    +0.165 HD
ATOM      6  C   UNL     1      -4.376   0.683   1.434  0.00  0.00    +0.047 A 
ATOM      7  C   UNL     1      -3.379   1.673   1.366  0.00  0.00    +0.003 A 
ATOM      8  C   UNL     1      -3.738   3.022   1.336  0.00  0.00    +0.010 A 
ATOM      9  C   UNL     1      -5.058   3.374   1.375  0.00  0.00    +0.001 A 
ATOM     10  C   UNL     1      -6.045   2.401   1.446  0.00  0.00    +0.002 A 
ATOM     11  C   UNL     1      -5.713   1.063   1.470  0.00  0.00    +0.026 A 
ENDBRANCH   1   2
BRANCH   1  15
ATOM     12  C   UNL     1       1.526   0.460   4.720  0.00  0.00    +0.120 A 
ATOM     13  C   UNL     1       1.274   1.799   4.458  0.00  0.00    +0.046 A 
ATOM     14  C   UNL     1       0.545   2.158   3.341  0.00  0.00    +0.008 A 
ATOM     15  C   UNL     1       0.067   1.185   2.485  0.00  0.00    -0.041 A 
ATOM     16  C   UNL     1       0.311  -0.151   2.746  0.00  0.00    +0.008 A 
ATOM     17  C   UNL     1       1.045  -0.515   3.858  0.00  0.00    +0.046 A 
BRANCH  12  19
ATOM     18  C   UNL     1       2.463  -1.292   6.025  0.00  0.00    +0.277 C 
ATOM     19  O   UNL     1       2.243   0.104   5.819  0.00  0.00    -0.495 OA
ENDBRANCH  12  19
ENDBRANCH   1  15
BRANCH   1  20
ATOM     20  C   UNL     1      -0.013   1.086   0.008  0.00  0.00    -0.070 C 
BRANCH  20  21
ATOM     21  N   UNL     1      -0.732   1.579  -1.182  0.00  0.00    +0.381 N 
ATOM     22  H   UNL     1      -0.746   2.605  -1.168  0.00  0.00    -0.086 HD
ATOM     23  H   UNL     1      -1.695   1.223  -1.167  0.00  0.00    -0.086 HD
BRANCH  21  24
ATOM     24  C   UNL     1      -0.062   1.117  -2.413  0.00  0.00    -0.047 C 
BRANCH  24  25
ATOM     25  C   UNL     1      -0.829   1.643  -3.628  0.00  0.00    +0.135 C 
BRANCH  25  26
ATOM     26  O   UNL     1      -2.170   1.148  -3.596  0.00  0.00    -0.390 OA
ATOM     27  H   UNL     1      -2.233   0.183  -3.613  0.00  0.00    +0.210 HD
ENDBRANCH  25  26
BRANCH  25  28
ATOM     28  C   UNL     1      -0.141   1.168  -4.909  0.00  0.00    +0.258 C 
BRANCH  28  29
ATOM     29  O   UNL     1      -0.787   1.753  -6.042  0.00  0.00    -0.489 OA
BRANCH  29  30
ATOM     30  C   UNL     1      -0.295   1.433  -7.267  0.00  0.00    +0.121 A 
ATOM     31  C   UNL     1       0.791   0.577  -7.377  0.00  0.00    +0.047 A 
ATOM     32  C   UNL     1       1.286   0.247  -8.624  0.00  0.00    +0.019 A 
ATOM     33  C   UNL     1       0.707   0.779  -9.762  0.00  0.00    +0.018 A 
ATOM     34  C   UNL     1      -0.373   1.637  -9.654  0.00  0.00    +0.019 A 
ATOM     35  C   UNL     1      -0.875   1.965  -8.410  0.00  0.00    +0.047 A 
ATOM     36 BR   UNL     1       1.391   0.332 -11.467  0.00  0.00    -0.050 Br
ENDBRANCH  29  30
ENDBRANCH  28  29
ENDBRANCH  25  28
ENDBRANCH  24  25
ENDBRANCH  21  24
ENDBRANCH  20  21
ENDBRANCH   1  20
TORSDOF 11
