REMARK  Name = ZINC20271463
REMARK  4 active torsions:
REMARK  status: ('A' for Active; 'I' for Inactive)
REMARK    1  A    between atoms: C_1  and  C_2
REMARK    2  A    between atoms: C_6  and  C_8
REMARK    3  A    between atoms: C_8  and  N_9
REMARK    4  A    between atoms: C_12  and  C_16
REMARK                            x       y       z     vdW  Elec       q    Type
REMARK                         _______ _______ _______ _____ _____    ______ ____
ROOT
ATOM      1  N   UNL     1      -3.107   7.447  -0.734  0.00  0.00    -0.305 N 
ATOM      2  C   UNL     1      -3.578   8.746  -0.643  0.00  0.00    +0.236 A 
ATOM      3  N   UNL     1      -4.867   8.960  -0.416  0.00  0.00    -0.212 NA
ATOM      4  C   UNL     1      -5.314  10.213  -0.330  0.00  0.00    +0.094 A 
ATOM      5  C   UNL     1      -4.401  11.262  -0.483  0.00  0.00    +0.163 A 
ATOM      6  N   UNL     1      -3.131  10.982  -0.707  0.00  0.00    -0.152 NA
ATOM      7  N   UNL     1      -2.733   9.760  -0.779  0.00  0.00    -0.113 NA
ATOM      8  H   UNL     1      -3.800   6.601  -0.618  0.00  0.00    +0.149 HD
ENDROOT
BRANCH   4   9
ATOM      9  C   UNL     1      -6.748  10.488  -0.077  0.00  0.00    +0.006 A 
ATOM     10  C   UNL     1      -7.646   9.432   0.073  0.00  0.00    +0.014 A 
ATOM     11  C   UNL     1      -8.981   9.689   0.309  0.00  0.00    +0.050 A 
ATOM     12  C   UNL     1      -9.434  10.997   0.397  0.00  0.00    +0.166 A 
ATOM     13  C   UNL     1      -8.540  12.057   0.247  0.00  0.00    +0.167 A 
ATOM     14  C   UNL     1      -7.201  11.803   0.017  0.00  0.00    +0.059 A 
ATOM     15  O   UNL     1      -9.229  13.229   0.375  0.00  0.00    -0.453 OA
ATOM     16  C   UNL     1     -10.615  12.882   0.196  0.00  0.00    +0.466 C 
ATOM     17  O   UNL     1     -10.681  11.507   0.618  0.00  0.00    -0.453 OA
ENDBRANCH   4   9
BRANCH   1  18
ATOM     18  C   UNL     1      -1.685   7.199  -0.984  0.00  0.00    +0.180 C 
BRANCH  18  24
ATOM     19  C   UNL     1      -1.424   3.076  -3.597  0.00  0.00    +0.066 C 
ATOM     20  C   UNL     1      -1.315   3.786  -2.272  0.00  0.00    +0.045 A 
ATOM     21  C   UNL     1      -0.993   3.078  -1.120  0.00  0.00    -0.005 A 
ATOM     22  C   UNL     1      -0.902   3.766   0.070  0.00  0.00    +0.048 A 
ATOM     23  N   UNL     1      -1.130   5.075   0.073  0.00  0.00    -0.235 NA
ATOM     24  C   UNL     1      -1.435   5.714  -1.037  0.00  0.00    +0.147 A 
ATOM     25  N   UNL     1      -1.527   5.088  -2.193  0.00  0.00    -0.235 NA
ATOM     26  C   UNL     1      -0.545   3.096   1.368  0.00  0.00    +0.056 C 
ATOM     27  C   UNL     1      -0.738   1.584   1.263  0.00  0.00    +0.006 C 
ATOM     28  C   UNL     1      -0.013   1.086   0.008  0.00  0.00    +0.005 C 
ATOM     29  C   UNL     1      -0.760   1.596  -1.224  0.00  0.00    +0.039 C 
ENDBRANCH  18  24
ENDBRANCH   1  18
TORSDOF 3
