REMARK  Name = ZINC20922583
REMARK  6 active torsions:
REMARK  status: ('A' for Active; 'I' for Inactive)
REMARK    1  A    between atoms: C_1  and  O_2
REMARK    2  A    between atoms: O_2  and  C_3
REMARK    3  A    between atoms: C_7  and  C_10
REMARK    4  A    between atoms: C_8  and  O_9
REMARK    5  A    between atoms: N_14  and  C_18
REMARK    6  A    between atoms: C_22  and  C_24
REMARK                            x       y       z     vdW  Elec       q    Type
REMARK                         _______ _______ _______ _____ _____    ______ ____
ROOT
ATOM      1  C   UNL     1       3.432  -0.861   1.091  0.00  0.00    +0.032 C 
ATOM      2  C   UNL     1       3.573  -2.135   0.644  0.00  0.00    +0.078 C 
ATOM      3  C   UNL     1       4.714  -3.061   0.785  0.00  0.00    +0.263 C 
ATOM      4  O   UNL     1       5.731  -2.737   1.371  0.00  0.00    -0.269 OA
ATOM      5  N   UNL     1       4.575  -4.259   0.243  0.00  0.00    -0.224 N 
ATOM      6  C   UNL     1       3.446  -4.613  -0.404  0.00  0.00    +0.125 C 
ATOM      7  S   UNL     1       3.080  -6.103  -1.164  0.00  0.00    -0.027 S 
ATOM      8  S   UNL     1       2.424  -3.155  -0.270  0.00  0.00    -0.061 S 
ENDROOT
BRANCH   1  13
ATOM      9  C   UNL     1       0.795   1.819   1.021  0.00  0.00    +0.162 A 
ATOM     10  C   UNL     1       0.066   1.439  -0.094  0.00  0.00    +0.049 A 
ATOM     11  C   UNL     1       0.429   0.317  -0.820  0.00  0.00    +0.004 A 
ATOM     12  C   UNL     1       1.520  -0.434  -0.442  0.00  0.00    +0.012 A 
ATOM     13  C   UNL     1       2.268  -0.064   0.683  0.00  0.00    +0.021 A 
ATOM     14  C   UNL     1       1.899   1.073   1.417  0.00  0.00    +0.166 A 
BRANCH   9  16
ATOM     15  C   UNL     1      -0.714   3.641   1.264  0.00  0.00    +0.277 C 
ATOM     16  O   UNL     1       0.430   2.922   1.728  0.00  0.00    -0.491 OA
ENDBRANCH   9  16
BRANCH  14  17
ATOM     17  O   UNL     1       2.616   1.443   2.510  0.00  0.00    -0.503 OA
ATOM     18  H   UNL     1       3.489   0.851   2.821  0.00  0.00    +0.292 HD
ENDBRANCH  14  17
ENDBRANCH   1  13
BRANCH   5  19
ATOM     19  C   UNL     1       5.625  -5.182   0.344  0.00  0.00    +0.043 A 
ATOM     20  C   UNL     1       6.634  -5.194  -0.612  0.00  0.00    +0.024 A 
ATOM     21  C   UNL     1       7.675  -6.098  -0.514  0.00  0.00    +0.003 A 
ATOM     22  C   UNL     1       7.713  -7.003   0.528  0.00  0.00    +0.015 A 
ATOM     23  C   UNL     1       6.702  -7.002   1.490  0.00  0.00    +0.065 A 
ATOM     24  C   UNL     1       5.654  -6.085   1.394  0.00  0.00    +0.039 A 
BRANCH  23  25
ATOM     25  C   UNL     1       6.740  -7.969   2.607  0.00  0.00    +0.387 C 
ATOM     26  O   UNL     1       5.859  -7.967   3.443  0.00  0.00    -0.241 OA
ATOM     27  O   UNL     1       7.753  -8.854   2.697  0.00  0.00    -0.241 OA
ENDBRANCH  23  25
ENDBRANCH   5  19
TORSDOF 5
