REMARK  Name = ZINC25200938
REMARK  8 active torsions:
REMARK  status: ('A' for Active; 'I' for Inactive)
REMARK    1  A    between atoms: C_1  and  C_2
REMARK    2  A    between atoms: C_5  and  C_26
REMARK    3  A    between atoms: C_6  and  N_8
REMARK    4  A    between atoms: C_12  and  C_15
REMARK    5  A    between atoms: C_18  and  C_20
REMARK    6  A    between atoms: C_20  and  C_21
REMARK    7  A    between atoms: C_21  and  N_22
REMARK    8  A    between atoms: C_23  and  C_25
REMARK                            x       y       z     vdW  Elec       q    Type
REMARK                         _______ _______ _______ _____ _____    ______ ____
ROOT
ATOM      1  N   UNL     1      -2.427   1.042   0.019  0.00  0.00    -0.225 NA
ATOM      2  C   UNL     1      -2.414  -0.329  -0.092  0.00  0.00    +0.174 C 
ATOM      3  N   UNL     1      -1.275  -0.979  -0.102  0.00  0.00    -0.215 N 
ATOM      4  N   UNL     1      -1.152  -2.239  -0.214  0.00  0.00    -0.183 NA
ATOM      5  C   UNL     1      -2.018  -3.068  -0.699  0.00  0.00    +0.083 C 
ATOM      6  C   UNL     1      -3.347  -2.605  -1.246  0.00  0.00    +0.135 C 
ATOM      7  S   UNL     1      -3.932  -1.224  -0.216  0.00  0.00    -0.083 S 
ATOM      8  H   UNL     1      -0.381  -0.346  -0.003  0.00  0.00    +0.176 HD
ENDROOT
BRANCH   1  14
ATOM      9  C   UNL     1       2.287   1.351  -1.340  0.00  0.00    +0.044 C 
ATOM     10  C   UNL     1       1.075   1.930  -0.656  0.00  0.00    -0.048 A 
ATOM     11  C   UNL     1       1.150   3.174  -0.055  0.00  0.00    +0.004 A 
ATOM     12  C   UNL     1       0.041   3.709   0.573  0.00  0.00    +0.006 A 
ATOM     13  C   UNL     1      -1.146   3.003   0.603  0.00  0.00    -0.025 A 
ATOM     14  C   UNL     1      -1.226   1.757  -0.004  0.00  0.00    +0.070 A 
ATOM     15  C   UNL     1      -0.108   1.219  -0.630  0.00  0.00    +0.031 A 
ATOM     16  C   UNL     1      -2.354   3.587   1.288  0.00  0.00    +0.046 C 
ENDBRANCH   1  14
BRANCH   5  17
ATOM     17  C   UNL     1      -1.700  -4.496  -0.720  0.00  0.00    +0.036 A 
ATOM     18  C   UNL     1      -0.554  -5.142  -0.283  0.00  0.00    +0.018 A 
ATOM     19  C   UNL     1      -0.491  -6.511  -0.406  0.00  0.00    +0.012 A 
ATOM     20  C   UNL     1      -1.538  -7.179  -0.955  0.00  0.00    -0.008 A 
ATOM     21  S   UNL     1      -2.684  -5.860  -1.320  0.00  0.00    -0.092 S 
BRANCH  20  22
ATOM     22  C   UNL     1      -1.694  -8.659  -1.196  0.00  0.00    +0.061 C 
BRANCH  22  23
ATOM     23  C   UNL     1      -2.336  -9.310   0.031  0.00  0.00    +0.109 C 
BRANCH  23  24
ATOM     24  N   UNL     1      -2.487 -10.749  -0.203  0.00  0.00    -0.315 N 
ATOM     25  C   UNL     1      -3.033 -11.532   0.747  0.00  0.00    +0.210 C 
ATOM     26  O   UNL     1      -3.400 -11.047   1.796  0.00  0.00    -0.276 OA
ATOM     27  C   UNL     1      -3.188 -13.012   0.506  0.00  0.00    +0.109 C 
ATOM     28  H   UNL     1      -2.154 -11.189  -1.155  0.00  0.00    +0.149 HD
ENDBRANCH  23  24
ENDBRANCH  22  23
ENDBRANCH  20  22
ENDBRANCH   5  17
TORSDOF 5
