REMARK  Name = ZINC13285076
REMARK  6 active torsions:
REMARK  status: ('A' for Active; 'I' for Inactive)
REMARK    1  A    between atoms: C_3  and  C_25
REMARK    2  A    between atoms: C_5  and  O_7
REMARK    3  A    between atoms: O_7  and  C_8
REMARK    4  A    between atoms: C_8  and  C_9
REMARK    5  A    between atoms: C_10  and  C_17
REMARK    6  A    between atoms: C_11  and  N_16
REMARK                            x       y       z     vdW  Elec       q    Type
REMARK                         _______ _______ _______ _____ _____    ______ ____
ROOT
ATOM      1  C   UNL     1       1.008   7.360   0.025  0.00  0.00    +0.093 A 
ATOM      2  C   UNL     1       0.923   8.054   1.230  0.00  0.00    +0.046 A 
ATOM      3  C   UNL     1       0.731   9.447   1.184  0.00  0.00    +0.129 A 
ATOM      4  N   UNL     1       0.638  10.043   0.001  0.00  0.00    -0.199 NA
ATOM      5  C   UNL     1       0.725   9.341  -1.119  0.00  0.00    +0.215 A 
ATOM      6  N   UNL     1       0.911   8.029  -1.112  0.00  0.00    -0.215 NA
ATOM      7  N   UNL     1       0.624   9.998  -2.333  0.00  0.00    -0.327 N 
ATOM      8  H   UNL     1       0.492  10.959  -2.354  0.00  0.00    +0.145 HD
ATOM      9  H   UNL     1       0.685   9.498  -3.162  0.00  0.00    +0.145 HD
ENDROOT
BRANCH   2  10
ATOM     10  C   UNL     1       1.034   7.344   2.527  0.00  0.00    -0.011 A 
ATOM     11  C   UNL     1       0.059   6.421   2.904  0.00  0.00    +0.010 A 
ATOM     12  C   UNL     1       0.168   5.759   4.110  0.00  0.00    +0.022 A 
ATOM     13  C   UNL     1       1.238   6.016   4.950  0.00  0.00    +0.059 A 
ATOM     14  C   UNL     1       2.207   6.936   4.582  0.00  0.00    +0.060 A 
ATOM     15  C   UNL     1       2.109   7.600   3.376  0.00  0.00    +0.030 A 
ATOM     16 CL   UNL     1       3.546   7.253   5.641  0.00  0.00    -0.082 Cl
ATOM     17 CL   UNL     1       1.365   5.185   6.468  0.00  0.00    -0.082 Cl
ENDBRANCH   2  10
BRANCH   3  18
ATOM     18  N   UNL     1       0.640  10.184   2.352  0.00  0.00    -0.343 N 
ATOM     19  H   UNL     1       0.710   9.740   3.212  0.00  0.00    +0.144 HD
ATOM     20  H   UNL     1       0.508  11.144   2.310  0.00  0.00    +0.144 HD
ENDBRANCH   3  18
BRANCH   1  21
ATOM     21  C   UNL     1       1.214   5.867   0.017  0.00  0.00    +0.285 C 
BRANCH  21  22
ATOM     22  O   UNL     1      -0.056   5.211   0.027  0.00  0.00    -0.486 OA
BRANCH  22  27
ATOM     23  C   UNL     1       1.173   1.782   0.000  0.00  0.00    +0.005 A 
ATOM     24  C   UNL     1      -0.013   1.076   0.008  0.00  0.00    +0.019 A 
ATOM     25  C   UNL     1      -1.231   1.758   0.017  0.00  0.00    +0.055 A 
ATOM     26  C   UNL     1      -1.243   3.154   0.029  0.00  0.00    +0.064 A 
ATOM     27  C   UNL     1      -0.048   3.852   0.021  0.00  0.00    +0.122 A 
ATOM     28  C   UNL     1       1.159   3.165   0.007  0.00  0.00    +0.046 A 
BRANCH  25  29
ATOM     29  C   UNL     1      -2.463   1.028   0.020  0.00  0.00    +0.099 C 
ATOM     30  N   UNL     1      -3.441   0.449   0.022  0.00  0.00    -0.191 NA
ENDBRANCH  25  29
ENDBRANCH  22  27
ENDBRANCH  21  22
ENDBRANCH   1  21
TORSDOF 6
