REMARK  Name = ZINC20150394
REMARK  9 active torsions:
REMARK  status: ('A' for Active; 'I' for Inactive)
REMARK    1  A    between atoms: C_1  and  C_2
REMARK    2  A    between atoms: C_2  and  C_3
REMARK    3  A    between atoms: C_3  and  C_4
REMARK    4  A    between atoms: C_4  and  C_23
REMARK    5  A    between atoms: C_9  and  C_12
REMARK    6  A    between atoms: N_19  and  C_22
REMARK    7  A    between atoms: C_23  and  O_25
REMARK    8  A    between atoms: O_25  and  C_26
REMARK    9  A    between atoms: C_26  and  C_27
REMARK                            x       y       z     vdW  Elec       q    Type
REMARK                         _______ _______ _______ _____ _____    ______ ____
ROOT
ATOM      1  C   UNL     1      -1.413  -2.063   0.004  0.00  0.00    +0.044 C 
ATOM      2  C   UNL     1      -2.821  -2.607  -0.169  0.00  0.00    +0.086 C 
ATOM      3  C   UNL     1      -2.890  -2.578  -1.744  0.00  0.00    +0.080 C 
ATOM      4  C   UNL     1      -1.622  -3.227  -2.117  0.00  0.00    +0.010 C 
ATOM      5  N   UNL     1      -0.642  -2.563  -1.174  0.00  0.00    +0.397 N 
ATOM      6  C   UNL     1      -4.307  -2.703  -1.976  0.00  0.00    +0.224 C 
ATOM      7  O   UNL     1      -4.856  -3.272  -2.896  0.00  0.00    -0.275 OA
ATOM      8  N   UNL     1      -4.901  -2.039  -0.931  0.00  0.00    -0.245 N 
ATOM      9  C   UNL     1      -4.024  -1.757   0.093  0.00  0.00    +0.225 C 
ATOM     10  O   UNL     1      -4.186  -0.981   1.010  0.00  0.00    -0.275 OA
ATOM     11  C   UNL     1      -6.320  -1.678  -0.901  0.00  0.00    +0.141 C 
ATOM     12  H   UNL     1      -0.184  -1.791  -1.635  0.00  0.00    -0.083 HD
ATOM     13  H   UNL     1       0.044  -3.238  -0.872  0.00  0.00    -0.083 HD
ENDROOT
BRANCH   4  14
ATOM     14  C   UNL     1      -1.695  -4.715  -1.891  0.00  0.00    +0.092 A 
ATOM     15  C   UNL     1      -1.914  -5.645  -2.837  0.00  0.00    +0.043 A 
ATOM     16  C   UNL     1      -1.902  -6.901  -2.188  0.00  0.00    +0.041 A 
ATOM     17  C   UNL     1      -1.677  -6.663  -0.883  0.00  0.00    +0.195 A 
ATOM     18  O   UNL     1      -1.546  -5.338  -0.710  0.00  0.00    -0.469 OA
ENDBRANCH   4  14
BRANCH   1  19
ATOM     19  C   UNL     1      -0.805  -2.583   1.282  0.00  0.00    +0.297 C 
ATOM     20  O   UNL     1      -1.518  -2.904   2.203  0.00  0.00    -0.252 OA
BRANCH  19  21
ATOM     21  O   UNL     1       0.528  -2.689   1.397  0.00  0.00    -0.466 OA
BRANCH  21  22
ATOM     22  C   UNL     1       1.035  -3.188   2.636  0.00  0.00    +0.228 C 
ATOM     23  C   UNL     1       2.563  -3.237   2.580  0.00  0.00    +0.048 C 
ENDBRANCH  21  22
ENDBRANCH  19  21
ENDBRANCH   1  19
BRANCH   1  24
ATOM     24  C   UNL     1      -1.433  -0.534   0.013  0.00  0.00    -0.001 C 
BRANCH  24  26
ATOM     25  C   UNL     1      -0.019   1.526   0.010  0.00  0.00    +0.004 C 
ATOM     26  C   UNL     1       0.002  -0.004   0.002  0.00  0.00    -0.004 C 
ENDBRANCH  24  26
ENDBRANCH   1  24
TORSDOF 6
