REMARK  Name = ZINC04866133
REMARK  7 active torsions:
REMARK  status: ('A' for Active; 'I' for Inactive)
REMARK    1  A    between atoms: C_1  and  C_2
REMARK    2  A    between atoms: C_2  and  C_27
REMARK    3  A    between atoms: C_8  and  C_19
REMARK    4  A    between atoms: C_16  and  C_17
REMARK    5  A    between atoms: C_16  and  C_18
REMARK    6  A    between atoms: C_19  and  O_20
REMARK    7  A    between atoms: O_20  and  C_21
REMARK                            x       y       z     vdW  Elec       q    Type
REMARK                         _______ _______ _______ _____ _____    ______ ____
ROOT
ATOM      1  C   UNL     1       7.706  -1.355  -6.456  0.00  0.00    -0.010 C 
ATOM      2  C   UNL     1       8.681  -2.009  -5.381  0.00  0.00    -0.069 C 
ATOM      3  C   UNL     1       7.877  -2.189  -4.072  0.00  0.00    +0.024 C 
ATOM      4  C   UNL     1       8.675  -2.992  -3.028  0.00  0.00    -0.027 A 
ATOM      5  C   UNL     1       8.530  -2.863  -1.593  0.00  0.00    +0.055 A 
ATOM      6  C   UNL     1       7.591  -2.067  -0.810  0.00  0.00    +0.168 A 
ATOM      7  N   UNL     1       6.606  -1.204  -1.231  0.00  0.00    -0.207 NA
ATOM      8  C   UNL     1       6.035  -0.777  -0.062  0.00  0.00    +0.189 A 
ATOM      9  N   UNL     1       6.572  -1.334   0.976  0.00  0.00    -0.145 NA
ATOM     10  N   UNL     1       7.609  -2.160   0.533  0.00  0.00    -0.201 N 
ATOM     11  C   UNL     1       8.473  -2.901   1.093  0.00  0.00    +0.226 A 
ATOM     12  N   UNL     1       9.393  -3.578   0.513  0.00  0.00    -0.228 NA
ATOM     13  C   UNL     1       9.419  -3.611  -0.868  0.00  0.00    +0.114 A 
ATOM     14  S   UNL     1      10.444  -4.408  -2.021  0.00  0.00    -0.075 S 
ATOM     15  C   UNL     1       9.664  -3.735  -3.523  0.00  0.00    -0.016 A 
ATOM     16  C   UNL     1      10.035  -4.023  -4.929  0.00  0.00    -0.041 C 
ATOM     17  C   UNL     1       9.690  -5.553  -5.210  0.00  0.00    -0.005 C 
ATOM     18  C   UNL     1      11.468  -3.790  -5.204  0.00  0.00    -0.005 C 
ATOM     19  C   UNL     1       9.802  -0.938  -5.071  0.00  0.00    -0.010 C 
ATOM     20  N   UNL     1       9.185  -3.284  -5.881  0.00  0.00    +0.389 N 
ATOM     21  H   UNL     1       9.736  -3.100  -6.728  0.00  0.00    -0.084 HD
ATOM     22  H   UNL     1       8.380  -3.875  -6.119  0.00  0.00    -0.084 HD
ENDROOT
BRANCH   8  23
ATOM     23  C   UNL     1       4.772   0.164  -0.044  0.00  0.00    +0.306 C 
BRANCH  23  24
ATOM     24  O   UNL     1       3.586  -0.632  -0.037  0.00  0.00    -0.484 OA
BRANCH  24  25
ATOM     25  C   UNL     1       2.399   0.030  -0.021  0.00  0.00    +0.121 A 
ATOM     26  C   UNL     1       1.207  -0.680  -0.014  0.00  0.00    +0.045 A 
ATOM     27  C   UNL     1       0.002  -0.004   0.002  0.00  0.00    +0.004 A 
ATOM     28  C   UNL     1      -0.017   1.378   0.010  0.00  0.00    +0.000 A 
ATOM     29  C   UNL     1       1.170   2.088   0.002  0.00  0.00    +0.004 A 
ATOM     30  C   UNL     1       2.377   1.417  -0.013  0.00  0.00    +0.045 A 
ENDBRANCH  24  25
ENDBRANCH  23  24
ENDBRANCH   8  23
TORSDOF 3
