REMARK  Name = ZINC23590568
REMARK  8 active torsions:
REMARK  status: ('A' for Active; 'I' for Inactive)
REMARK    1  A    between atoms: C_1  and  C_2
REMARK    2  A    between atoms: C_2  and  C_4
REMARK    3  A    between atoms: C_2  and  S_18
REMARK    4  A    between atoms: N_6  and  C_7
REMARK    5  A    between atoms: C_9  and  N_15
REMARK    6  A    between atoms: C_12  and  O_13
REMARK    7  A    between atoms: O_13  and  C_14
REMARK    8  A    between atoms: S_18  and  C_19
REMARK                            x       y       z     vdW  Elec       q    Type
REMARK                         _______ _______ _______ _____ _____    ______ ____
ROOT
ATOM      1  C   UNL     1      -0.029   1.321   0.397  0.00  0.00    +0.029 C 
ATOM      2  C   UNL     1      -0.085  -0.207   0.332  0.00  0.00    +0.137 C 
ENDROOT
BRANCH   2   3
ATOM      3  C   UNL     1       0.522  -0.785   1.584  0.00  0.00    +0.230 C 
ATOM      4  O   UNL     1      -0.195  -1.171   2.483  0.00  0.00    -0.274 OA
ATOM      5  N   UNL     1       1.861  -0.874   1.705  0.00  0.00    -0.282 N 
ATOM      6  H   UNL     1       2.513  -0.465   0.918  0.00  0.00    +0.155 HD
BRANCH   5   7
ATOM      7  C   UNL     1       2.424  -1.486   2.833  0.00  0.00    +0.078 A 
ATOM      8  C   UNL     1       1.720  -1.525   4.027  0.00  0.00    +0.059 A 
ATOM      9  C   UNL     1       2.275  -2.134   5.137  0.00  0.00    +0.128 A 
ATOM     10  C   UNL     1       3.537  -2.695   5.063  0.00  0.00    +0.036 A 
ATOM     11  C   UNL     1       4.247  -2.655   3.878  0.00  0.00    +0.050 A 
ATOM     12  C   UNL     1       3.695  -2.051   2.759  0.00  0.00    +0.141 A 
BRANCH   9  13
ATOM     13  N   UNL     1       1.520  -2.179   6.409  0.00  0.00    +0.056 N 
ATOM     14  O   UNL     1       2.010  -2.711   7.390  0.00  0.00    -0.126 OA
ATOM     15  O   UNL     1       0.409  -1.685   6.476  0.00  0.00    -0.126 OA
ENDBRANCH   9  13
BRANCH  12  16
ATOM     16  O   UNL     1       4.393  -2.011   1.593  0.00  0.00    -0.493 OA
ATOM     17  C   UNL     1       5.689  -2.611   1.591  0.00  0.00    +0.277 C 
ENDBRANCH  12  16
ENDBRANCH   5   7
ENDBRANCH   2   3
BRANCH   2  18
ATOM     18  S   UNL     1      -1.809  -0.741   0.195  0.00  0.00    -0.073 S 
BRANCH  18  19
ATOM     19  C   UNL     1      -2.213  -0.069  -1.383  0.00  0.00    +0.192 A 
ATOM     20  N   UNL     1      -1.292   0.609  -2.058  0.00  0.00    -0.207 NA
ATOM     21  C   UNL     1      -1.535   1.131  -3.248  0.00  0.00    +0.129 A 
ATOM     22  C   UNL     1      -2.826   0.975  -3.825  0.00  0.00    +0.051 A 
ATOM     23  C   UNL     1      -3.317   1.467  -5.114  0.00  0.00    -0.025 A 
ATOM     24  C   UNL     1      -4.595   1.181  -5.431  0.00  0.00    -0.004 A 
ATOM     25  S   UNL     1      -5.217   0.253  -4.055  0.00  0.00    -0.073 S 
ATOM     26  C   UNL     1      -3.754   0.250  -3.052  0.00  0.00    +0.115 A 
ATOM     27  N   UNL     1      -3.433  -0.245  -1.872  0.00  0.00    -0.214 NA
ATOM     28  C   UNL     1      -5.329   1.567  -6.680  0.00  0.00    +0.043 C 
ATOM     29  C   UNL     1      -4.524   2.660  -7.397  0.00  0.00    +0.005 C 
ATOM     30  C   UNL     1      -3.058   2.225  -7.466  0.00  0.00    +0.005 C 
ATOM     31  C   UNL     1      -2.437   2.269  -6.069  0.00  0.00    +0.037 C 
ATOM     32  N   UNL     1      -0.547   1.827  -3.921  0.00  0.00    -0.343 N 
ATOM     33  H   UNL     1      -0.756   2.259  -4.911  0.00  0.00    +0.144 HD
ATOM     34  H   UNL     1       0.448   1.948  -3.467  0.00  0.00    +0.144 HD
ENDBRANCH  18  19
ENDBRANCH   2  18
TORSDOF 6
