REMARK  Name = ZINC13446836
REMARK  10 active torsions:
REMARK  status: ('A' for Active; 'I' for Inactive)
REMARK    1  A    between atoms: C_1  and  C_2
REMARK    2  A    between atoms: C_2  and  C_3
REMARK    3  A    between atoms: C_2  and  C_4
REMARK    4  A    between atoms: C_4  and  C_6
REMARK    5  A    between atoms: C_4  and  N_8
REMARK    6  A    between atoms: C_9  and  C_26
REMARK    7  A    between atoms: C_12  and  S_13
REMARK    8  A    between atoms: S_13  and  C_14
REMARK    9  A    between atoms: C_14  and  C_15
REMARK   10  A    between atoms: N_17  and  C_18
REMARK                            x       y       z     vdW  Elec       q    Type
REMARK                         _______ _______ _______ _____ _____    ______ ____
ROOT
ATOM      1  N   UNL     1       1.386   1.579   2.510  0.00  0.00    -0.287 N 
ATOM      2  C   UNL     1       2.547   0.838   2.511  0.00  0.00    +0.172 A 
ATOM      3  N   UNL     1       3.548   1.691   2.506  0.00  0.00    -0.128 NA
ATOM      4  N   UNL     1       3.098   2.895   2.510  0.00  0.00    -0.122 NA
ATOM      5  C   UNL     1       1.785   2.887   2.513  0.00  0.00    +0.193 A 
ENDROOT
BRANCH   2   6
ATOM      6  C   UNL     1       2.649  -0.630   2.514  0.00  0.00    +0.056 A 
ATOM      7  C   UNL     1       3.735  -1.422   2.239  0.00  0.00    +0.019 A 
ATOM      8  C   UNL     1       3.588  -2.790   2.305  0.00  0.00    +0.008 A 
ATOM      9  C   UNL     1       2.380  -3.311   2.640  0.00  0.00    +0.046 A 
ATOM     10  S   UNL     1       1.392  -1.844   2.882  0.00  0.00    -0.094 S 
ENDBRANCH   2   6
BRANCH   1  11
ATOM     11  C   UNL     1       0.012   1.072   2.512  0.00  0.00    +0.206 C 
BRANCH  11  13
ATOM     12  C   UNL     1       0.006   1.078   0.014  0.00  0.00    +0.010 C 
ATOM     13  C   UNL     1      -0.719   1.575   1.266  0.00  0.00    +0.017 C 
ATOM     14  C   UNL     1      -2.155   1.046   1.268  0.00  0.00    +0.010 C 
ENDBRANCH  11  13
BRANCH  11  15
ATOM     15  C   UNL     1      -0.702   1.562   3.746  0.00  0.00    +0.379 C 
ATOM     16  O   UNL     1      -1.694   2.243   3.639  0.00  0.00    -0.244 OA
ATOM     17  O   UNL     1      -0.236   1.241   4.963  0.00  0.00    -0.244 OA
ENDBRANCH  11  15
ENDBRANCH   1  11
BRANCH   5  18
ATOM     18  S   UNL     1       0.732   4.300   2.518  0.00  0.00    -0.077 S 
BRANCH  18  19
ATOM     19  C   UNL     1       1.973   5.617   2.520  0.00  0.00    +0.173 C 
BRANCH  19  20
ATOM     20  C   UNL     1       1.284   6.957   2.524  0.00  0.00    +0.227 C 
ATOM     21  O   UNL     1       0.072   7.016   2.527  0.00  0.00    -0.275 OA
ATOM     22  N   UNL     1       2.013   8.091   2.526  0.00  0.00    -0.285 N 
ATOM     23  H   UNL     1       2.980   8.045   2.592  0.00  0.00    +0.155 HD
BRANCH  22  24
ATOM     24  C   UNL     1       1.376   9.333   2.433  0.00  0.00    +0.039 A 
ATOM     25  C   UNL     1       1.981  10.374   1.742  0.00  0.00    +0.061 A 
ATOM     26  C   UNL     1       1.347  11.600   1.646  0.00  0.00    +0.128 A 
ATOM     27  C   UNL     1       0.115  11.792   2.248  0.00  0.00    +0.076 A 
ATOM     28  C   UNL     1      -0.487  10.757   2.943  0.00  0.00    +0.128 A 
ATOM     29  C   UNL     1       0.141   9.528   3.036  0.00  0.00    +0.061 A 
ATOM     30  F   UNL     1      -1.689  10.947   3.530  0.00  0.00    -0.205 F 
ATOM     31  F   UNL     1       1.933  12.612   0.969  0.00  0.00    -0.205 F 
ENDBRANCH  22  24
ENDBRANCH  19  20
ENDBRANCH  18  19
ENDBRANCH   5  18
TORSDOF 8
