REMARK  Name = ZINC01327703
REMARK  7 active torsions:
REMARK  status: ('A' for Active; 'I' for Inactive)
REMARK    1  A    between atoms: C_1  and  C_2
REMARK    2  A    between atoms: C_9  and  C_12
REMARK    3  A    between atoms: N_15  and  S_18
REMARK    4  A    between atoms: S_18  and  C_21
REMARK    5  A    between atoms: C_24  and  S_27
REMARK    6  A    between atoms: S_27  and  N_30
REMARK    7  A    between atoms: N_30  and  C_31
REMARK                            x       y       z     vdW  Elec       q    Type
REMARK                         _______ _______ _______ _____ _____    ______ ____
ROOT
ATOM      1  S   UNL     1       2.296  -3.603  -1.091  0.00  0.00    +0.061 S 
ATOM      2  O   UNL     1       2.787  -4.285   0.056  0.00  0.00    -0.153 OA
ATOM      3  O   UNL     1       1.714  -4.287  -2.192  0.00  0.00    -0.153 OA
ENDROOT
BRANCH   1   7
ATOM      4  C   UNL     1       0.002  -0.004   0.002  0.00  0.00    +0.057 C 
ATOM      5  C   UNL     1       1.198  -0.502   0.816  0.00  0.00    +0.028 C 
ATOM      6  C   UNL     1       1.196  -2.034   0.835  0.00  0.00    +0.110 C 
ATOM      7  N   UNL     1       1.163  -2.523  -0.550  0.00  0.00    -0.177 NA
ATOM      8  C   UNL     1       0.106  -2.036  -1.447  0.00  0.00    +0.110 C 
ATOM      9  C   UNL     1       0.120  -0.504  -1.439  0.00  0.00    +0.028 C 
BRANCH   4  18
ATOM     10  C   UNL     1      -1.646   7.215   0.054  0.00  0.00    +0.044 C 
ATOM     11  C   UNL     1      -0.846   5.938   0.040  0.00  0.00    -0.048 A 
ATOM     12  C   UNL     1       0.541   5.997   0.028  0.00  0.00    +0.005 A 
ATOM     13  C   UNL     1       1.289   4.839   0.015  0.00  0.00    +0.028 A 
ATOM     14  C   UNL     1       0.650   3.607   0.015  0.00  0.00    +0.066 A 
ATOM     15  C   UNL     1      -0.754   3.548   0.028  0.00  0.00    +0.089 A 
ATOM     16  C   UNL     1      -1.492   4.735   0.040  0.00  0.00    +0.033 A 
ATOM     17  N   UNL     1      -1.095   2.234   0.019  0.00  0.00    -0.232 NA
ATOM     18  C   UNL     1      -0.018   1.503   0.010  0.00  0.00    +0.111 A 
ATOM     19  N   UNL     1       1.086   2.297   0.004  0.00  0.00    -0.342 N 
ATOM     20  H   UNL     1       2.037   1.990  -0.006  0.00  0.00    +0.167 HD
ENDBRANCH   4  18
ENDBRANCH   1   7
BRANCH   1  21
ATOM     21  C   UNL     1       3.643  -2.667  -1.735  0.00  0.00    +0.106 A 
ATOM     22  C   UNL     1       3.658  -2.305  -3.069  0.00  0.00    +0.030 A 
ATOM     23  C   UNL     1       4.712  -1.567  -3.573  0.00  0.00    +0.030 A 
ATOM     24  C   UNL     1       5.756  -1.197  -2.745  0.00  0.00    +0.105 A 
ATOM     25  C   UNL     1       5.743  -1.563  -1.412  0.00  0.00    +0.030 A 
ATOM     26  C   UNL     1       4.687  -2.298  -0.907  0.00  0.00    +0.030 A 
BRANCH  24  27
ATOM     27  S   UNL     1       7.102  -0.260  -3.389  0.00  0.00    +0.059 S 
ATOM     28  O   UNL     1       6.611   0.421  -4.535  0.00  0.00    -0.153 OA
ATOM     29  O   UNL     1       7.684   0.424  -2.287  0.00  0.00    -0.153 OA
BRANCH  27  30
ATOM     30  N   UNL     1       8.236  -1.339  -3.928  0.00  0.00    -0.187 NA
ATOM     31  H   UNL     1       9.105  -1.385  -3.499  0.00  0.00    +0.148 HD
BRANCH  30  32
ATOM     32  C   UNL     1       7.927  -2.225  -5.054  0.00  0.00    +0.077 C 
ATOM     33  C   UNL     1       7.493  -3.610  -4.533  0.00  0.00    +0.020 C 
ATOM     34  C   UNL     1       8.102  -4.607  -5.550  0.00  0.00    +0.002 C 
ATOM     35  C   UNL     1       9.475  -3.967  -5.875  0.00  0.00    +0.002 C 
ATOM     36  C   UNL     1       9.187  -2.452  -5.907  0.00  0.00    +0.020 C 
ENDBRANCH  30  32
ENDBRANCH  27  30
ENDBRANCH  24  27
ENDBRANCH   1  21
TORSDOF 6
