REMARK  Name = ZINC32219919
REMARK  5 active torsions:
REMARK  status: ('A' for Active; 'I' for Inactive)
REMARK    1  A    between atoms: C_1  and  C_2
REMARK    2  A    between atoms: C_3  and  C_17
REMARK    3  A    between atoms: C_10  and  N_14
REMARK    4  A    between atoms: C_11  and  O_12
REMARK    5  A    between atoms: O_12  and  C_13
REMARK                            x       y       z     vdW  Elec       q    Type
REMARK                         _______ _______ _______ _____ _____    ______ ____
ROOT
ATOM      1  C   UNL     1      -3.788   6.775   0.297  0.00  0.00    +0.046 C 
ATOM      2  C   UNL     1      -3.237   5.375   0.376  0.00  0.00    -0.022 A 
ATOM      3  C   UNL     1      -3.802   4.265  -0.126  0.00  0.00    +0.017 A 
ATOM      4  N   UNL     1      -3.013   3.179   0.139  0.00  0.00    -0.355 N 
ATOM      5  H   UNL     1      -3.322   2.180  -0.200  0.00  0.00    +0.166 HD
ATOM      6  C   UNL     1      -1.892   3.575   0.837  0.00  0.00    +0.091 A 
ATOM      7  C   UNL     1      -1.984   4.966   1.015  0.00  0.00    +0.007 A 
ATOM      8  C   UNL     1      -0.974   5.650   1.697  0.00  0.00    +0.013 A 
ATOM      9  C   UNL     1       0.100   4.964   2.188  0.00  0.00    +0.037 A 
ATOM     10  C   UNL     1       0.196   3.590   2.022  0.00  0.00    +0.170 A 
ATOM     11  C   UNL     1      -0.787   2.892   1.346  0.00  0.00    +0.174 A 
ATOM     12  C   UNL     1      -5.111   4.222  -0.871  0.00  0.00    +0.063 C 
ENDROOT
BRANCH  10  13
ATOM     13  N   UNL     1       1.366   2.865   2.568  0.00  0.00    +0.060 N 
ATOM     14  O   UNL     1       2.236   3.474   3.164  0.00  0.00    -0.126 OA
ATOM     15  O   UNL     1       1.458   1.659   2.421  0.00  0.00    -0.126 OA
ENDBRANCH  10  13
BRANCH  11  16
ATOM     16  O   UNL     1      -0.682   1.547   1.184  0.00  0.00    -0.491 OA
ATOM     17  C   UNL     1      -0.013   1.086   0.008  0.00  0.00    +0.277 C 
ENDBRANCH  11  16
TORSDOF 2
