REMARK  Name = ZINC09391497
REMARK  15 active torsions:
REMARK  status: ('A' for Active; 'I' for Inactive)
REMARK    1  A    between atoms: C_1  and  C_2
REMARK    2  A    between atoms: C_2  and  C_35
REMARK    3  A    between atoms: C_5  and  C_31
REMARK    4  A    between atoms: C_6  and  N_12
REMARK    5  A    between atoms: C_9  and  C_10
REMARK    6  A    between atoms: C_9  and  C_11
REMARK    7  A    between atoms: C_13  and  C_15
REMARK    8  A    between atoms: C_18  and  S_21
REMARK    9  A    between atoms: S_21  and  N_24
REMARK   10  A    between atoms: N_24  and  C_25
REMARK   11  A    between atoms: N_24  and  C_28
REMARK   12  A    between atoms: C_25  and  C_26
REMARK   13  A    between atoms: C_28  and  C_29
REMARK   14  A    between atoms: C_31  and  O_33
REMARK   15  A    between atoms: O_33  and  C_34
REMARK                            x       y       z     vdW  Elec       q    Type
REMARK                         _______ _______ _______ _____ _____    ______ ____
ROOT
ATOM      1  N   UNL     1       3.759  -0.084  -0.044  0.00  0.00    -0.275 N 
ATOM      2  C   UNL     1       4.691   0.889  -0.047  0.00  0.00    +0.249 C 
ATOM      3  O   UNL     1       4.351   2.056  -0.033  0.00  0.00    -0.270 OA
ATOM      4  H   UNL     1       4.030  -1.016  -0.056  0.00  0.00    +0.156 HD
ENDROOT
BRANCH   1  10
ATOM      5  C   UNL     1      -3.704  -0.574   0.715  0.00  0.00    -0.010 C 
ATOM      6  C   UNL     1      -2.330   0.117   0.792  0.00  0.00    -0.069 C 
ATOM      7  C   UNL     1      -1.326  -0.749   0.022  0.00  0.00    +0.024 C 
ATOM      8  C   UNL     1       0.002  -0.004   0.002  0.00  0.00    -0.024 A 
ATOM      9  C   UNL     1       1.316  -0.611  -0.020  0.00  0.00    +0.091 A 
ATOM     10  C   UNL     1       2.414   0.245  -0.025  0.00  0.00    +0.086 A 
ATOM     11  S   UNL     1       1.689   1.819  -0.004  0.00  0.00    -0.079 S 
ATOM     12  C   UNL     1      -0.016   1.349   0.009  0.00  0.00    -0.016 A 
ATOM     13  C   UNL     1      -1.229   2.222   0.018  0.00  0.00    -0.041 C 
ATOM     14  C   UNL     1      -1.078   3.290   1.110  0.00  0.00    -0.005 C 
ATOM     15  C   UNL     1      -1.318   2.941  -1.341  0.00  0.00    -0.005 C 
ATOM     16  C   UNL     1      -1.917   0.178   2.266  0.00  0.00    -0.010 C 
ATOM     17  N   UNL     1      -2.504   1.474   0.214  0.00  0.00    +0.389 N 
ATOM     18  H   UNL     1      -3.104   2.019   0.845  0.00  0.00    -0.084 HD
ATOM     19  H   UNL     1      -2.966   1.379  -0.698  0.00  0.00    -0.084 HD
BRANCH   9  20
ATOM     20  C   UNL     1       1.497  -2.064  -0.038  0.00  0.00    +0.342 C 
ATOM     21  O   UNL     1       1.560  -2.656  -1.099  0.00  0.00    -0.245 OA
BRANCH  20  22
ATOM     22  O   UNL     1       1.594  -2.746   1.122  0.00  0.00    -0.464 OA
ATOM     23  C   UNL     1       1.772  -4.184   1.028  0.00  0.00    +0.280 C 
ENDBRANCH  20  22
ENDBRANCH   9  20
ENDBRANCH   1  10
BRANCH   2  24
ATOM     24  C   UNL     1       6.126   0.538  -0.067  0.00  0.00    +0.037 A 
ATOM     25  C   UNL     1       6.520  -0.802  -0.078  0.00  0.00    +0.015 A 
ATOM     26  C   UNL     1       7.861  -1.123  -0.102  0.00  0.00    +0.029 A 
ATOM     27  C   UNL     1       8.816  -0.121  -0.105  0.00  0.00    +0.106 A 
ATOM     28  C   UNL     1       8.432   1.209  -0.088  0.00  0.00    +0.029 A 
ATOM     29  C   UNL     1       7.094   1.544  -0.070  0.00  0.00    +0.015 A 
BRANCH  27  30
ATOM     30  S   UNL     1      10.527  -0.540  -0.130  0.00  0.00    +0.061 S 
ATOM     31  O   UNL     1      10.618  -1.841  -0.693  0.00  0.00    -0.153 OA
ATOM     32  O   UNL     1      11.211   0.578  -0.679  0.00  0.00    -0.153 OA
BRANCH  30  33
ATOM     33  N   UNL     1      11.022  -0.670   1.445  0.00  0.00    -0.169 NA
BRANCH  33  34
ATOM     34  C   UNL     1      10.939  -1.960   2.135  0.00  0.00    +0.136 C 
BRANCH  34  35
ATOM     35  C   UNL     1      12.266  -2.668   2.037  0.00  0.00    -0.018 C 
ATOM     36  C   UNL     1      12.876  -3.071   3.124  0.00  0.00    +0.005 C 
ENDBRANCH  34  35
ENDBRANCH  33  34
BRANCH  33  37
ATOM     37  C   UNL     1      11.543   0.505   2.149  0.00  0.00    +0.136 C 
BRANCH  37  38
ATOM     38  C   UNL     1      10.431   1.157   2.929  0.00  0.00    -0.018 C 
ATOM     39  C   UNL     1      10.567   1.363   4.216  0.00  0.00    +0.005 C 
ENDBRANCH  37  38
ENDBRANCH  33  37
ENDBRANCH  30  33
ENDBRANCH  27  30
ENDBRANCH   2  24
TORSDOF 10
