REMARK  Name = ZINC63642953
REMARK  9 active torsions:
REMARK  status: ('A' for Active; 'I' for Inactive)
REMARK    1  A    between atoms: C_1  and  C_2
REMARK    2  A    between atoms: C_2  and  O_3
REMARK    3  A    between atoms: O_3  and  C_4
REMARK    4  A    between atoms: C_4  and  C_6
REMARK    5  A    between atoms: C_18  and  N_20
REMARK    6  A    between atoms: C_21  and  C_23
REMARK    7  A    between atoms: C_23  and  C_25
REMARK    8  A    between atoms: C_23  and  S_26
REMARK    9  A    between atoms: S_26  and  C_27
REMARK                            x       y       z     vdW  Elec       q    Type
REMARK                         _______ _______ _______ _____ _____    ______ ____
ROOT
ATOM      1  N   UNL     1       1.226  -1.234  -4.897  0.00  0.00    -0.302 N 
ATOM      2  C   UNL     1       1.250  -1.452  -6.227  0.00  0.00    +0.227 C 
ATOM      3  O   UNL     1       0.374  -2.110  -6.749  0.00  0.00    -0.275 OA
ATOM      4  H   UNL     1       1.927  -0.708  -4.480  0.00  0.00    +0.150 HD
ENDROOT
BRANCH   1  14
ATOM      5  C   UNL     1       0.704  -2.430  -2.796  0.00  0.00    +0.132 C 
ATOM      6  C   UNL     1       0.518  -3.937  -2.739  0.00  0.00    +0.018 C 
ATOM      7  C   UNL     1       0.306  -4.434  -1.310  0.00  0.00    +0.005 C 
ATOM      8  C   UNL     1       1.106  -5.692  -1.061  0.00  0.00    +0.000 C 
ATOM      9  C   UNL     1       1.062  -6.674  -2.254  0.00  0.00    +0.000 C 
ATOM     10  C   UNL     1      -0.344  -6.762  -2.824  0.00  0.00    +0.001 C 
ATOM     11  C   UNL     1      -0.564  -5.774  -3.964  0.00  0.00    +0.014 C 
ATOM     12  C   UNL     1      -0.775  -4.357  -3.518  0.00  0.00    +0.052 C 
ATOM     13  S   UNL     1      -0.656  -3.201  -4.947  0.00  0.00    -0.134 S 
ATOM     14  C   UNL     1       0.143  -1.790  -4.082  0.00  0.00    +0.145 C 
BRANCH   5  15
ATOM     15  C   UNL     1       0.009  -1.813  -1.609  0.00  0.00    +0.313 C 
ATOM     16  O   UNL     1      -1.193  -1.883  -1.509  0.00  0.00    -0.250 OA
BRANCH  15  17
ATOM     17  O   UNL     1       0.727  -1.188  -0.662  0.00  0.00    -0.465 OA
BRANCH  17  19
ATOM     18  C   UNL     1       0.982   0.040   1.404  0.00  0.00    +0.048 C 
ATOM     19  C   UNL     1       0.003  -0.627   0.435  0.00  0.00    +0.229 C 
ENDBRANCH  17  19
ENDBRANCH  15  17
ENDBRANCH   5  15
ENDBRANCH   1  14
BRANCH   2  20
ATOM     20  C   UNL     1       2.364  -0.881  -7.066  0.00  0.00    +0.134 C 
ATOM     21  C   UNL     1       3.563  -1.830  -7.036  0.00  0.00    +0.029 C 
BRANCH  20  22
ATOM     22  S   UNL     1       1.792  -0.680  -8.775  0.00  0.00    -0.115 S 
BRANCH  22  23
ATOM     23  C   UNL     1       2.963   0.260  -9.483  0.00  0.00    +0.014 C 
ATOM     24  C   UNL     1       3.058   0.616 -10.825  0.00  0.00    +0.009 A 
ATOM     25  C   UNL     1       2.256   0.319 -11.948  0.00  0.00    +0.011 A 
ATOM     26  C   UNL     1       2.595   0.812 -13.167  0.00  0.00    +0.001 A 
ATOM     27  C   UNL     1       3.726   1.611 -13.343  0.00  0.00    +0.002 A 
ATOM     28  C   UNL     1       4.541   1.935 -12.308  0.00  0.00    +0.026 A 
ATOM     29  C   UNL     1       4.250   1.457 -11.005  0.00  0.00    +0.044 A 
ATOM     30  N   UNL     1       4.874   1.627  -9.854  0.00  0.00    -0.379 N 
ATOM     31  C   UNL     1       4.144   0.914  -8.801  0.00  0.00    +0.155 C 
ATOM     32  H   UNL     1       5.685   2.145  -9.725  0.00  0.00    +0.160 HD
ENDBRANCH  22  23
ENDBRANCH  20  22
ENDBRANCH   2  20
TORSDOF 7
