REMARK  Name = ZINC19880742
REMARK  6 active torsions:
REMARK  status: ('A' for Active; 'I' for Inactive)
REMARK    1  A    between atoms: C_1  and  C_2
REMARK    2  A    between atoms: C_3  and  C_4
REMARK    3  A    between atoms: C_4  and  N_5
REMARK    4  A    between atoms: N_13  and  C_27
REMARK    5  A    between atoms: N_17  and  N_18
REMARK    6  A    between atoms: C_19  and  C_20
REMARK                            x       y       z     vdW  Elec       q    Type
REMARK                         _______ _______ _______ _____ _____    ______ ____
ROOT
ATOM      1  N   UNL     1      -7.266   1.032   0.042  0.00  0.00    -0.301 N 
ATOM      2  C   UNL     1      -8.194   2.064   0.052  0.00  0.00    +0.153 A 
ATOM      3  C   UNL     1      -9.600   2.124   0.059  0.00  0.00    +0.280 A 
ATOM      4  O   UNL     1     -10.260   1.099   0.056  0.00  0.00    -0.265 OA
ATOM      5  N   UNL     1     -10.209   3.327   0.070  0.00  0.00    -0.273 N 
ATOM      6  H   UNL     1     -11.307   3.388   0.076  0.00  0.00    +0.173 HD
ATOM      7  C   UNL     1      -9.494   4.465   0.072  0.00  0.00    +0.331 A 
ATOM      8  O   UNL     1     -10.077   5.532   0.081  0.00  0.00    -0.246 OA
ATOM      9  N   UNL     1      -8.148   4.453   0.065  0.00  0.00    -0.280 N 
ATOM     10  C   UNL     1      -7.464   3.248   0.055  0.00  0.00    +0.170 A 
ATOM     11  N   UNL     1      -6.171   2.923   0.053  0.00  0.00    -0.195 NA
ATOM     12  C   UNL     1      -6.036   1.612   0.039  0.00  0.00    +0.218 A 
ATOM     13  N   UNL     1      -4.838   0.936   0.030  0.00  0.00    -0.206 N 
ATOM     14  C   UNL     1      -7.404   5.716   0.069  0.00  0.00    +0.155 C 
ATOM     15  H   UNL     1      -4.827  -0.164   0.024  0.00  0.00    +0.177 HD
ENDROOT
BRANCH  13  16
ATOM     16  N   UNL     1      -3.631   1.648   0.028  0.00  0.00    -0.188 NA
ATOM     17  C   UNL     1      -2.501   1.010   0.019  0.00  0.00    +0.138 C 
BRANCH  17  18
ATOM     18  C   UNL     1      -1.231   1.759   0.017  0.00  0.00    -0.005 A 
ATOM     19  C   UNL     1      -0.013   1.076   0.008  0.00  0.00    +0.010 A 
ATOM     20  C   UNL     1       1.171   1.783   0.001  0.00  0.00    +0.016 A 
ATOM     21  C   UNL     1       1.154   3.168   0.008  0.00  0.00    +0.018 A 
ATOM     22  C   UNL     1      -0.050   3.851   0.023  0.00  0.00    +0.016 A 
ATOM     23  C   UNL     1      -1.241   3.156   0.031  0.00  0.00    +0.010 A 
ATOM     24 BR   UNL     1       2.783   4.129  -0.003  0.00  0.00    -0.050 Br
ENDBRANCH  17  18
ENDBRANCH  13  16
BRANCH   1  25
ATOM     25  C   UNL     1      -7.556  -0.404   0.036  0.00  0.00    +0.153 C 
BRANCH  25  28
ATOM     26  C   UNL     1      -9.865  -1.768   0.903  0.00  0.00    +0.057 C 
ATOM     27  C   UNL     1      -8.723  -1.538   1.858  0.00  0.00    +0.013 C 
ATOM     28  C   UNL     1      -7.648  -0.903   1.455  0.00  0.00    +0.010 C 
ATOM     29 CL   UNL     1      -8.829  -2.114   3.493  0.00  0.00    -0.089 Cl
ENDBRANCH  25  28
ENDBRANCH   1  25
TORSDOF 4
