REMARK  Name = ZINC40307858
REMARK  4 active torsions:
REMARK  status: ('A' for Active; 'I' for Inactive)
REMARK    1  A    between atoms: C_8  and  C_23
REMARK    2  A    between atoms: N_9  and  C_10
REMARK    3  A    between atoms: C_10  and  C_11
REMARK    4  A    between atoms: N_13  and  C_14
REMARK                            x       y       z     vdW  Elec       q    Type
REMARK                         _______ _______ _______ _____ _____    ______ ____
ROOT
ATOM      1  C   UNL     1      -0.010   1.369  -0.012  0.00  0.00    +0.002 A 
ATOM      2  C   UNL     1       1.176   2.089  -0.022  0.00  0.00    +0.002 A 
ATOM      3  C   UNL     1       2.391   1.437  -0.031  0.00  0.00    +0.028 A 
ATOM      4  C   UNL     1       2.427   0.050  -0.029  0.00  0.00    +0.070 A 
ATOM      5  C   UNL     1       1.226  -0.681  -0.018  0.00  0.00    +0.090 A 
ATOM      6  C   UNL     1       0.005   0.003  -0.010  0.00  0.00    +0.030 A 
ATOM      7  N   UNL     1       1.555  -1.996  -0.019  0.00  0.00    -0.225 NA
ATOM      8  C   UNL     1       2.862  -2.123  -0.029  0.00  0.00    +0.178 A 
ATOM      9  N   UNL     1       3.447  -0.883  -0.036  0.00  0.00    -0.312 N 
ENDROOT
BRANCH   8  10
ATOM     10  C   UNL     1       3.588  -3.402  -0.033  0.00  0.00    +0.170 A 
ATOM     11  C   UNL     1       3.056  -4.624  -0.318  0.00  0.00    +0.053 A 
ATOM     12  C   UNL     1       4.101  -5.558  -0.202  0.00  0.00    +0.042 A 
ATOM     13  C   UNL     1       5.210  -4.871   0.143  0.00  0.00    +0.196 A 
ATOM     14  O   UNL     1       4.898  -3.569   0.239  0.00  0.00    -0.460 OA
ENDBRANCH   8  10
BRANCH   9  15
ATOM     15  C   UNL     1       4.885  -0.599  -0.048  0.00  0.00    +0.220 C 
BRANCH  15  16
ATOM     16  C   UNL     1       5.389  -0.500   1.369  0.00  0.00    +0.237 C 
ATOM     17  O   UNL     1       4.623  -0.651   2.297  0.00  0.00    -0.274 OA
ATOM     18  N   UNL     1       6.691  -0.243   1.604  0.00  0.00    -0.284 N 
ATOM     19  H   UNL     1       7.316  -0.189   0.864  0.00  0.00    +0.155 HD
BRANCH  18  20
ATOM     20  C   UNL     1       7.141  -0.055   2.917  0.00  0.00    +0.037 A 
ATOM     21  C   UNL     1       8.152   0.861   3.180  0.00  0.00    +0.027 A 
ATOM     22  C   UNL     1       8.597   1.048   4.474  0.00  0.00    +0.051 A 
ATOM     23  C   UNL     1       8.037   0.323   5.514  0.00  0.00    +0.166 A 
ATOM     24  C   UNL     1       7.023  -0.596   5.253  0.00  0.00    +0.168 A 
ATOM     25  C   UNL     1       6.574  -0.779   3.956  0.00  0.00    +0.072 A 
ATOM     26  O   UNL     1       6.645  -1.174   6.431  0.00  0.00    -0.453 OA
ATOM     27  C   UNL     1       7.715  -0.900   7.355  0.00  0.00    +0.466 C 
ATOM     28  O   UNL     1       8.293   0.320   6.855  0.00  0.00    -0.453 OA
ENDBRANCH  18  20
ENDBRANCH  15  16
ENDBRANCH   9  15
TORSDOF 4
