REMARK  Name = ZINC21574096
REMARK  10 active torsions:
REMARK  status: ('A' for Active; 'I' for Inactive)
REMARK    1  A    between atoms: C_1  and  C_2
REMARK    2  A    between atoms: C_5  and  N_9
REMARK    3  A    between atoms: C_7  and  C_8
REMARK    4  A    between atoms: C_10  and  S_14
REMARK    5  A    between atoms: S_14  and  C_15
REMARK    6  A    between atoms: C_15  and  C_17
REMARK    7  A    between atoms: C_15  and  C_18
REMARK    8  A    between atoms: N_20  and  C_21
REMARK    9  A    between atoms: C_21  and  C_22
REMARK   10  A    between atoms: N_24  and  C_25
REMARK                            x       y       z     vdW  Elec       q    Type
REMARK                         _______ _______ _______ _____ _____    ______ ____
ROOT
ATOM      1  C   UNL     1      -2.810  -5.828  -4.308  0.00  0.00    +0.227 C 
ATOM      2  O   UNL     1      -3.309  -4.739  -4.497  0.00  0.00    -0.275 OA
ATOM      3  N   UNL     1      -2.922  -6.792  -5.244  0.00  0.00    -0.306 N 
ATOM      4  H   UNL     1      -2.523  -7.663  -5.092  0.00  0.00    +0.149 HD
ENDROOT
BRANCH   1   5
ATOM      5  C   UNL     1      -2.066  -6.104  -3.027  0.00  0.00    +0.137 C 
ATOM      6  C   UNL     1      -2.971  -6.878  -2.067  0.00  0.00    +0.029 C 
BRANCH   5   7
ATOM      7  S   UNL     1      -1.576  -4.533  -2.263  0.00  0.00    -0.072 S 
BRANCH   7   9
ATOM      8  N   UNL     1      -0.003  -4.193   0.018  0.00  0.00    -0.187 N 
ATOM      9  C   UNL     1      -0.602  -5.019  -0.877  0.00  0.00    +0.215 A 
ATOM     10  N   UNL     1      -0.319  -6.252  -0.513  0.00  0.00    -0.101 NA
ATOM     11  N   UNL     1       0.413  -6.253   0.542  0.00  0.00    -0.022 NA
ATOM     12  N   UNL     1       0.653  -5.045   0.923  0.00  0.00    -0.038 NA
BRANCH   8  17
ATOM     13  C   UNL     1      -0.105   1.481   0.075  0.00  0.00    +0.044 C 
ATOM     14  C   UNL     1      -0.078  -0.025   0.060  0.00  0.00    -0.047 A 
ATOM     15  C   UNL     1      -0.065  -0.703  -1.145  0.00  0.00    +0.006 A 
ATOM     16  C   UNL     1      -0.040  -2.084  -1.163  0.00  0.00    +0.028 A 
ATOM     17  C   UNL     1      -0.027  -2.791   0.032  0.00  0.00    +0.070 A 
ATOM     18  C   UNL     1      -0.040  -2.108   1.240  0.00  0.00    +0.031 A 
ATOM     19  C   UNL     1      -0.059  -0.727   1.251  0.00  0.00    -0.046 A 
ATOM     20  C   UNL     1      -0.067   0.015   2.562  0.00  0.00    +0.044 C 
ENDBRANCH   8  17
ENDBRANCH   7   9
ENDBRANCH   5   7
ENDBRANCH   1   5
BRANCH   3  21
ATOM     21  C   UNL     1      -3.646  -6.524  -6.489  0.00  0.00    +0.200 C 
BRANCH  21  22
ATOM     22  C   UNL     1      -3.624  -7.755  -7.357  0.00  0.00    +0.234 C 
ATOM     23  O   UNL     1      -3.060  -8.758  -6.974  0.00  0.00    -0.274 OA
ATOM     24  N   UNL     1      -4.232  -7.742  -8.560  0.00  0.00    -0.282 N 
ATOM     25  H   UNL     1      -4.738  -6.963  -8.839  0.00  0.00    +0.155 HD
BRANCH  24  26
ATOM     26  C   UNL     1      -4.133  -8.854  -9.407  0.00  0.00    +0.072 A 
ATOM     27  C   UNL     1      -4.092 -10.134  -8.872  0.00  0.00    +0.029 A 
ATOM     28  C   UNL     1      -3.994 -11.230  -9.708  0.00  0.00    +0.043 A 
ATOM     29  C   UNL     1      -3.937 -11.054 -11.079  0.00  0.00    +0.161 A 
ATOM     30  C   UNL     1      -3.978  -9.777 -11.619  0.00  0.00    +0.195 A 
ATOM     31  C   UNL     1      -4.082  -8.677 -10.785  0.00  0.00    +0.182 A 
ATOM     32  F   UNL     1      -4.128  -7.433 -11.309  0.00  0.00    -0.200 F 
ATOM     33  F   UNL     1      -3.922  -9.607 -12.958  0.00  0.00    -0.199 F 
ATOM     34  F   UNL     1      -3.841 -12.128 -11.894  0.00  0.00    -0.202 F 
ENDBRANCH  24  26
ENDBRANCH  21  22
ENDBRANCH   3  21
TORSDOF 7
