REMARK  Name = ZINC19142785
REMARK  8 active torsions:
REMARK  status: ('A' for Active; 'I' for Inactive)
REMARK    1  A    between atoms: C_1  and  C_2
REMARK    2  A    between atoms: C_3  and  N_15
REMARK    3  A    between atoms: N_6  and  C_9
REMARK    4  A    between atoms: N_7  and  C_8
REMARK    5  A    between atoms: N_15  and  CA_16
REMARK    6  A    between atoms: CA_16  and  C_27
REMARK    7  A    between atoms: C_17  and  C_18
REMARK    8  A    between atoms: C_18  and  C_20
REMARK                            x       y       z     vdW  Elec       q    Type
REMARK                         _______ _______ _______ _____ _____    ______ ____
ROOT
ATOM      1  N   UNL     1      -1.477   0.437   2.396  0.00  0.00    -0.303 N 
ATOM      2  H   UNL     1      -0.756  -0.145   2.109  0.00  0.00    +0.153 HD
ENDROOT
BRANCH   1   5
ATOM      3  C   UNL     1      -0.687   0.694  -0.558  0.00  0.00    +0.067 C 
ATOM      4  C   UNL     1      -1.819   1.391   0.152  0.00  0.00    +0.059 A 
ATOM      5  C   UNL     1      -2.137   1.251   1.460  0.00  0.00    +0.119 A 
ATOM      6  C   UNL     1      -3.297   2.106   1.718  0.00  0.00    +0.293 A 
ATOM      7  O   UNL     1      -3.873   2.246   2.782  0.00  0.00    -0.264 OA
ATOM      8  N   UNL     1      -3.608   2.708   0.551  0.00  0.00    -0.216 N 
ATOM      9  N   UNL     1      -2.696   2.275  -0.418  0.00  0.00    -0.282 N 
ATOM     10  C   UNL     1      -2.683   2.698  -1.821  0.00  0.00    +0.171 C 
BRANCH   8  11
ATOM     11  C   UNL     1      -4.655   3.612   0.347  0.00  0.00    +0.067 A 
ATOM     12  C   UNL     1      -4.861   4.653   1.243  0.00  0.00    +0.028 A 
ATOM     13  C   UNL     1      -5.892   5.547   1.035  0.00  0.00    +0.002 A 
ATOM     14  C   UNL     1      -6.727   5.400  -0.057  0.00  0.00    +0.000 A 
ATOM     15  C   UNL     1      -6.529   4.362  -0.948  0.00  0.00    +0.002 A 
ATOM     16  C   UNL     1      -5.495   3.467  -0.750  0.00  0.00    +0.028 A 
ENDBRANCH   8  11
ENDBRANCH   1   5
BRANCH   1  17
ATOM     17  CA  UNL     1      -1.852   0.466   3.716  0.00  0.00    +0.124 C 
ATOM     18  C   UNL     1      -2.365  -0.650   4.302  0.00  0.00    +0.082 C 
BRANCH  17  19
ATOM     19  C   UNL     1      -1.699   1.712   4.503  0.00  0.00    +0.400 C 
ATOM     20  O   UNL     1      -0.591   2.148   4.740  0.00  0.00    -0.239 OA
ATOM     21  OXT UNL     1      -2.789   2.361   4.956  0.00  0.00    -0.239 OA
ENDBRANCH  17  19
BRANCH  18  22
ATOM     22  C   UNL     1      -2.633  -0.660   5.694  0.00  0.00    +0.188 C 
ATOM     23  O   UNL     1      -2.310   0.290   6.383  0.00  0.00    -0.287 OA
BRANCH  22  24
ATOM     24  C   UNL     1      -3.305  -1.825   6.309  0.00  0.00    +0.022 A 
ATOM     25  C   UNL     1      -3.682  -2.914   5.520  0.00  0.00    +0.013 A 
ATOM     26  C   UNL     1      -4.304  -3.999   6.100  0.00  0.00    +0.021 A 
ATOM     27  C   UNL     1      -4.565  -4.006   7.461  0.00  0.00    +0.041 A 
ATOM     28  C   UNL     1      -4.199  -2.926   8.247  0.00  0.00    +0.021 A 
ATOM     29  C   UNL     1      -3.571  -1.837   7.680  0.00  0.00    +0.013 A 
ATOM     30 CL   UNL     1      -5.355  -5.373   8.182  0.00  0.00    -0.084 Cl
ENDBRANCH  22  24
ENDBRANCH  18  22
ENDBRANCH   1  17
TORSDOF 6
