REMARK  Name = ZINC33263055
REMARK  7 active torsions:
REMARK  status: ('A' for Active; 'I' for Inactive)
REMARK    1  A    between atoms: C_1  and  C_2
REMARK    2  A    between atoms: C_2  and  C_3
REMARK    3  A    between atoms: C_3  and  N_4
REMARK    4  A    between atoms: C_8  and  S_13
REMARK    5  A    between atoms: S_13  and  N_16
REMARK    6  A    between atoms: C_21  and  C_23
REMARK    7  A    between atoms: C_28  and  C_31
REMARK                            x       y       z     vdW  Elec       q    Type
REMARK                         _______ _______ _______ _____ _____    ______ ____
ROOT
ATOM      1  N   UNL     1       3.784  -6.680  -2.388  0.00  0.00    -0.165 NA
ATOM      2  C   UNL     1       4.284  -5.975  -3.576  0.00  0.00    +0.110 C 
ATOM      3  C   UNL     1       4.722  -7.012  -4.616  0.00  0.00    +0.017 C 
ATOM      4  C   UNL     1       3.563  -7.971  -4.895  0.00  0.00    +0.003 C 
ATOM      5  C   UNL     1       3.186  -8.707  -3.608  0.00  0.00    +0.030 C 
ATOM      6  C   UNL     1       2.734  -7.694  -2.558  0.00  0.00    +0.166 C 
ENDROOT
BRANCH   6   7
ATOM      7  C   UNL     1       2.497  -8.400  -1.247  0.00  0.00    +0.234 C 
ATOM      8  O   UNL     1       3.244  -9.287  -0.893  0.00  0.00    -0.274 OA
ATOM      9  N   UNL     1       1.455  -8.045  -0.469  0.00  0.00    -0.300 N 
ATOM     10  C   UNL     1       0.494  -7.031  -0.924  0.00  0.00    +0.108 C 
ATOM     11  C   UNL     1       0.378  -5.942   0.142  0.00  0.00    +0.032 C 
ATOM     12  C   UNL     1       0.028  -6.583   1.487  0.00  0.00    +0.078 C 
ATOM     13  C   UNL     1       1.142  -7.548   1.899  0.00  0.00    +0.032 C 
ATOM     14  C   UNL     1       1.263  -8.659   0.851  0.00  0.00    +0.108 C 
BRANCH  12  15
ATOM     15  C   UNL     1      -0.117  -5.508   2.533  0.00  0.00    +0.214 C 
ATOM     16  O   UNL     1       0.600  -5.513   3.511  0.00  0.00    -0.276 OA
ATOM     17  N   UNL     1      -1.043  -4.540   2.381  0.00  0.00    -0.329 N 
ATOM     18  H   UNL     1      -1.148  -3.755   3.144  0.00  0.00    +0.145 HD
ATOM     19  H   UNL     1      -1.693  -4.536   1.494  0.00  0.00    +0.145 HD
ENDBRANCH  12  15
ENDBRANCH   6   7
BRANCH   1  20
ATOM     20  S   UNL     1       4.396  -6.343  -0.887  0.00  0.00    +0.062 S 
ATOM     21  O   UNL     1       3.480  -6.881   0.056  0.00  0.00    -0.153 OA
ATOM     22  O   UNL     1       4.761  -4.969  -0.896  0.00  0.00    -0.153 OA
BRANCH  20  27
ATOM     23  N   UNL     1       9.517  -9.178  -0.424  0.00  0.00    -0.244 N 
ATOM     24  C   UNL     1       8.219  -8.724  -0.434  0.00  0.00    +0.089 A 
ATOM     25  C   UNL     1       7.001  -9.271  -0.046  0.00  0.00    +0.031 A 
ATOM     26  C   UNL     1       5.853  -8.543  -0.187  0.00  0.00    +0.031 A 
ATOM     27  C   UNL     1       5.891  -7.259  -0.716  0.00  0.00    +0.108 A 
ATOM     28  C   UNL     1       7.073  -6.700  -1.104  0.00  0.00    +0.060 A 
ATOM     29  C   UNL     1       8.265  -7.425  -0.970  0.00  0.00    +0.115 A 
ATOM     30  N   UNL     1       9.552  -7.146  -1.258  0.00  0.00    -0.129 NA
ATOM     31  N   UNL     1      10.305  -8.142  -0.947  0.00  0.00    -0.065 NA
BRANCH  23  32
ATOM     32  C   UNL     1       9.985 -10.484   0.045  0.00  0.00    +0.145 C 
BRANCH  32  34
ATOM     33  C   UNL     1      10.458 -12.844  -0.627  0.00  0.00    +0.005 C 
ATOM     34  C   UNL     1       9.969 -11.479  -1.117  0.00  0.00    +0.020 C 
ENDBRANCH  32  34
ENDBRANCH  23  32
ENDBRANCH  20  27
ENDBRANCH   1  20
TORSDOF 6
