REMARK  Name = ZINC64103998
REMARK  5 active torsions:
REMARK  status: ('A' for Active; 'I' for Inactive)
REMARK    1  A    between atoms: C_1  and  C_2
REMARK    2  A    between atoms: N_4  and  C_5
REMARK    3  A    between atoms: C_5  and  C_13
REMARK    4  A    between atoms: C_6  and  C_7
REMARK    5  A    between atoms: C_18  and  C_21
REMARK                            x       y       z     vdW  Elec       q    Type
REMARK                         _______ _______ _______ _____ _____    ______ ____
ROOT
ATOM      1  C   UNL     1       0.236  -2.711   0.241  0.00  0.00    +0.261 C 
ATOM      2  O   UNL     1       0.225  -3.917   0.407  0.00  0.00    -0.269 OA
ATOM      3  N   UNL     1       1.404  -2.039   0.267  0.00  0.00    -0.292 N 
ATOM      4  C   UNL     1       2.691  -2.745   0.387  0.00  0.00    +0.113 C 
ATOM      5  C   UNL     1       3.502  -2.471  -0.882  0.00  0.00    +0.054 C 
ATOM      6  C   UNL     1       3.454  -1.012  -1.228  0.00  0.00    -0.043 C 
ATOM      7  C   UNL     1       2.541  -0.166  -0.768  0.00  0.00    -0.004 C 
ATOM      8  C   UNL     1       1.443  -0.573   0.170  0.00  0.00    +0.135 C 
ENDROOT
BRANCH   6   9
ATOM      9  C   UNL     1       4.444  -0.506  -2.096  0.00  0.00    -0.016 C 
ATOM     10  C   UNL     1       5.440  -1.226  -2.741  0.00  0.00    +0.003 A 
ATOM     11  C   UNL     1       5.774  -2.601  -2.747  0.00  0.00    +0.013 A 
ATOM     12  C   UNL     1       6.823  -3.036  -3.487  0.00  0.00    +0.039 A 
ATOM     13  C   UNL     1       7.595  -2.154  -4.255  0.00  0.00    +0.125 A 
ATOM     14  C   UNL     1       7.332  -0.823  -4.297  0.00  0.00    +0.064 A 
ATOM     15  C   UNL     1       6.249  -0.294  -3.548  0.00  0.00    +0.046 A 
ATOM     16  N   UNL     1       5.795   0.935  -3.422  0.00  0.00    -0.380 N 
ATOM     17  C   UNL     1       4.638   0.932  -2.522  0.00  0.00    +0.149 C 
ATOM     18  F   UNL     1       8.630  -2.641  -4.973  0.00  0.00    -0.205 F 
ATOM     19  H   UNL     1       6.166   1.719  -3.858  0.00  0.00    +0.160 HD
ENDBRANCH   6   9
BRANCH   1  20
ATOM     20  C   UNL     1      -1.024  -1.988   0.014  0.00  0.00    +0.097 C 
ATOM     21  C   UNL     1      -2.013  -2.564  -0.707  0.00  0.00    +0.036 C 
BRANCH  21  22
ATOM     22  C   UNL     1      -3.319  -1.897  -0.827  0.00  0.00    -0.023 A 
ATOM     23  C   UNL     1      -4.139  -2.151  -1.932  0.00  0.00    +0.008 A 
ATOM     24  C   UNL     1      -5.361  -1.522  -2.037  0.00  0.00    +0.001 A 
ATOM     25  C   UNL     1      -5.778  -0.642  -1.054  0.00  0.00    +0.000 A 
ATOM     26  C   UNL     1      -4.973  -0.385   0.042  0.00  0.00    +0.001 A 
ATOM     27  C   UNL     1      -3.750  -1.010   0.165  0.00  0.00    +0.008 A 
ENDBRANCH  21  22
BRANCH  20  31
ATOM     28  C   UNL     1      -1.157   0.896   2.428  0.00  0.00    +0.109 C 
ATOM     29  C   UNL     1      -1.087  -0.503   1.871  0.00  0.00    +0.214 C 
ATOM     30  O   UNL     1      -0.929  -1.446   2.617  0.00  0.00    -0.276 OA
ATOM     31  N   UNL     1      -1.199  -0.705   0.543  0.00  0.00    -0.282 N 
ATOM     32  H   UNL     1      -1.402   0.038  -0.046  0.00  0.00    +0.155 HD
ENDBRANCH  20  31
ENDBRANCH   1  20
TORSDOF 4
