REMARK  Name = ZINC23257623
REMARK  12 active torsions:
REMARK  status: ('A' for Active; 'I' for Inactive)
REMARK    1  A    between atoms: C_1  and  C_2
REMARK    2  A    between atoms: C_5  and  O_33
REMARK    3  A    between atoms: C_6  and  C_8
REMARK    4  A    between atoms: C_8  and  N_9
REMARK    5  A    between atoms: N_12  and  C_15
REMARK    6  A    between atoms: C_15  and  N_16
REMARK    7  A    between atoms: C_19  and  C_23
REMARK    8  A    between atoms: C_19  and  C_27
REMARK    9  A    between atoms: C_23  and  C_24
REMARK   10  A    between atoms: C_24  and  C_25
REMARK   11  A    between atoms: C_24  and  C_26
REMARK   12  A    between atoms: O_33  and  C_34
REMARK                            x       y       z     vdW  Elec       q    Type
REMARK                         _______ _______ _______ _____ _____    ______ ____
ROOT
ATOM      1  C   UNL     1       1.420  -1.058   4.688  0.00  0.00    +0.205 C 
ENDROOT
BRANCH   1   2
ATOM      2  N   UNL     1       2.007  -0.891   3.356  0.00  0.00    -0.210 N 
ATOM      3  C   UNL     1       2.558  -1.891   2.640  0.00  0.00    +0.252 C 
ATOM      4  O   UNL     1       2.657  -3.055   2.965  0.00  0.00    -0.272 OA
ATOM      5  C   UNL     1       3.028  -1.258   1.346  0.00  0.00    +0.138 C 
ATOM      6  N   UNL     1       2.653   0.158   1.496  0.00  0.00    -0.281 N 
ATOM      7  C   UNL     1       2.064   0.274   2.700  0.00  0.00    +0.311 C 
ATOM      8  O   UNL     1       1.631   1.320   3.142  0.00  0.00    -0.252 OA
ATOM      9  H   UNL     1       2.875   0.875   0.692  0.00  0.00    +0.152 HD
BRANCH   5  10
ATOM     10  C   UNL     1       2.321  -1.875   0.167  0.00  0.00    -0.015 A 
ATOM     11  C   UNL     1       2.893  -2.941  -0.502  0.00  0.00    +0.006 A 
ATOM     12  C   UNL     1       2.242  -3.510  -1.581  0.00  0.00    +0.000 A 
ATOM     13  C   UNL     1       1.024  -3.006  -1.997  0.00  0.00    +0.000 A 
ATOM     14  C   UNL     1       0.454  -1.937  -1.332  0.00  0.00    +0.000 A 
ATOM     15  C   UNL     1       1.103  -1.372  -0.250  0.00  0.00    +0.006 A 
ENDBRANCH   5  10
BRANCH   5  16
ATOM     16  C   UNL     1       4.544  -1.401   1.197  0.00  0.00    +0.043 C 
BRANCH  16  17
ATOM     17  C   UNL     1       5.242  -0.592   2.292  0.00  0.00    -0.014 C 
ATOM     18  C   UNL     1       6.751  -0.583   2.037  0.00  0.00    +0.007 C 
ATOM     19  C   UNL     1       4.960  -1.229   3.654  0.00  0.00    +0.007 C 
ENDBRANCH  16  17
ENDBRANCH   5  16
ENDBRANCH   1   2
BRANCH   1  23
ATOM     20  N   UNL     1      -2.754  -1.277   5.301  0.00  0.00    +0.384 N 
ATOM     21  C   UNL     1      -1.960  -2.494   5.524  0.00  0.00    -0.063 C 
ATOM     22  C   UNL     1      -0.493  -2.111   5.734  0.00  0.00    +0.067 C 
ATOM     23  N   UNL     1      -0.008  -1.378   4.557  0.00  0.00    -0.290 NA
ATOM     24  C   UNL     1      -0.802  -0.161   4.333  0.00  0.00    +0.067 C 
ATOM     25  C   UNL     1      -2.268  -0.544   4.123  0.00  0.00    -0.063 C 
ATOM     26  H   UNL     1      -2.634  -0.627   6.179  0.00  0.00    -0.081 HD
BRANCH  20  27
ATOM     27  C   UNL     1      -4.182  -1.597   5.170  0.00  0.00    -0.039 C 
BRANCH  27  33
ATOM     28  C   UNL     1      -7.051   1.680   7.633  0.00  0.00    +0.044 C 
ATOM     29  C   UNL     1      -6.359   1.246   6.366  0.00  0.00    -0.050 A 
ATOM     30  C   UNL     1      -6.464   2.018   5.223  0.00  0.00    +0.007 A 
ATOM     31  C   UNL     1      -5.831   1.622   4.061  0.00  0.00    +0.046 A 
ATOM     32  C   UNL     1      -5.089   0.450   4.041  0.00  0.00    +0.121 A 
ATOM     33  C   UNL     1      -4.986  -0.323   5.188  0.00  0.00    -0.022 A 
ATOM     34  C   UNL     1      -5.625   0.074   6.347  0.00  0.00    +0.008 A 
BRANCH  32  35
ATOM     35  O   UNL     1      -4.466   0.058   2.898  0.00  0.00    -0.495 OA
ATOM     36  C   UNL     1      -4.616   0.903   1.755  0.00  0.00    +0.277 C 
ENDBRANCH  32  35
ENDBRANCH  27  33
ENDBRANCH  20  27
ENDBRANCH   1  23
TORSDOF 8
