REMARK  Name = ZINC63331979
REMARK  7 active torsions:
REMARK  status: ('A' for Active; 'I' for Inactive)
REMARK    1  A    between atoms: C_1  and  C_2
REMARK    2  A    between atoms: C_2  and  C_3
REMARK    3  A    between atoms: C_2  and  C_4
REMARK    4  A    between atoms: C_2  and  C_5
REMARK    5  A    between atoms: N_15  and  C_16
REMARK    6  A    between atoms: N_19  and  C_22
REMARK    7  A    between atoms: C_22  and  C_23
REMARK                            x       y       z     vdW  Elec       q    Type
REMARK                         _______ _______ _______ _____ _____    ______ ____
ROOT
ATOM      1  C   UNL     1      -1.160   2.140   0.251  0.00  0.00    +0.221 C 
ATOM      2  O   UNL     1      -0.937   2.887  -0.678  0.00  0.00    -0.275 OA
ATOM      3  N   UNL     1      -0.894   0.824   0.137  0.00  0.00    -0.298 N 
ATOM      4  C   UNL     1      -1.052  -0.074   1.289  0.00  0.00    +0.127 C 
ATOM      5  C   UNL     1      -1.996  -1.216   0.894  0.00  0.00    +0.128 C 
ATOM      6  N   UNL     1      -1.543  -1.779  -0.386  0.00  0.00    -0.283 N 
ATOM      7  C   UNL     1      -1.385  -0.881  -1.538  0.00  0.00    +0.128 C 
ATOM      8  C   UNL     1      -0.446   0.260  -1.145  0.00  0.00    +0.127 C 
ATOM      9  C   UNL     1      -1.277  -3.095  -0.500  0.00  0.00    +0.303 C 
ATOM     10  O   UNL     1      -1.504  -3.845   0.430  0.00  0.00    -0.253 OA
ATOM     11  N   UNL     1      -0.758  -3.581  -1.645  0.00  0.00    -0.297 N 
ATOM     12  H   UNL     1      -0.505  -2.974  -2.359  0.00  0.00    +0.151 HD
ENDROOT
BRANCH  11  13
ATOM     13  C   UNL     1      -0.576  -5.025  -1.813  0.00  0.00    +0.071 C 
ATOM     14  C   UNL     1       0.767  -5.445  -1.210  0.00  0.00    +0.004 C 
ATOM     15  C   UNL     1       0.987  -6.939  -1.458  0.00  0.00    -0.077 C 
ATOM     16  N   UNL     1       0.993  -7.203  -2.902  0.00  0.00    +0.380 N 
ATOM     17  C   UNL     1      -0.317  -6.870  -3.475  0.00  0.00    -0.077 C 
ATOM     18  C   UNL     1      -0.586  -5.373  -3.304  0.00  0.00    +0.004 C 
ATOM     19  H   UNL     1       1.705  -6.640  -3.343  0.00  0.00    -0.082 HD
BRANCH  16  20
ATOM     20  C   UNL     1       1.281  -8.624  -3.138  0.00  0.00    -0.075 C 
BRANCH  20  21
ATOM     21  C   UNL     1       2.715  -8.933  -2.701  0.00  0.00    -0.028 C 
ATOM     22  C   UNL     1       3.715  -8.182  -3.603  0.00  0.00    +0.002 C 
ATOM     23  C   UNL     1       4.893  -9.174  -3.772  0.00  0.00    +0.000 C 
ATOM     24  C   UNL     1       4.175 -10.542  -3.876  0.00  0.00    +0.000 C 
ATOM     25  C   UNL     1       3.007 -10.434  -2.874  0.00  0.00    +0.002 C 
ENDBRANCH  20  21
ENDBRANCH  16  20
ENDBRANCH  11  13
BRANCH   1  27
ATOM     26  C   UNL     1      -2.000   4.183   1.379  0.00  0.00    +0.020 C 
ATOM     27  C   UNL     1      -1.734   2.684   1.534  0.00  0.00    +0.039 C 
ATOM     28  C   UNL     1      -0.740   2.458   2.674  0.00  0.00    +0.020 C 
ATOM     29  C   UNL     1      -3.046   1.964   1.851  0.00  0.00    +0.020 C 
ENDBRANCH   1  27
TORSDOF 4
