REMARK  Name = ZINC14019666
REMARK  6 active torsions:
REMARK  status: ('A' for Active; 'I' for Inactive)
REMARK    1  A    between atoms: C_6  and  N_7
REMARK    2  A    between atoms: C_8  and  C_10
REMARK    3  A    between atoms: N_13  and  C_16
REMARK    4  A    between atoms: C_16  and  C_17
REMARK    5  A    between atoms: N_19  and  C_20
REMARK    6  A    between atoms: N_19  and  C_28
REMARK                            x       y       z     vdW  Elec       q    Type
REMARK                         _______ _______ _______ _____ _____    ______ ____
ROOT
ATOM      1  C   UNL     1      -3.689  -0.856   0.387  0.00  0.00    +0.072 C 
ATOM      2  C   UNL     1      -3.850  -1.706  -0.876  0.00  0.00    -0.006 C 
ATOM      3  C   UNL     1      -5.196  -2.433  -0.827  0.00  0.00    -0.077 C 
ATOM      4  N   UNL     1      -6.284  -1.451  -0.754  0.00  0.00    +0.385 N 
ATOM      5  C   UNL     1      -6.177  -0.679   0.490  0.00  0.00    -0.077 C 
ATOM      6  C   UNL     1      -4.869   0.115   0.491  0.00  0.00    -0.006 C 
ATOM      7  H   UNL     1      -6.224  -0.825  -1.543  0.00  0.00    -0.081 HD
ENDROOT
BRANCH   1   9
ATOM      8  N   UNL     1      -1.225  -0.727   0.210  0.00  0.00    -0.285 N 
ATOM      9  C   UNL     1      -2.401  -0.077   0.308  0.00  0.00    +0.220 C 
ATOM     10  O   UNL     1      -2.423   1.136   0.333  0.00  0.00    -0.275 OA
ATOM     11  H   UNL     1      -1.211  -1.692   0.115  0.00  0.00    +0.155 HD
BRANCH   8  17
ATOM     12  C   UNL     1       0.076   1.141   1.017  0.00  0.00    +0.027 A 
ATOM     13  C   UNL     1       1.262   1.850   1.055  0.00  0.00    +0.051 A 
ATOM     14  C   UNL     1       2.356   1.415   0.324  0.00  0.00    +0.166 A 
ATOM     15  C   UNL     1       2.260   0.260  -0.451  0.00  0.00    +0.168 A 
ATOM     16  C   UNL     1       1.071  -0.449  -0.488  0.00  0.00    +0.072 A 
ATOM     17  C   UNL     1      -0.022  -0.010   0.247  0.00  0.00    +0.037 A 
ATOM     18  O   UNL     1       3.459   0.048  -1.067  0.00  0.00    -0.453 OA
ATOM     19  C   UNL     1       4.160   1.302  -0.987  0.00  0.00    +0.466 C 
ATOM     20  O   UNL     1       3.616   1.924   0.192  0.00  0.00    -0.453 OA
ENDBRANCH   8  17
ENDBRANCH   1   9
BRANCH   4  21
ATOM     21  C   UNL     1      -7.576  -2.150  -0.785  0.00  0.00    +0.019 C 
BRANCH  21  22
ATOM     22  C   UNL     1      -8.693  -1.139  -0.835  0.00  0.00    +0.200 C 
ATOM     23  O   UNL     1      -8.439   0.040  -0.962  0.00  0.00    -0.278 OA
ATOM     24  N   UNL     1      -9.974  -1.546  -0.738  0.00  0.00    -0.295 N 
BRANCH  24  25
ATOM     25  C   UNL     1     -11.053  -0.557  -0.673  0.00  0.00    +0.099 C 
ATOM     26  C   UNL     1     -11.018   0.334  -1.926  0.00  0.00    +0.046 C 
ATOM     27  C   UNL     1     -11.931   1.566  -1.724  0.00  0.00    +0.168 C 
ATOM     28  S   UNL     1     -11.897   1.799   0.101  0.00  0.00    -0.029 S 
ATOM     29  O   UNL     1     -13.209   1.615   0.615  0.00  0.00    -0.174 OA
ATOM     30  O   UNL     1     -11.189   2.994   0.401  0.00  0.00    -0.174 OA
ATOM     31  C   UNL     1     -10.859   0.352   0.573  0.00  0.00    +0.188 C 
ENDBRANCH  24  25
BRANCH  24  32
ATOM     32  C   UNL     1     -10.288  -2.977  -0.698  0.00  0.00    +0.076 C 
ATOM     33  C   UNL     1     -11.160  -3.361  -1.911  0.00  0.00    +0.022 C 
ATOM     34  C   UNL     1     -12.148  -4.414  -1.351  0.00  0.00    +0.002 C 
ATOM     35  C   UNL     1     -12.461  -3.869   0.065  0.00  0.00    +0.002 C 
ATOM     36  C   UNL     1     -11.115  -3.300   0.558  0.00  0.00    +0.022 C 
ENDBRANCH  24  32
ENDBRANCH  21  22
ENDBRANCH   4  21
TORSDOF 6
