REMARK  Name = ZINC00838172
REMARK  8 active torsions:
REMARK  status: ('A' for Active; 'I' for Inactive)
REMARK    1  A    between atoms: C_1  and  C_2
REMARK    2  A    between atoms: C_2  and  C_4
REMARK    3  A    between atoms: C_2  and  O_27
REMARK    4  A    between atoms: C_4  and  N_5
REMARK    5  A    between atoms: N_10  and  C_11
REMARK    6  A    between atoms: C_11  and  C_12
REMARK    7  A    between atoms: N_21  and  C_26
REMARK    8  A    between atoms: N_24  and  C_25
REMARK                            x       y       z     vdW  Elec       q    Type
REMARK                         _______ _______ _______ _____ _____    ______ ____
ROOT
ATOM      1  N   UNL     1      -1.413  -1.998   0.005  0.00  0.00    -0.312 N 
ATOM      2  C   UNL     1      -2.596  -2.703   0.012  0.00  0.00    +0.198 A 
ATOM      3  N   UNL     1      -3.800  -2.168   0.021  0.00  0.00    -0.196 NA
ATOM      4  C   UNL     1      -4.725  -3.130   0.026  0.00  0.00    +0.170 A 
ATOM      5  C   UNL     1      -4.060  -4.351   0.021  0.00  0.00    +0.153 A 
ATOM      6  N   UNL     1      -2.703  -4.058   0.006  0.00  0.00    -0.302 N 
ATOM      7  C   UNL     1      -4.809  -5.541   0.025  0.00  0.00    +0.282 A 
ATOM      8  O   UNL     1      -4.248  -6.623   0.021  0.00  0.00    -0.265 OA
ATOM      9  N   UNL     1      -6.157  -5.473   0.035  0.00  0.00    -0.262 N 
ATOM     10  C   UNL     1      -6.790  -4.287   0.040  0.00  0.00    +0.333 A 
ATOM     11  O   UNL     1      -8.005  -4.263   0.049  0.00  0.00    -0.246 OA
ATOM     12  N   UNL     1      -6.110  -3.124   0.036  0.00  0.00    -0.280 N 
ATOM     13  C   UNL     1      -6.837  -1.852   0.042  0.00  0.00    +0.155 C 
ATOM     14  C   UNL     1      -6.942  -6.709   0.038  0.00  0.00    +0.157 C 
ATOM     15  H   UNL     1      -0.567  -2.472  -0.006  0.00  0.00    +0.149 HD
ENDROOT
BRANCH   1  16
ATOM     16  C   UNL     1      -1.433  -0.534   0.013  0.00  0.00    +0.135 C 
BRANCH  16  18
ATOM     17  C   UNL     1      -0.019   1.526   0.010  0.00  0.00    +0.039 C 
ATOM     18  C   UNL     1       0.002  -0.004   0.002  0.00  0.00    +0.128 C 
BRANCH  18  19
ATOM     19  O   UNL     1       0.693  -0.477   1.160  0.00  0.00    -0.391 OA
ATOM     20  H   UNL     1       1.611  -0.180   1.219  0.00  0.00    +0.210 HD
ENDBRANCH  18  19
ENDBRANCH  16  18
ENDBRANCH   1  16
BRANCH   6  21
ATOM     21  C   UNL     1      -1.600  -5.022  -0.010  0.00  0.00    +0.160 C 
BRANCH  21  22
ATOM     22  C   UNL     1      -1.208  -5.361   1.406  0.00  0.00    -0.027 A 
ATOM     23  C   UNL     1      -0.245  -4.611   2.054  0.00  0.00    +0.005 A 
ATOM     24  C   UNL     1       0.115  -4.921   3.353  0.00  0.00    +0.001 A 
ATOM     25  C   UNL     1      -0.489  -5.981   4.003  0.00  0.00    +0.015 A 
ATOM     26  C   UNL     1      -1.454  -6.731   3.354  0.00  0.00    +0.018 A 
ATOM     27  C   UNL     1      -1.817  -6.417   2.057  0.00  0.00    +0.020 A 
ATOM     28 BR   UNL     1      -2.279  -8.182   4.243  0.00  0.00    -0.050 Br
ENDBRANCH  21  22
ENDBRANCH   6  21
TORSDOF 5
