REMARK  Name = ZINC67281733
REMARK  8 active torsions:
REMARK  status: ('A' for Active; 'I' for Inactive)
REMARK    1  A    between atoms: C_1  and  C_2
REMARK    2  A    between atoms: C_2  and  C_4
REMARK    3  A    between atoms: C_2  and  N_11
REMARK    4  A    between atoms: N_6  and  C_7
REMARK    5  A    between atoms: C_7  and  C_8
REMARK    6  A    between atoms: C_7  and  C_9
REMARK    7  A    between atoms: C_7  and  C_10
REMARK    8  A    between atoms: C_12  and  C_14
REMARK                            x       y       z     vdW  Elec       q    Type
REMARK                         _______ _______ _______ _____ _____    ______ ____
ROOT
ATOM      1  N   UNL     1      -1.372  -0.511   0.012  0.00  0.00    -0.300 N 
ATOM      2  C   UNL     1      -2.051  -0.643  -1.145  0.00  0.00    +0.247 C 
ATOM      3  O   UNL     1      -1.522  -0.341  -2.197  0.00  0.00    -0.270 OA
ATOM      4  H   UNL     1      -1.794  -0.752   0.852  0.00  0.00    +0.150 HD
ENDROOT
BRANCH   2   5
ATOM      5  C   UNL     1      -3.435  -1.153  -1.134  0.00  0.00    +0.061 A 
ATOM      6  C   UNL     1      -4.046  -1.495   0.070  0.00  0.00    +0.015 A 
ATOM      7  C   UNL     1      -5.344  -1.974   0.087  0.00  0.00    +0.001 A 
ATOM      8  C   UNL     1      -6.052  -2.122  -1.087  0.00  0.00    +0.010 A 
ATOM      9  C   UNL     1      -5.463  -1.787  -2.307  0.00  0.00    +0.004 A 
ATOM     10  C   UNL     1      -4.145  -1.292  -2.337  0.00  0.00    +0.059 A 
ATOM     11  N   UNL     1      -3.832  -1.042  -3.650  0.00  0.00    -0.357 N 
ATOM     12  H   UNL     1      -2.982  -0.695  -3.963  0.00  0.00    +0.166 HD
ATOM     13  C   UNL     1      -4.894  -1.354  -4.452  0.00  0.00    +0.020 A 
ATOM     14  C   UNL     1      -5.908  -1.817  -3.697  0.00  0.00    -0.019 A 
ATOM     15  C   UNL     1      -7.245  -2.259  -4.233  0.00  0.00    +0.037 C 
ATOM     16  C   UNL     1      -7.389  -1.737  -5.668  0.00  0.00    +0.005 C 
ATOM     17  C   UNL     1      -6.129  -2.090  -6.465  0.00  0.00    +0.006 C 
ATOM     18  C   UNL     1      -4.960  -1.228  -5.957  0.00  0.00    +0.053 C 
ENDBRANCH   2   5
BRANCH   1  20
ATOM     19  C   UNL     1      -0.019   1.526   0.010  0.00  0.00    +0.038 C 
ATOM     20  C   UNL     1       0.002  -0.004   0.002  0.00  0.00    +0.156 C 
BRANCH  20  21
ATOM     21  C   UNL     1       0.731  -0.503   1.223  0.00  0.00    +0.233 C 
ATOM     22  O   UNL     1       0.159  -1.213   2.023  0.00  0.00    -0.274 OA
ATOM     23  N   UNL     1       2.019  -0.161   1.426  0.00  0.00    -0.309 N 
ATOM     24  H   UNL     1       2.476   0.406   0.786  0.00  0.00    +0.149 HD
BRANCH  23  25
ATOM     25  C   UNL     1       2.727  -0.647   2.613  0.00  0.00    +0.026 C 
ATOM     26  C   UNL     1       2.748  -2.176   2.604  0.00  0.00    +0.031 C 
ATOM     27  C   UNL     1       4.163  -0.117   2.602  0.00  0.00    +0.031 C 
ATOM     28  C   UNL     1       2.011  -0.153   3.871  0.00  0.00    +0.031 C 
ENDBRANCH  23  25
ENDBRANCH  20  21
ENDBRANCH   1  20
TORSDOF 4
