REMARK  Name = ZINC04413526
REMARK  4 active torsions:
REMARK  status: ('A' for Active; 'I' for Inactive)
REMARK    1  A    between atoms: C_6  and  N_11
REMARK    2  A    between atoms: C_12  and  S_14
REMARK    3  A    between atoms: S_14  and  C_15
REMARK    4  A    between atoms: N_20  and  C_23
REMARK                            x       y       z     vdW  Elec       q    Type
REMARK                         _______ _______ _______ _____ _____    ______ ____
ROOT
ATOM      1  N   UNL     1       4.702  -3.416   0.103  0.00  0.00    -0.227 NA
ATOM      2  C   UNL     1       5.150  -4.375   0.883  0.00  0.00    +0.153 C 
ATOM      3  N   UNL     1       4.290  -5.030   1.730  0.00  0.00    -0.338 N 
ATOM      4  H   UNL     1       3.337  -4.856   1.683  0.00  0.00    +0.144 HD
ATOM      5  H   UNL     1       4.636  -5.666   2.376  0.00  0.00    +0.144 HD
ENDROOT
BRANCH   1  11
ATOM      6  C   UNL     1      -1.359  -1.671  -0.495  0.00  0.00    +0.001 A 
ATOM      7  C   UNL     1      -0.883  -2.079  -1.740  0.00  0.00    +0.001 A 
ATOM      8  C   UNL     1       0.400  -2.507  -1.893  0.00  0.00    +0.008 A 
ATOM      9  C   UNL     1       1.260  -2.540  -0.780  0.00  0.00    -0.016 A 
ATOM     10  C   UNL     1       2.588  -2.975  -0.903  0.00  0.00    +0.036 A 
ATOM     11  C   UNL     1       3.405  -2.993   0.216  0.00  0.00    +0.067 A 
ATOM     12  C   UNL     1       2.912  -2.579   1.467  0.00  0.00    +0.028 A 
ATOM     13  C   UNL     1       1.630  -2.156   1.604  0.00  0.00    +0.010 A 
ATOM     14  C   UNL     1       0.775  -2.125   0.486  0.00  0.00    -0.018 A 
ATOM     15  C   UNL     1      -0.555  -1.690   0.603  0.00  0.00    +0.008 A 
ENDBRANCH   1  11
BRANCH   2  16
ATOM     16  S   UNL     1       6.854  -4.819   0.842  0.00  0.00    -0.078 S 
BRANCH  16  17
ATOM     17  C   UNL     1       7.569  -3.704  -0.398  0.00  0.00    +0.149 C 
ATOM     18  C   UNL     1       9.092  -3.918  -0.507  0.00  0.00    +0.120 C 
ATOM     19  C   UNL     1       9.286  -4.364  -1.940  0.00  0.00    +0.228 C 
ATOM     20  O   UNL     1      10.350  -4.641  -2.451  0.00  0.00    -0.275 OA
ATOM     21  N   UNL     1       8.097  -4.402  -2.554  0.00  0.00    -0.209 N 
ATOM     22  C   UNL     1       7.059  -4.048  -1.781  0.00  0.00    +0.240 C 
ATOM     23  O   UNL     1       5.899  -4.011  -2.131  0.00  0.00    -0.274 OA
BRANCH  21  24
ATOM     24  C   UNL     1       7.948  -4.780  -3.896  0.00  0.00    +0.045 A 
ATOM     25  C   UNL     1       7.551  -3.844  -4.842  0.00  0.00    +0.024 A 
ATOM     26  C   UNL     1       7.405  -4.218  -6.163  0.00  0.00    +0.003 A 
ATOM     27  C   UNL     1       7.655  -5.523  -6.546  0.00  0.00    +0.020 A 
ATOM     28  C   UNL     1       8.051  -6.459  -5.606  0.00  0.00    +0.043 A 
ATOM     29  C   UNL     1       8.203  -6.088  -4.283  0.00  0.00    +0.044 A 
ATOM     30 CL   UNL     1       8.362  -8.096  -6.090  0.00  0.00    -0.083 Cl
ENDBRANCH  21  24
ENDBRANCH  16  17
ENDBRANCH   2  16
TORSDOF 4
