REMARK  Name = ZINC10916758
REMARK  2 active torsions:
REMARK  status: ('A' for Active; 'I' for Inactive)
REMARK    1  A    between atoms: C_3  and  C_6
REMARK    2  A    between atoms: C_7  and  C_8
REMARK                            x       y       z     vdW  Elec       q    Type
REMARK                         _______ _______ _______ _____ _____    ______ ____
ROOT
ATOM      1  C   UNL     1      -3.509  -1.170   0.030  0.00  0.00    +0.243 C 
ATOM      2  O   UNL     1      -3.364  -2.379   0.021  0.00  0.00    -0.270 OA
ATOM      3  N   UNL     1      -4.749  -0.641   0.045  0.00  0.00    -0.261 N 
ATOM      4  C   UNL     1      -5.856  -1.472   0.051  0.00  0.00    +0.166 A 
ATOM      5  N   UNL     1      -5.901  -2.784   0.038  0.00  0.00    -0.223 NA
ATOM      6  C   UNL     1      -7.064  -3.470   0.051  0.00  0.00    +0.100 A 
ATOM      7  C   UNL     1      -8.239  -2.684   0.068  0.00  0.00    +0.042 A 
ATOM      8  S   UNL     1      -7.588  -1.031   0.071  0.00  0.00    -0.052 S 
ATOM      9  C   UNL     1      -9.497  -3.232   0.076  0.00  0.00    +0.019 A 
ATOM     10  C   UNL     1      -9.644  -4.607   0.069  0.00  0.00    +0.023 A 
ATOM     11  C   UNL     1      -8.513  -5.412   0.054  0.00  0.00    +0.061 A 
ATOM     12  C   UNL     1      -7.251  -4.872   0.045  0.00  0.00    +0.086 A 
ATOM     13 CL   UNL     1      -5.868  -5.923   0.026  0.00  0.00    -0.080 Cl
ATOM     14 CL   UNL     1      -8.699  -7.138   0.046  0.00  0.00    -0.082 Cl
ATOM     15  H   UNL     1      -4.865   0.322   0.052  0.00  0.00    +0.157 HD
ENDROOT
BRANCH   1  17
ATOM     16  C   UNL     1      -1.130  -0.854   0.008  0.00  0.00    +0.051 C 
ATOM     17  C   UNL     1      -2.378  -0.321   0.024  0.00  0.00    +0.071 C 
BRANCH  16  20
ATOM     18  C   UNL     1       2.096   0.762  -0.014  0.00  0.00    +0.042 A 
ATOM     19  C   UNL     1       1.321  -0.408  -0.013  0.00  0.00    +0.049 A 
ATOM     20  C   UNL     1       0.002  -0.004   0.002  0.00  0.00    +0.128 A 
ATOM     21  O   UNL     1      -0.016   1.345   0.009  0.00  0.00    -0.464 OA
ATOM     22  C   UNL     1       1.241   1.808  -0.000  0.00  0.00    +0.195 A 
ENDBRANCH  16  20
ENDBRANCH   1  17
TORSDOF 2
