REMARK  Name = ZINC66614987
REMARK  10 active torsions:
REMARK  status: ('A' for Active; 'I' for Inactive)
REMARK    1  A    between atoms: C_1  and  C_2
REMARK    2  A    between atoms: N_8  and  C_9
REMARK    3  A    between atoms: C_9  and  C_10
REMARK    4  A    between atoms: C_10  and  C_11
REMARK    5  A    between atoms: C_11  and  C_12
REMARK    6  A    between atoms: C_12  and  N_13
REMARK    7  A    between atoms: C_14  and  C_16
REMARK    8  A    between atoms: C_16  and  N_17
REMARK    9  A    between atoms: N_20  and  C_21
REMARK   10  A    between atoms: C_21  and  C_22
REMARK                            x       y       z     vdW  Elec       q    Type
REMARK                         _______ _______ _______ _____ _____    ______ ____
ROOT
ATOM      1  N   UNL     1       6.221   0.443   3.874  0.00  0.00    -0.314 N 
ATOM      2  C   UNL     1       7.026   0.217   4.931  0.00  0.00    +0.230 C 
ATOM      3  O   UNL     1       6.635  -0.459   5.858  0.00  0.00    -0.274 OA
ATOM      4  H   UNL     1       6.533   0.983   3.132  0.00  0.00    +0.149 HD
ENDROOT
BRANCH   1   5
ATOM      5  C   UNL     1       4.872  -0.129   3.846  0.00  0.00    +0.104 C 
BRANCH   5   6
ATOM      6  C   UNL     1       4.173   0.276   2.547  0.00  0.00    +0.017 C 
BRANCH   6   7
ATOM      7  C   UNL     1       2.764  -0.321   2.518  0.00  0.00    -0.017 C 
BRANCH   7   8
ATOM      8  C   UNL     1       2.066   0.083   1.218  0.00  0.00    -0.078 C 
BRANCH   8  15
ATOM      9  C   UNL     1      -0.019   1.526   0.010  0.00  0.00    -0.013 C 
ATOM     10  C   UNL     1       0.002  -0.004   0.002  0.00  0.00    -0.072 C 
ATOM     11  C   UNL     1      -1.434  -0.533   0.011  0.00  0.00    -0.016 C 
ATOM     12  C   UNL     1      -1.408  -2.064   0.003  0.00  0.00    -0.003 C 
ATOM     13  C   UNL     1      -0.600  -2.558   1.206  0.00  0.00    -0.019 C 
ATOM     14  C   UNL     1       0.805  -1.954   1.152  0.00  0.00    -0.078 C 
ATOM     15  N   UNL     1       0.713  -0.490   1.191  0.00  0.00    +0.381 N 
ATOM     16  H   UNL     1       0.213  -0.206   2.020  0.00  0.00    -0.081 HD
ENDBRANCH   8  15
ENDBRANCH   7   8
ENDBRANCH   6   7
ENDBRANCH   5   6
ENDBRANCH   1   5
BRANCH   2  17
ATOM     17  C   UNL     1       8.414   0.805   4.959  0.00  0.00    +0.201 C 
BRANCH  17  18
ATOM     18  N   UNL     1       9.083   0.418   6.203  0.00  0.00    -0.291 N 
ATOM     19  C   UNL     1      10.342   0.831   6.449  0.00  0.00    +0.300 C 
ATOM     20  O   UNL     1      10.922   1.526   5.637  0.00  0.00    -0.253 OA
ATOM     21  N   UNL     1      10.957   0.475   7.593  0.00  0.00    -0.295 N 
ATOM     22  H   UNL     1       8.620  -0.137   6.851  0.00  0.00    +0.151 HD
ATOM     23  H   UNL     1      10.494  -0.079   8.241  0.00  0.00    +0.151 HD
BRANCH  21  24
ATOM     24  C   UNL     1      12.326   0.925   7.860  0.00  0.00    +0.141 C 
BRANCH  24  25
ATOM     25  C   UNL     1      12.778   0.394   9.196  0.00  0.00    -0.030 A 
ATOM     26  C   UNL     1      12.553   1.130  10.344  0.00  0.00    +0.006 A 
ATOM     27  C   UNL     1      12.968   0.643  11.569  0.00  0.00    +0.020 A 
ATOM     28  C   UNL     1      13.608  -0.581  11.646  0.00  0.00    +0.041 A 
ATOM     29  C   UNL     1      13.833  -1.317  10.497  0.00  0.00    +0.020 A 
ATOM     30  C   UNL     1      13.412  -0.832   9.273  0.00  0.00    +0.006 A 
ATOM     31 CL   UNL     1      14.129  -1.193  13.185  0.00  0.00    -0.084 Cl
ENDBRANCH  24  25
ENDBRANCH  21  24
ENDBRANCH  17  18
ENDBRANCH   2  17
TORSDOF 9
