REMARK  Name = ZINC64131803
REMARK  10 active torsions:
REMARK  status: ('A' for Active; 'I' for Inactive)
REMARK    1  A    between atoms: C_1  and  O_2
REMARK    2  A    between atoms: O_2  and  C_3
REMARK    3  A    between atoms: C_3  and  C_5
REMARK    4  A    between atoms: N_7  and  C_10
REMARK    5  A    between atoms: C_13  and  C_23
REMARK    6  A    between atoms: N_15  and  C_17
REMARK    7  A    between atoms: C_17  and  C_18
REMARK    8  A    between atoms: N_25  and  C_26
REMARK    9  A    between atoms: C_26  and  C_27
REMARK   10  A    between atoms: C_27  and  C_28
REMARK                            x       y       z     vdW  Elec       q    Type
REMARK                         _______ _______ _______ _____ _____    ______ ____
ROOT
ATOM      1  C   UNL     1      -2.972  -5.174  -0.147  0.00  0.00    +0.074 C 
ATOM      2  C   UNL     1      -2.721  -6.124  -1.347  0.00  0.00    +0.016 C 
ATOM      3  C   UNL     1      -3.098  -7.509  -0.780  0.00  0.00    +0.021 C 
ATOM      4  N   UNL     1      -2.990  -7.423   0.688  0.00  0.00    +0.391 N 
ATOM      5  C   UNL     1      -2.543  -6.060   1.049  0.00  0.00    -0.053 C 
ATOM      6  H   UNL     1      -3.890  -7.606   1.106  0.00  0.00    -0.080 HD
ENDROOT
BRANCH   1   9
ATOM      7  C   UNL     1      -1.517  -1.857  -0.332  0.00  0.00    +0.142 C 
ATOM      8  C   UNL     1      -2.583  -2.682  -0.227  0.00  0.00    +0.121 C 
ATOM      9  N   UNL     1      -2.132  -3.977  -0.241  0.00  0.00    -0.255 N 
ATOM     10  N   UNL     1      -0.772  -3.968  -0.355  0.00  0.00    -0.160 NA
ATOM     11  N   UNL     1      -0.362  -2.665  -0.419  0.00  0.00    -0.257 N 
ATOM     12  H   UNL     1      -0.340  -4.448   0.420  0.00  0.00    +0.168 HD
ATOM     13  H   UNL     1       0.553  -2.354  -0.507  0.00  0.00    +0.168 HD
BRANCH   7  14
ATOM     14  C   UNL     1      -1.553  -0.442  -0.357  0.00  0.00    +0.355 C 
ATOM     15  O   UNL     1      -2.618   0.142  -0.274  0.00  0.00    -0.243 OA
BRANCH  14  17
ATOM     16  C   UNL     1      -0.516   1.685  -0.490  0.00  0.00    +0.280 C 
ATOM     17  O   UNL     1      -0.406   0.261  -0.472  0.00  0.00    -0.464 OA
ENDBRANCH  14  17
ENDBRANCH   7  14
ENDBRANCH   1   9
BRANCH   3  18
ATOM     18  C   UNL     1      -2.150  -8.555  -1.306  0.00  0.00    +0.200 C 
ATOM     19  O   UNL     1      -0.968  -8.490  -1.041  0.00  0.00    -0.278 OA
ATOM     20  N   UNL     1      -2.614  -9.562  -2.072  0.00  0.00    -0.316 N 
ATOM     21  H   UNL     1      -3.559  -9.614  -2.284  0.00  0.00    +0.149 HD
BRANCH  20  22
ATOM     22  C   UNL     1      -1.692 -10.579  -2.584  0.00  0.00    +0.108 C 
BRANCH  22  23
ATOM     23  C   UNL     1      -2.470 -11.599  -3.417  0.00  0.00    +0.052 C 
BRANCH  23  24
ATOM     24  C   UNL     1      -1.521 -12.645  -3.943  0.00  0.00    -0.040 C 
ATOM     25  C   UNL     1      -1.250 -13.850  -3.391  0.00  0.00    -0.001 A 
ATOM     26  C   UNL     1      -1.738 -14.520  -2.180  0.00  0.00    +0.010 A 
ATOM     27  C   UNL     1      -1.272 -15.754  -1.880  0.00  0.00    +0.001 A 
ATOM     28  C   UNL     1      -0.336 -16.406  -2.694  0.00  0.00    +0.002 A 
ATOM     29  C   UNL     1       0.159 -15.854  -3.822  0.00  0.00    +0.026 A 
ATOM     30  C   UNL     1      -0.263 -14.560  -4.234  0.00  0.00    +0.043 A 
ATOM     31  N   UNL     1       0.065 -13.823  -5.268  0.00  0.00    -0.380 N 
ATOM     32  C   UNL     1      -0.684 -12.563  -5.200  0.00  0.00    +0.144 C 
ATOM     33  H   UNL     1       0.694 -14.071  -5.964  0.00  0.00    +0.160 HD
ENDBRANCH  23  24
ENDBRANCH  22  23
ENDBRANCH  20  22
ENDBRANCH   3  18
BRANCH   4  34
ATOM     34  C   UNL     1      -2.014  -8.408   1.171  0.00  0.00    -0.041 C 
BRANCH  34  35
ATOM     35  C   UNL     1      -2.034  -8.440   2.677  0.00  0.00    -0.057 A 
ATOM     36  C   UNL     1      -1.208  -7.605   3.407  0.00  0.00    +0.009 A 
ATOM     37  C   UNL     1      -1.251  -7.658   4.761  0.00  0.00    +0.045 A 
ATOM     38  S   UNL     1      -2.486  -8.916   5.043  0.00  0.00    -0.105 S 
ATOM     39  C   UNL     1      -2.866  -9.282   3.337  0.00  0.00    +0.047 A 
ENDBRANCH  34  35
ENDBRANCH   4  34
TORSDOF 9
