REMARK  Name = ZINC64713573
REMARK  7 active torsions:
REMARK  status: ('A' for Active; 'I' for Inactive)
REMARK    1  A    between atoms: C_1  and  C_2
REMARK    2  A    between atoms: C_2  and  N_3
REMARK    3  A    between atoms: N_3  and  C_4
REMARK    4  A    between atoms: C_10  and  C_12
REMARK    5  A    between atoms: C_12  and  N_13
REMARK    6  A    between atoms: C_16  and  C_21
REMARK    7  A    between atoms: C_21  and  C_22
REMARK                            x       y       z     vdW  Elec       q    Type
REMARK                         _______ _______ _______ _____ _____    ______ ____
ROOT
ATOM      1  N   UNL     1      -1.904  -1.262   3.586  0.00  0.00    -0.216 N 
ATOM      2  C   UNL     1      -2.922  -0.681   4.252  0.00  0.00    +0.244 C 
ATOM      3  O   UNL     1      -3.396   0.417   4.052  0.00  0.00    -0.273 OA
ATOM      4  C   UNL     1      -3.352  -1.686   5.301  0.00  0.00    +0.165 C 
ATOM      5  N   UNL     1      -2.442  -2.824   5.085  0.00  0.00    -0.287 N 
ATOM      6  C   UNL     1      -1.638  -2.484   4.061  0.00  0.00    +0.310 C 
ATOM      7  O   UNL     1      -0.765  -3.205   3.620  0.00  0.00    -0.252 OA
ATOM      8  H   UNL     1      -2.426  -3.657   5.582  0.00  0.00    +0.151 HD
ENDROOT
BRANCH   1   9
ATOM      9  C   UNL     1      -1.183  -0.635   2.476  0.00  0.00    +0.214 C 
BRANCH   9  11
ATOM     10  N   UNL     1      -1.372  -0.511   0.012  0.00  0.00    -0.270 N 
ATOM     11  C   UNL     1      -1.864  -0.981   1.176  0.00  0.00    +0.238 C 
ATOM     12  O   UNL     1      -2.854  -1.681   1.178  0.00  0.00    -0.274 OA
BRANCH  10  13
ATOM     13  C   UNL     1      -2.060  -0.747  -1.183  0.00  0.00    +0.036 A 
ATOM     14  C   UNL     1      -3.290  -0.143  -1.409  0.00  0.00    +0.023 A 
ATOM     15  C   UNL     1      -3.966  -0.378  -2.591  0.00  0.00    +0.002 A 
ATOM     16  C   UNL     1      -3.419  -1.212  -3.548  0.00  0.00    +0.000 A 
ATOM     17  C   UNL     1      -2.194  -1.815  -3.326  0.00  0.00    +0.002 A 
ATOM     18  C   UNL     1      -1.511  -1.580  -2.149  0.00  0.00    +0.023 A 
ENDBRANCH  10  13
BRANCH  10  20
ATOM     19  C   UNL     1      -0.420   1.736   0.177  0.00  0.00    +0.025 C 
ATOM     20  C   UNL     1      -0.118   0.246  -0.001  0.00  0.00    +0.110 C 
ENDBRANCH  10  20
ENDBRANCH   9  11
ENDBRANCH   1   9
BRANCH   4  21
ATOM     21  C   UNL     1      -4.806  -2.107   5.080  0.00  0.00    +0.065 C 
BRANCH  21  22
ATOM     22  C   UNL     1      -5.245  -3.010   6.204  0.00  0.00    -0.039 C 
ATOM     23  C   UNL     1      -5.906  -2.647   7.327  0.00  0.00    -0.001 A 
ATOM     24  C   UNL     1      -6.393  -1.353   7.820  0.00  0.00    +0.010 A 
ATOM     25  C   UNL     1      -7.034  -1.303   9.010  0.00  0.00    +0.001 A 
ATOM     26  C   UNL     1      -7.242  -2.454   9.784  0.00  0.00    +0.002 A 
ATOM     27  C   UNL     1      -6.824  -3.677   9.398  0.00  0.00    +0.026 A 
ATOM     28  C   UNL     1      -6.139  -3.846   8.163  0.00  0.00    +0.043 A 
ATOM     29  N   UNL     1      -5.642  -4.910   7.578  0.00  0.00    -0.380 N 
ATOM     30  C   UNL     1      -5.042  -4.505   6.302  0.00  0.00    +0.144 C 
ATOM     31  H   UNL     1      -5.670  -5.814   7.929  0.00  0.00    +0.160 HD
ENDBRANCH  21  22
ENDBRANCH   4  21
TORSDOF 6
