REMARK  Name = ZINC14270403
REMARK  6 active torsions:
REMARK  status: ('A' for Active; 'I' for Inactive)
REMARK    1  A    between atoms: C_5  and  C_7
REMARK    2  A    between atoms: N_9  and  C_10
REMARK    3  A    between atoms: C_10  and  N_12
REMARK    4  A    between atoms: N_12  and  N_13
REMARK    5  A    between atoms: N_13  and  C_14
REMARK    6  A    between atoms: C_17  and  N_20
REMARK                            x       y       z     vdW  Elec       q    Type
REMARK                         _______ _______ _______ _____ _____    ______ ____
ROOT
ATOM      1  C   UNL     1       2.484  -4.105  -0.043  0.00  0.00    +0.153 C 
ATOM      2  S   UNL     1       3.980  -4.937  -0.062  0.00  0.00    -0.017 S 
ENDROOT
BRANCH   1   5
ATOM      3  C   UNL     1       1.350  -6.146  -0.042  0.00  0.00    +0.251 C 
ATOM      4  O   UNL     1       2.412  -6.736  -0.055  0.00  0.00    -0.270 OA
ATOM      5  N   UNL     1       1.328  -4.798  -0.035  0.00  0.00    -0.263 N 
ATOM      6  H   UNL     1       0.480  -4.327  -0.024  0.00  0.00    +0.157 HD
BRANCH   3  11
ATOM      7  C   UNL     1      -2.319  -6.945  -0.009  0.00  0.00    +0.001 A 
ATOM      8  C   UNL     1      -2.293  -8.329  -0.016  0.00  0.00    +0.001 A 
ATOM      9  C   UNL     1      -1.087  -9.004  -0.032  0.00  0.00    +0.015 A 
ATOM     10  C   UNL     1       0.101  -8.302  -0.041  0.00  0.00    +0.025 A 
ATOM     11  C   UNL     1       0.083  -6.905  -0.034  0.00  0.00    +0.050 A 
ATOM     12  C   UNL     1      -1.140  -6.230  -0.012  0.00  0.00    +0.014 A 
ATOM     13  I   UNL     1       1.928  -9.327  -0.064  0.00  0.00    -0.043 I 
ENDBRANCH   3  11
ENDBRANCH   1   5
BRANCH   1  14
ATOM     14  N   UNL     1       2.462  -2.758  -0.036  0.00  0.00    -0.248 N 
ATOM     15  H   UNL     1       3.294  -2.259  -0.042  0.00  0.00    +0.172 HD
BRANCH  14  16
ATOM     16  N   UNL     1       1.238  -2.077  -0.021  0.00  0.00    -0.265 N 
ATOM     17  H   UNL     1       0.406  -2.576  -0.015  0.00  0.00    +0.170 HD
BRANCH  16  18
ATOM     18  C   UNL     1       1.215  -0.681  -0.013  0.00  0.00    +0.045 A 
ATOM     19  C   UNL     1       0.002  -0.004   0.002  0.00  0.00    +0.026 A 
ATOM     20  C   UNL     1      -0.017   1.377   0.010  0.00  0.00    +0.034 A 
ATOM     21  C   UNL     1       1.171   2.086   0.002  0.00  0.00    +0.126 A 
ATOM     22  C   UNL     1       2.380   1.416  -0.013  0.00  0.00    +0.034 A 
ATOM     23  C   UNL     1       2.406   0.035  -0.021  0.00  0.00    +0.026 A 
BRANCH  21  24
ATOM     24  N   UNL     1       1.147   3.566   0.010  0.00  0.00    +0.056 N 
ATOM     25  O   UNL     1       0.082   4.158   0.023  0.00  0.00    -0.126 OA
ATOM     26  O   UNL     1       2.191   4.192   0.003  0.00  0.00    -0.126 OA
ENDBRANCH  21  24
ENDBRANCH  16  18
ENDBRANCH  14  16
ENDBRANCH   1  14
TORSDOF 6
