REMARK  Name = ZINC27574796
REMARK  10 active torsions:
REMARK  status: ('A' for Active; 'I' for Inactive)
REMARK    1  A    between atoms: C_1  and  C_2
REMARK    2  A    between atoms: C_2  and  O_3
REMARK    3  A    between atoms: O_3  and  C_4
REMARK    4  A    between atoms: C_4  and  C_6
REMARK    5  A    between atoms: C_7  and  C_19
REMARK    6  A    between atoms: C_12  and  C_14
REMARK    7  A    between atoms: C_19  and  N_20
REMARK    8  A    between atoms: N_20  and  C_21
REMARK    9  A    between atoms: N_20  and  C_31
REMARK   10  A    between atoms: C_21  and  C_22
REMARK                            x       y       z     vdW  Elec       q    Type
REMARK                         _______ _______ _______ _____ _____    ______ ____
ROOT
ATOM      1  C   UNL     1       2.867  -1.413  -0.099  0.00  0.00    +0.079 C 
ATOM      2  C   UNL     1       1.927  -1.292  -1.061  0.00  0.00    +0.008 C 
ATOM      3  N   UNL     1       1.728  -2.283  -1.979  0.00  0.00    -0.274 N 
ATOM      4  C   UNL     1       2.422  -3.427  -2.000  0.00  0.00    +0.304 C 
ATOM      5  O   UNL     1       2.173  -4.251  -2.858  0.00  0.00    -0.252 OA
ATOM      6  N   UNL     1       3.389  -3.695  -1.101  0.00  0.00    -0.285 N 
ATOM      7  C   UNL     1       3.683  -2.689  -0.066  0.00  0.00    +0.179 C 
ATOM      8  H   UNL     1       0.960  -2.164  -2.759  0.00  0.00    +0.156 HD
ATOM      9  H   UNL     1       3.954  -4.639  -1.126  0.00  0.00    +0.151 HD
ENDROOT
BRANCH   7  10
ATOM     10  C   UNL     1       3.487  -3.337   1.280  0.00  0.00    +0.130 A 
ATOM     11  C   UNL     1       4.267  -3.157   2.361  0.00  0.00    +0.047 A 
ATOM     12  C   UNL     1       3.722  -3.950   3.397  0.00  0.00    +0.041 A 
ATOM     13  C   UNL     1       2.640  -4.567   2.887  0.00  0.00    +0.195 A 
ATOM     14  O   UNL     1       2.499  -4.187   1.607  0.00  0.00    -0.466 OA
ENDBRANCH   7  10
BRANCH   1  15
ATOM     15  C   UNL     1       3.079  -0.385   0.850  0.00  0.00    +0.339 C 
ATOM     16  O   UNL     1       2.335   0.577   0.881  0.00  0.00    -0.245 OA
BRANCH  15  17
ATOM     17  O   UNL     1       4.106  -0.472   1.721  0.00  0.00    -0.462 OA
BRANCH  17  19
ATOM     18  C   UNL     1       5.468   0.329   3.550  0.00  0.00    +0.048 C 
ATOM     19  C   UNL     1       4.260   0.602   2.651  0.00  0.00    +0.229 C 
ENDBRANCH  17  19
ENDBRANCH  15  17
ENDBRANCH   1  15
BRANCH   2  20
ATOM     20  C   UNL     1       1.089  -0.041  -1.126  0.00  0.00    -0.026 C 
BRANCH  20  21
ATOM     21  N   UNL     1      -0.001  -0.130  -0.145  0.00  0.00    +0.388 N 
ATOM     22  H   UNL     1       0.417  -0.533   0.789  0.00  0.00    -0.080 HD
BRANCH  21  23
ATOM     23  C   UNL     1      -1.048  -1.051  -0.605  0.00  0.00    -0.068 C 
ATOM     24  C   UNL     1      -2.257  -0.996   0.351  0.00  0.00    -0.015 C 
ATOM     25  C   UNL     1      -2.757  -2.462   0.415  0.00  0.00    -0.002 C 
ATOM     26  C   UNL     1      -1.438  -3.274   0.400  0.00  0.00    -0.002 C 
ATOM     27  C   UNL     1      -0.528  -2.499  -0.575  0.00  0.00    -0.015 C 
ENDBRANCH  21  23
BRANCH  21  28
ATOM     28  C   UNL     1      -0.557   1.198   0.145  0.00  0.00    -0.042 C 
BRANCH  28  29
ATOM     29  C   UNL     1      -1.217   1.181   1.500  0.00  0.00    -0.060 A 
ATOM     30  C   UNL     1      -0.444   1.100   2.643  0.00  0.00    +0.005 A 
ATOM     31  C   UNL     1      -1.045   1.084   3.888  0.00  0.00    +0.050 A 
ATOM     32  C   UNL     1      -2.425   1.148   3.993  0.00  0.00    +0.166 A 
ATOM     33  C   UNL     1      -3.204   1.229   2.841  0.00  0.00    +0.166 A 
ATOM     34  C   UNL     1      -2.595   1.251   1.597  0.00  0.00    +0.051 A 
ATOM     35  O   UNL     1      -4.518   1.281   3.206  0.00  0.00    -0.453 OA
ATOM     36  C   UNL     1      -4.516   1.642   4.600  0.00  0.00    +0.466 C 
ATOM     37  O   UNL     1      -3.251   1.149   5.079  0.00  0.00    -0.453 OA
ENDBRANCH  28  29
ENDBRANCH  21  28
ENDBRANCH  20  21
ENDBRANCH   2  20
TORSDOF 9
