REMARK  Name = ZINC66187635
REMARK  8 active torsions:
REMARK  status: ('A' for Active; 'I' for Inactive)
REMARK    1  A    between atoms: C_1  and  C_2
REMARK    2  A    between atoms: C_7  and  C_9
REMARK    3  A    between atoms: C_7  and  N_26
REMARK    4  A    between atoms: C_9  and  N_10
REMARK    5  A    between atoms: C_16  and  N_19
REMARK    6  A    between atoms: C_20  and  C_22
REMARK    7  A    between atoms: N_26  and  C_27
REMARK    8  A    between atoms: N_26  and  C_28
REMARK                            x       y       z     vdW  Elec       q    Type
REMARK                         _______ _______ _______ _____ _____    ______ ____
ROOT
ATOM      1  N   UNL     1       1.266  -4.227   2.378  0.00  0.00    -0.301 N 
ATOM      2  C   UNL     1       1.718  -5.071   3.327  0.00  0.00    +0.302 C 
ATOM      3  O   UNL     1       2.386  -4.647   4.250  0.00  0.00    -0.253 OA
ATOM      4  N   UNL     1       1.427  -6.385   3.253  0.00  0.00    -0.286 N 
ATOM      5  C   UNL     1       1.807  -7.298   4.340  0.00  0.00    +0.111 C 
ATOM      6  C   UNL     1       0.563  -8.066   4.797  0.00  0.00    +0.041 C 
ATOM      7  C   UNL     1      -0.077  -8.757   3.591  0.00  0.00    +0.076 C 
ATOM      8  C   UNL     1      -0.508  -7.704   2.567  0.00  0.00    +0.041 C 
ATOM      9  C   UNL     1       0.719  -6.931   2.087  0.00  0.00    +0.111 C 
ATOM     10  H   UNL     1       0.802  -4.575   1.601  0.00  0.00    +0.150 HD
ENDROOT
BRANCH   7  11
ATOM     11  N   UNL     1      -1.248  -9.519   4.030  0.00  0.00    -0.312 N 
ATOM     12  C   UNL     1      -1.672 -10.577   3.310  0.00  0.00    +0.216 C 
ATOM     13  O   UNL     1      -1.083 -10.898   2.300  0.00  0.00    -0.276 OA
ATOM     14  H   UNL     1      -1.719  -9.262   4.838  0.00  0.00    +0.149 HD
BRANCH  12  15
ATOM     15  C   UNL     1      -2.877 -11.361   3.762  0.00  0.00    +0.075 C 
ATOM     16  C   UNL     1      -2.560 -12.411   4.840  0.00  0.00    +0.013 C 
ATOM     17  C   UNL     1      -3.536 -13.345   4.105  0.00  0.00    +0.001 C 
ATOM     18  C   UNL     1      -3.230 -12.536   2.834  0.00  0.00    +0.013 C 
ENDBRANCH  12  15
ENDBRANCH   7  11
BRANCH   1  19
ATOM     19  C   UNL     1       1.478  -2.784   2.520  0.00  0.00    +0.094 C 
BRANCH  19  25
ATOM     20  C   UNL     1       1.284  -2.128  -2.429  0.00  0.00    +0.007 C 
ATOM     21  C   UNL     1       0.666  -1.721  -1.090  0.00  0.00    -0.015 C 
ATOM     22  C   UNL     1      -0.819  -2.090  -1.081  0.00  0.00    +0.003 C 
ATOM     23  C   UNL     1      -1.437  -1.683   0.259  0.00  0.00    -0.001 C 
ATOM     24  C   UNL     1      -0.722  -2.418   1.394  0.00  0.00    -0.010 C 
ATOM     25  C   UNL     1       0.763  -2.050   1.385  0.00  0.00    -0.050 C 
ATOM     26  C   UNL     1       1.381  -2.456   0.045  0.00  0.00    -0.007 C 
BRANCH  25  27
ATOM     27  N   UNL     1       0.908  -0.600   1.571  0.00  0.00    +0.381 N 
ATOM     28  C   UNL     1       0.377  -0.220   2.887  0.00  0.00    -0.096 C 
ATOM     29  C   UNL     1       2.330  -0.236   1.493  0.00  0.00    -0.096 C 
ATOM     30  H   UNL     1       0.397  -0.115   0.849  0.00  0.00    -0.082 HD
ENDBRANCH  25  27
ENDBRANCH  19  25
ENDBRANCH   1  19
TORSDOF 5
