REMARK  Name = ZINC63572271
REMARK  6 active torsions:
REMARK  status: ('A' for Active; 'I' for Inactive)
REMARK    1  A    between atoms: C_1  and  C_2
REMARK    2  A    between atoms: C_5  and  C_8
REMARK    3  A    between atoms: C_8  and  N_9
REMARK    4  A    between atoms: C_25  and  C_27
REMARK    5  A    between atoms: C_30  and  O_33
REMARK    6  A    between atoms: O_33  and  C_34
REMARK                            x       y       z     vdW  Elec       q    Type
REMARK                         _______ _______ _______ _____ _____    ______ ____
ROOT
ATOM      1  N   UNL     1       1.619  -5.031   1.274  0.00  0.00    -0.295 N 
ATOM      2  C   UNL     1       1.839  -6.280   0.817  0.00  0.00    +0.303 C 
ATOM      3  O   UNL     1       0.941  -7.100   0.832  0.00  0.00    -0.253 OA
ATOM      4  N   UNL     1       3.054  -6.619   0.342  0.00  0.00    -0.276 N 
ATOM      5  C   UNL     1       4.165  -5.669   0.449  0.00  0.00    +0.114 C 
ATOM      6  C   UNL     1       4.729  -5.380  -0.955  0.00  0.00    +0.052 C 
ATOM      7  C   UNL     1       4.865  -6.713  -1.649  0.00  0.00    -0.035 C 
ATOM      8  C   UNL     1       5.892  -7.277  -2.274  0.00  0.00    +0.001 A 
ATOM      9  C   UNL     1       7.231  -6.768  -2.613  0.00  0.00    +0.030 A 
ATOM     10  C   UNL     1       8.058  -7.638  -3.252  0.00  0.00    +0.042 A 
ATOM     11  C   UNL     1       7.691  -8.947  -3.583  0.00  0.00    +0.022 A 
ATOM     12  C   UNL     1       6.478  -9.494  -3.317  0.00  0.00    +0.027 A 
ATOM     13  C   UNL     1       5.519  -8.673  -2.654  0.00  0.00    +0.043 A 
ATOM     14  N   UNL     1       4.294  -8.928  -2.304  0.00  0.00    -0.375 N 
ATOM     15  C   UNL     1       3.720  -7.716  -1.718  0.00  0.00    +0.131 C 
ATOM     16  C   UNL     1       3.252  -7.942  -0.271  0.00  0.00    +0.134 C 
ATOM     17 CL   UNL     1       9.651  -7.096  -3.680  0.00  0.00    -0.084 Cl
ATOM     18  H   UNL     1       2.353  -4.399   1.331  0.00  0.00    +0.151 HD
ATOM     19  H   UNL     1       3.837  -9.777  -2.412  0.00  0.00    +0.160 HD
ENDROOT
BRANCH  16  20
ATOM     20  C   UNL     1       1.953  -8.707  -0.266  0.00  0.00    -0.024 A 
ATOM     21  C   UNL     1       0.892  -8.270  -1.037  0.00  0.00    +0.009 A 
ATOM     22  C   UNL     1      -0.300  -8.969  -1.034  0.00  0.00    +0.046 A 
ATOM     23  C   UNL     1      -0.431 -10.110  -0.256  0.00  0.00    +0.120 A 
ATOM     24  C   UNL     1       0.636 -10.547   0.517  0.00  0.00    +0.046 A 
ATOM     25  C   UNL     1       1.827  -9.847   0.506  0.00  0.00    +0.009 A 
BRANCH  23  26
ATOM     26  O   UNL     1      -1.602 -10.800  -0.250  0.00  0.00    -0.495 OA
ATOM     27  C   UNL     1      -1.665 -11.965   0.575  0.00  0.00    +0.277 C 
ENDBRANCH  23  26
ENDBRANCH  16  20
BRANCH   1  28
ATOM     28  C   UNL     1       0.272  -4.629   1.686  0.00  0.00    +0.141 C 
BRANCH  28  33
ATOM     29  C   UNL     1       0.364   0.864   3.480  0.00  0.00    +0.044 C 
ATOM     30  C   UNL     1       0.340  -0.569   3.012  0.00  0.00    -0.050 A 
ATOM     31  C   UNL     1       0.099  -0.857   1.682  0.00  0.00    +0.003 A 
ATOM     32  C   UNL     1       0.077  -2.171   1.253  0.00  0.00    +0.005 A 
ATOM     33  C   UNL     1       0.297  -3.196   2.154  0.00  0.00    -0.030 A 
ATOM     34  C   UNL     1       0.539  -2.908   3.484  0.00  0.00    +0.005 A 
ATOM     35  C   UNL     1       0.565  -1.593   3.912  0.00  0.00    +0.003 A 
ENDBRANCH  28  33
ENDBRANCH   1  28
TORSDOF 4
