REMARK  Name = ZINC16012518
REMARK  4 active torsions:
REMARK  status: ('A' for Active; 'I' for Inactive)
REMARK    1  A    between atoms: C_1  and  C_2
REMARK    2  A    between atoms: C_2  and  C_3
REMARK    3  A    between atoms: N_24  and  C_27
REMARK    4  A    between atoms: C_31  and  N_33
REMARK                            x       y       z     vdW  Elec       q    Type
REMARK                         _______ _______ _______ _____ _____    ______ ____
ROOT
ATOM      1  C   UNL     1       4.460  10.127  -1.707  0.00  0.00    -0.026 A 
ATOM      2  C   UNL     1       4.548   9.752  -3.032  0.00  0.00    +0.005 A 
ATOM      3  C   UNL     1       4.720   8.423  -3.372  0.00  0.00    +0.001 A 
ATOM      4  C   UNL     1       4.803   7.464  -2.377  0.00  0.00    +0.004 A 
ATOM      5  C   UNL     1       4.713   7.834  -1.055  0.00  0.00    -0.027 A 
ATOM      6  C   UNL     1       4.541   9.168  -0.701  0.00  0.00    +0.039 A 
ATOM      7  N   UNL     1       4.479   9.295   0.688  0.00  0.00    -0.286 N 
ATOM      8  C   UNL     1       4.602   8.109   1.312  0.00  0.00    +0.212 C 
ATOM      9  O   UNL     1       4.587   7.919   2.510  0.00  0.00    -0.277 OA
ATOM     10  C   UNL     1       4.762   7.060   0.239  0.00  0.00    +0.053 C 
ATOM     11  C   UNL     1       3.799   5.957   0.320  0.00  0.00    +0.089 C 
ATOM     12  C   UNL     1       4.548   4.782  -0.430  0.00  0.00    +0.074 C 
ATOM     13  C   UNL     1       5.881   4.921   0.303  0.00  0.00    -0.054 C 
ATOM     14  C   UNL     1       6.675   6.715   1.687  0.00  0.00    -0.076 C 
ATOM     15  C   UNL     1       6.787   5.393   2.474  0.00  0.00    -0.020 C 
ATOM     16  C   UNL     1       5.752   4.453   1.766  0.00  0.00    -0.016 C 
ATOM     17  C   UNL     1       3.586   3.701  -0.007  0.00  0.00    +0.228 C 
ATOM     18  O   UNL     1       3.849   2.550   0.265  0.00  0.00    -0.275 OA
ATOM     19  N   UNL     1       2.353   4.290   0.002  0.00  0.00    -0.210 N 
ATOM     20  C   UNL     1       2.418   5.661   0.009  0.00  0.00    +0.229 C 
ATOM     21  O   UNL     1       1.520   6.448  -0.199  0.00  0.00    -0.275 OA
ATOM     22  H   UNL     1       4.360  10.139   1.149  0.00  0.00    +0.155 HD
ATOM     23  N   UNL     1       6.084   6.391   0.383  0.00  0.00    +0.395 N 
ATOM     24  H   UNL     1       6.713   6.699  -0.369  0.00  0.00    -0.079 HD
ENDROOT
BRANCH  19  25
ATOM     25  C   UNL     1       1.150   3.570   0.010  0.00  0.00    +0.046 A 
ATOM     26  C   UNL     1      -0.064   4.244   0.025  0.00  0.00    +0.024 A 
ATOM     27  C   UNL     1      -1.248   3.533   0.033  0.00  0.00    +0.004 A 
ATOM     28  C   UNL     1      -1.225   2.150   0.019  0.00  0.00    +0.033 A 
ATOM     29  C   UNL     1      -0.018   1.476   0.010  0.00  0.00    +0.128 A 
ATOM     30  C   UNL     1       1.169   2.182   0.003  0.00  0.00    +0.056 A 
BRANCH  29  31
ATOM     31  N   UNL     1       0.002  -0.004   0.002  0.00  0.00    +0.056 N 
ATOM     32  O   UNL     1       1.065  -0.599  -0.011  0.00  0.00    -0.126 OA
ATOM     33  O   UNL     1      -1.044  -0.627   0.009  0.00  0.00    -0.126 OA
ENDBRANCH  29  31
ENDBRANCH  19  25
BRANCH   1  35
ATOM     34  C   UNL     1       5.634  12.212  -1.056  0.00  0.00    +0.009 C 
ATOM     35  C   UNL     1       4.272  11.579  -1.348  0.00  0.00    +0.033 C 
ENDBRANCH   1  35
TORSDOF 3
