REMARK  Name = ZINC39449301
REMARK  5 active torsions:
REMARK  status: ('A' for Active; 'I' for Inactive)
REMARK    1  A    between atoms: C_1  and  O_2
REMARK    2  A    between atoms: O_2  and  C_3
REMARK    3  A    between atoms: N_9  and  C_12
REMARK    4  A    between atoms: C_22  and  C_25
REMARK    5  A    between atoms: C_30  and  O_31
REMARK                            x       y       z     vdW  Elec       q    Type
REMARK                         _______ _______ _______ _____ _____    ______ ____
ROOT
ATOM      1  C   UNL     1      -1.135  -0.913   0.052  0.00  0.00    +0.139 A 
ATOM      2  C   UNL     1      -1.256  -2.297   0.043  0.00  0.00    +0.062 A 
ATOM      3  C   UNL     1      -2.540  -2.841   0.042  0.00  0.00    +0.071 A 
ATOM      4  C   UNL     1      -3.657  -1.976   0.050  0.00  0.00    +0.099 A 
ATOM      5  C   UNL     1      -4.998  -2.574   0.048  0.00  0.00    +0.082 A 
ATOM      6  C   UNL     1      -5.136  -3.951   0.042  0.00  0.00    +0.115 A 
ATOM      7  N   UNL     1      -4.020  -4.780   0.033  0.00  0.00    -0.268 N 
ATOM      8  C   UNL     1      -2.766  -4.293   0.033  0.00  0.00    +0.266 A 
ATOM      9  O   UNL     1      -1.817  -5.056   0.025  0.00  0.00    -0.267 OA
ATOM     10  C   UNL     1      -6.425  -4.527   0.052  0.00  0.00    +0.184 C 
ATOM     11  O   UNL     1      -6.545  -5.734  -0.002  0.00  0.00    -0.290 OA
ATOM     12  C   UNL     1      -7.654  -3.658   0.129  0.00  0.00    +0.108 C 
ATOM     13  C   UNL     1      -7.362  -2.306  -0.531  0.00  0.00    +0.112 C 
ATOM     14  N   UNL     1      -6.121  -1.769   0.047  0.00  0.00    -0.333 N 
ATOM     15  N   UNL     1      -3.485  -0.659   0.058  0.00  0.00    -0.249 NA
ATOM     16  C   UNL     1      -2.284  -0.124   0.065  0.00  0.00    +0.157 A 
ATOM     17  H   UNL     1      -6.092  -0.874   0.418  0.00  0.00    +0.147 HD
ENDROOT
BRANCH   7  18
ATOM     18  C   UNL     1      -4.207  -6.168   0.022  0.00  0.00    +0.097 A 
ATOM     19  C   UNL     1      -4.299  -6.849  -1.183  0.00  0.00    +0.030 A 
ATOM     20  C   UNL     1      -4.483  -8.218  -1.190  0.00  0.00    +0.002 A 
ATOM     21  C   UNL     1      -4.578  -8.913   0.002  0.00  0.00    +0.004 A 
ATOM     22  C   UNL     1      -4.488  -8.242   1.206  0.00  0.00    +0.053 A 
ATOM     23  C   UNL     1      -4.298  -6.869   1.223  0.00  0.00    +0.203 A 
ATOM     24  O   UNL     1      -4.203  -6.208   2.407  0.00  0.00    -0.286 OA
ENDBRANCH   7  18
BRANCH  13  25
ATOM     25  C   UNL     1      -7.193  -2.492  -2.017  0.00  0.00    +0.014 A 
ATOM     26  C   UNL     1      -5.928  -2.494  -2.574  0.00  0.00    +0.009 A 
ATOM     27  C   UNL     1      -5.772  -2.664  -3.937  0.00  0.00    +0.001 A 
ATOM     28  C   UNL     1      -6.881  -2.832  -4.747  0.00  0.00    +0.004 A 
ATOM     29  C   UNL     1      -8.147  -2.831  -4.195  0.00  0.00    +0.046 A 
ATOM     30  C   UNL     1      -8.306  -2.666  -2.826  0.00  0.00    +0.122 A 
BRANCH  30  31
ATOM     31  O   UNL     1      -9.550  -2.670  -2.281  0.00  0.00    -0.506 OA
ATOM     32  H   UNL     1      -9.964  -1.797  -2.238  0.00  0.00    +0.292 HD
ENDBRANCH  30  31
ENDBRANCH  13  25
BRANCH   1  34
ATOM     33  C   UNL     1       0.137   1.095   0.069  0.00  0.00    +0.277 C 
ATOM     34  O   UNL     1       0.093  -0.333   0.054  0.00  0.00    -0.494 OA
ENDBRANCH   1  34
TORSDOF 4
