REMARK  Name = ZINC05685989
REMARK  6 active torsions:
REMARK  status: ('A' for Active; 'I' for Inactive)
REMARK    1  A    between atoms: C_1  and  C_2
REMARK    2  A    between atoms: C_2  and  C_3
REMARK    3  A    between atoms: C_2  and  C_4
REMARK    4  A    between atoms: C_4  and  C_5
REMARK    5  A    between atoms: C_20  and  C_24
REMARK    6  A    between atoms: C_20  and  C_25
REMARK                            x       y       z     vdW  Elec       q    Type
REMARK                         _______ _______ _______ _____ _____    ______ ____
ROOT
ATOM      1  C   UNL     1       1.802   3.159   0.005  0.00  0.00    +0.041 A 
ATOM      2  C   UNL     1       1.273   1.873   0.000  0.00  0.00    +0.068 A 
ATOM      3  C   UNL     1       2.163   0.786  -0.017  0.00  0.00    +0.021 A 
ATOM      4  C   UNL     1       1.342  -0.429  -0.014  0.00  0.00    +0.008 A 
ATOM      5  C   UNL     1       1.638  -1.793  -0.024  0.00  0.00    +0.010 A 
ATOM      6  C   UNL     1       0.617  -2.716  -0.018  0.00  0.00    +0.001 A 
ATOM      7  C   UNL     1      -0.706  -2.297  -0.003  0.00  0.00    +0.002 A 
ATOM      8  C   UNL     1      -1.015  -0.954   0.007  0.00  0.00    +0.026 A 
ATOM      9  C   UNL     1       0.002  -0.004   0.002  0.00  0.00    +0.048 A 
ATOM     10  N   UNL     1      -0.017   1.378   0.010  0.00  0.00    -0.353 N 
ATOM     11  H   UNL     1      -0.872   2.070   0.021  0.00  0.00    +0.166 HD
ATOM     12  C   UNL     1       3.546   1.051  -0.031  0.00  0.00    +0.046 A 
ATOM     13  C   UNL     1       3.985   2.374  -0.029  0.00  0.00    +0.028 A 
ATOM     14  N   UNL     1       3.103   3.361  -0.009  0.00  0.00    -0.359 N 
ATOM     15  C   UNL     1       5.452   2.712  -0.051  0.00  0.00    +0.060 C 
ATOM     16  C   UNL     1       6.296   1.555   0.476  0.00  0.00    -0.023 C 
ATOM     17  C   UNL     1       5.967   0.283  -0.316  0.00  0.00    +0.086 C 
ATOM     18  C   UNL     1       4.515  -0.055  -0.044  0.00  0.00    +0.166 C 
ATOM     19  O   UNL     1       4.164  -1.198   0.157  0.00  0.00    -0.292 OA
ATOM     20  C   UNL     1       5.983   1.329   1.957  0.00  0.00    +0.011 C 
ATOM     21  C   UNL     1       7.780   1.889   0.313  0.00  0.00    +0.011 C 
ATOM     22  H   UNL     1       3.500   4.386  -0.004  0.00  0.00    +0.165 HD
ENDROOT
BRANCH   1  23
ATOM     23  C   UNL     1       0.869   4.342   0.027  0.00  0.00    +0.058 C 
BRANCH  23  25
ATOM     24  C   UNL     1      -0.506   5.875  -1.388  0.00  0.00    +0.007 C 
ATOM     25  C   UNL     1       0.536   4.755  -1.408  0.00  0.00    -0.011 C 
ATOM     26  C   UNL     1       1.806   5.253  -2.103  0.00  0.00    +0.007 C 
ENDBRANCH  23  25
ENDBRANCH   1  23
TORSDOF 2
