REMARK  Name = ZINC13382645
REMARK  11 active torsions:
REMARK  status: ('A' for Active; 'I' for Inactive)
REMARK    1  A    between atoms: C_1  and  C_2
REMARK    2  A    between atoms: C_2  and  C_3
REMARK    3  A    between atoms: C_3  and  C_4
REMARK    4  A    between atoms: C_4  and  C_6
REMARK    5  A    between atoms: C_4  and  C_9
REMARK    6  A    between atoms: C_6  and  C_7
REMARK    7  A    between atoms: C_10  and  O_30
REMARK    8  A    between atoms: C_16  and  C_19
REMARK    9  A    between atoms: C_16  and  C_20
REMARK   10  A    between atoms: C_22  and  C_29
REMARK   11  A    between atoms: C_24  and  C_28
REMARK                            x       y       z     vdW  Elec       q    Type
REMARK                         _______ _______ _______ _____ _____    ______ ____
ROOT
ATOM      1  C   UNL     1      -0.534   1.567   0.996  0.00  0.00    +0.041 A 
ATOM      2  C   UNL     1      -0.906   2.898   1.099  0.00  0.00    +0.138 A 
ATOM      3  C   UNL     1      -1.621   3.341   2.224  0.00  0.00    +0.102 A 
ATOM      4  C   UNL     1      -1.954   2.443   3.254  0.00  0.00    +0.146 A 
ATOM      5  C   UNL     1      -1.551   1.115   3.145  0.00  0.00    +0.059 A 
ATOM      6  C   UNL     1      -0.866   0.674   2.000  0.00  0.00    +0.139 A 
ATOM      7  O   UNL     1      -0.543  -0.640   1.898  0.00  0.00    -0.481 OA
ATOM      8  C   UNL     1      -0.217  -1.334   3.102  0.00  0.00    +0.124 C 
ATOM      9  C   UNL     1      -1.232  -1.043   4.176  0.00  0.00    +0.020 C 
ATOM     10  C   UNL     1      -1.856   0.131   4.205  0.00  0.00    +0.015 C 
ATOM     11  C   UNL     1       1.166  -0.889   3.581  0.00  0.00    +0.060 C 
ATOM     12  C   UNL     1      -0.194  -2.838   2.825  0.00  0.00    +0.060 C 
ATOM     13  O   UNL     1      -2.657   2.857   4.333  0.00  0.00    -0.487 OA
ATOM     14  C   UNL     1      -2.642   4.244   4.671  0.00  0.00    +0.181 C 
ATOM     15  C   UNL     1      -3.030   5.072   3.438  0.00  0.00    +0.098 C 
ATOM     16  C   UNL     1      -2.027   4.746   2.345  0.00  0.00    +0.176 C 
ATOM     17  O   UNL     1      -1.584   5.604   1.609  0.00  0.00    -0.291 OA
ATOM     18  C   UNL     1      -4.441   4.697   2.981  0.00  0.00    +0.019 C 
ATOM     19  C   UNL     1      -3.643   4.505   5.798  0.00  0.00    +0.052 C 
ENDROOT
BRANCH   2  20
ATOM     20  O   UNL     1      -0.580   3.771   0.115  0.00  0.00    -0.506 OA
ATOM     21  H   UNL     1      -1.245   3.844  -0.583  0.00  0.00    +0.292 HD
ENDBRANCH   2  20
BRANCH   1  22
ATOM     22  C   UNL     1       0.227   1.090  -0.214  0.00  0.00    +0.037 C 
BRANCH  22  23
ATOM     23  C   UNL     1       1.549   1.853  -0.318  0.00  0.00    +0.009 C 
BRANCH  23  25
ATOM     24  C   UNL     1       3.808   2.159   0.705  0.00  0.00    +0.004 C 
ATOM     25  C   UNL     1       2.439   1.496   0.874  0.00  0.00    -0.003 C 
ENDBRANCH  23  25
ENDBRANCH  22  23
BRANCH  22  26
ATOM     26  C   UNL     1      -0.607   1.340  -1.472  0.00  0.00    +0.133 C 
BRANCH  26  27
ATOM     27  C   UNL     1       0.079   0.717  -2.661  0.00  0.00    +0.357 C 
ATOM     28  O   UNL     1       1.067   0.041  -2.503  0.00  0.00    -0.246 OA
ATOM     29  O   UNL     1      -0.409   0.914  -3.896  0.00  0.00    -0.246 OA
ENDBRANCH  26  27
ENDBRANCH  22  26
ENDBRANCH   1  22
TORSDOF 6
