REMARK  Name = ZINC54641477
REMARK  11 active torsions:
REMARK  status: ('A' for Active; 'I' for Inactive)
REMARK    1  A    between atoms: C_1  and  C_2
REMARK    2  A    between atoms: C_2  and  O_3
REMARK    3  A    between atoms: O_3  and  C_4
REMARK    4  A    between atoms: C_6  and  C_19
REMARK    5  A    between atoms: C_9  and  O_10
REMARK    6  A    between atoms: O_10  and  C_11
REMARK    7  A    between atoms: C_11  and  C_12
REMARK    8  A    between atoms: C_21  and  C_30
REMARK    9  A    between atoms: C_22  and  C_29
REMARK   10  A    between atoms: C_30  and  O_32
REMARK   11  A    between atoms: O_32  and  C_33
REMARK                            x       y       z     vdW  Elec       q    Type
REMARK                         _______ _______ _______ _____ _____    ______ ____
ROOT
ATOM      1  C   UNL     1       0.548  -4.939   0.009  0.00  0.00    +0.181 C 
ATOM      2  C   UNL     1       0.422  -5.815   1.228  0.00  0.00    +0.082 C 
ATOM      3  C   UNL     1       0.253  -7.145   1.160  0.00  0.00    +0.020 C 
ATOM      4  N   UNL     1       0.192  -7.816  -0.036  0.00  0.00    -0.286 N 
ATOM      5  C   UNL     1       0.568  -7.122  -1.177  0.00  0.00    +0.240 A 
ATOM      6  N   UNL     1       0.744  -5.774  -1.170  0.00  0.00    -0.201 N 
ATOM      7  N   UNL     1       1.121  -5.439  -2.469  0.00  0.00    -0.042 NA
ATOM      8  N   UNL     1       1.143  -6.544  -3.142  0.00  0.00    -0.021 NA
ATOM      9  N   UNL     1       0.817  -7.537  -2.386  0.00  0.00    -0.092 NA
ATOM     10  C   UNL     1       0.126  -7.928   2.441  0.00  0.00    +0.061 C 
ATOM     11  H   UNL     1      -0.102  -8.739  -0.082  0.00  0.00    +0.155 HD
ENDROOT
BRANCH   1  14
ATOM     12  C   UNL     1      -1.794  -1.990  -0.290  0.00  0.00    +0.162 A 
ATOM     13  C   UNL     1      -0.640  -2.742  -0.139  0.00  0.00    +0.055 A 
ATOM     14  C   UNL     1      -0.708  -4.123  -0.155  0.00  0.00    -0.015 A 
ATOM     15  C   UNL     1      -1.925  -4.756  -0.323  0.00  0.00    +0.010 A 
ATOM     16  C   UNL     1      -3.080  -4.012  -0.475  0.00  0.00    +0.050 A 
ATOM     17  C   UNL     1      -3.020  -2.628  -0.453  0.00  0.00    +0.162 A 
BRANCH  12  18
ATOM     18  O   UNL     1      -1.730  -0.632  -0.273  0.00  0.00    -0.489 OA
BRANCH  18  20
ATOM     19  C   UNL     1      -0.564   1.479  -0.109  0.00  0.00    +0.048 C 
ATOM     20  C   UNL     1      -0.438  -0.046  -0.102  0.00  0.00    +0.226 C 
ENDBRANCH  18  20
ENDBRANCH  12  18
BRANCH  17  21
ATOM     21  O   UNL     1      -4.156  -1.894  -0.596  0.00  0.00    -0.484 OA
BRANCH  21  22
ATOM     22  C   UNL     1      -5.379  -2.616  -0.759  0.00  0.00    +0.264 C 
BRANCH  22  23
ATOM     23  C   UNL     1      -6.521  -1.644  -0.901  0.00  0.00    -0.010 A 
ATOM     24  C   UNL     1      -7.196  -1.201   0.221  0.00  0.00    +0.008 A 
ATOM     25  C   UNL     1      -8.244  -0.310   0.091  0.00  0.00    +0.020 A 
ATOM     26  C   UNL     1      -8.618   0.140  -1.163  0.00  0.00    +0.041 A 
ATOM     27  C   UNL     1      -7.942  -0.304  -2.286  0.00  0.00    +0.020 A 
ATOM     28  C   UNL     1      -6.891  -1.191  -2.154  0.00  0.00    +0.008 A 
ATOM     29 CL   UNL     1      -9.934   1.259  -1.327  0.00  0.00    -0.084 Cl
ENDBRANCH  22  23
ENDBRANCH  21  22
ENDBRANCH  17  21
ENDBRANCH   1  14
BRANCH   2  30
ATOM     30  C   UNL     1       0.486  -5.209   2.502  0.00  0.00    +0.339 C 
ATOM     31  O   UNL     1       1.555  -4.830   2.943  0.00  0.00    -0.245 OA
BRANCH  30  32
ATOM     32  O   UNL     1      -0.639  -5.050   3.230  0.00  0.00    -0.458 OA
BRANCH  32  33
ATOM     33  C   UNL     1      -0.501  -4.429   4.510  0.00  0.00    +0.177 C 
ATOM     34  C   UNL     1      -0.243  -5.500   5.571  0.00  0.00    +0.044 C 
ATOM     35  C   UNL     1      -0.096  -4.836   6.941  0.00  0.00    +0.004 C 
ATOM     36  C   UNL     1      -1.381  -4.079   7.282  0.00  0.00    +0.000 C 
ATOM     37  C   UNL     1      -1.639  -3.008   6.221  0.00  0.00    +0.004 C 
ATOM     38  C   UNL     1      -1.787  -3.672   4.851  0.00  0.00    +0.044 C 
ENDBRANCH  32  33
ENDBRANCH  30  32
ENDBRANCH   2  30
TORSDOF 9
