REMARK  Name = ZINC36637566
REMARK  12 active torsions:
REMARK  status: ('A' for Active; 'I' for Inactive)
REMARK    1  A    between atoms: C_1  and  C_2
REMARK    2  A    between atoms: C_5  and  C_38
REMARK    3  A    between atoms: N_8  and  S_10
REMARK    4  A    between atoms: S_10  and  C_13
REMARK    5  A    between atoms: C_16  and  C_19
REMARK    6  A    between atoms: N_21  and  C_22
REMARK    7  A    between atoms: C_22  and  C_23
REMARK    8  A    between atoms: C_23  and  N_24
REMARK    9  A    between atoms: N_24  and  C_25
REMARK   10  A    between atoms: N_24  and  C_26
REMARK   11  A    between atoms: C_31  and  O_36
REMARK   12  A    between atoms: O_36  and  C_37
REMARK                            x       y       z     vdW  Elec       q    Type
REMARK                         _______ _______ _______ _____ _____    ______ ____
ROOT
ATOM      1  C   UNL     1       3.688  -3.972  -3.805  0.00  0.00    +0.252 C 
ATOM      2  O   UNL     1       3.272  -5.062  -4.147  0.00  0.00    -0.270 OA
ATOM      3  N   UNL     1       4.562  -3.308  -4.587  0.00  0.00    -0.248 N 
ATOM      4  C   UNL     1       4.892  -3.808  -5.835  0.00  0.00    +0.168 A 
ATOM      5  N   UNL     1       4.460  -4.898  -6.427  0.00  0.00    -0.224 NA
ATOM      6  C   UNL     1       4.872  -5.268  -7.659  0.00  0.00    +0.084 A 
ATOM      7  C   UNL     1       4.487  -6.408  -8.401  0.00  0.00    +0.074 A 
ATOM      8  C   UNL     1       5.006  -6.638  -9.653  0.00  0.00    +0.122 A 
ATOM      9  C   UNL     1       5.923  -5.763 -10.229  0.00  0.00    +0.047 A 
ATOM     10  C   UNL     1       6.318  -4.640  -9.528  0.00  0.00    +0.021 A 
ATOM     11  C   UNL     1       5.803  -4.404  -8.278  0.00  0.00    +0.041 A 
ATOM     12  S   UNL     1       6.009  -3.131  -7.055  0.00  0.00    -0.052 S 
ENDROOT
BRANCH   1  16
ATOM     13  C   UNL     1       2.388  -2.256  -0.144  0.00  0.00    +0.106 A 
ATOM     14  C   UNL     1       3.731  -2.236  -0.476  0.00  0.00    +0.029 A 
ATOM     15  C   UNL     1       4.160  -2.791  -1.663  0.00  0.00    +0.015 A 
ATOM     16  C   UNL     1       3.236  -3.376  -2.531  0.00  0.00    +0.037 A 
ATOM     17  C   UNL     1       1.882  -3.394  -2.189  0.00  0.00    +0.015 A 
ATOM     18  C   UNL     1       1.468  -2.839  -0.996  0.00  0.00    +0.029 A 
BRANCH  13  19
ATOM     19  S   UNL     1       1.849  -1.544   1.375  0.00  0.00    +0.061 S 
ATOM     20  O   UNL     1       0.478  -1.212   1.204  0.00  0.00    -0.153 OA
ATOM     21  O   UNL     1       2.827  -0.580   1.741  0.00  0.00    -0.153 OA
BRANCH  19  27
ATOM     22  C   UNL     1       0.008  -5.971   3.043  0.00  0.00    +0.009 C 
ATOM     23  C   UNL     1       1.176  -5.060   2.658  0.00  0.00    +0.002 C 
ATOM     24  C   UNL     1       2.353  -5.313   3.602  0.00  0.00    +0.009 C 
ATOM     25  C   UNL     1       3.534  -4.426   3.196  0.00  0.00    +0.002 C 
ATOM     26  C   UNL     1       3.126  -2.954   3.315  0.00  0.00    +0.112 C 
ATOM     27  N   UNL     1       1.907  -2.736   2.523  0.00  0.00    -0.176 NA
ATOM     28  C   UNL     1       0.741  -3.596   2.769  0.00  0.00    +0.112 C 
ATOM     29  C   UNL     1       4.721  -4.704   4.120  0.00  0.00    +0.009 C 
ENDBRANCH  19  27
ENDBRANCH  13  19
ENDBRANCH   1  16
BRANCH   8  30
ATOM     30  O   UNL     1       4.617  -7.744 -10.342  0.00  0.00    -0.495 OA
ATOM     31  C   UNL     1       5.188  -7.934 -11.639  0.00  0.00    +0.277 C 
ENDBRANCH   8  30
BRANCH   3  32
ATOM     32  C   UNL     1       5.162  -2.057  -4.117  0.00  0.00    +0.097 C 
BRANCH  32  33
ATOM     33  C   UNL     1       6.554  -2.342  -3.549  0.00  0.00    -0.060 C 
BRANCH  33  34
ATOM     34  N   UNL     1       7.102  -1.113  -2.959  0.00  0.00    +0.377 N 
ATOM     35  C   UNL     1       8.385  -1.412  -2.309  0.00  0.00    -0.097 C 
ATOM     36  C   UNL     1       7.310  -0.113  -4.015  0.00  0.00    -0.097 C 
ATOM     37  H   UNL     1       6.455  -0.750  -2.275  0.00  0.00    -0.083 HD
ENDBRANCH  33  34
ENDBRANCH  32  33
ENDBRANCH   3  32
TORSDOF 7
