REMARK  Name = ZINC09939219
REMARK  10 active torsions:
REMARK  status: ('A' for Active; 'I' for Inactive)
REMARK    1  A    between atoms: C_1  and  N_2
REMARK    2  A    between atoms: C_14  and  C_15
REMARK    3  A    between atoms: C_15  and  C_16
REMARK    4  A    between atoms: C_16  and  C_17
REMARK    5  A    between atoms: C_17  and  C_18
REMARK    6  A    between atoms: N_20  and  C_21
REMARK    7  A    between atoms: C_21  and  C_22
REMARK    8  A    between atoms: C_22  and  C_23
REMARK    9  A    between atoms: C_26  and  S_29
REMARK   10  A    between atoms: S_29  and  N_32
REMARK                            x       y       z     vdW  Elec       q    Type
REMARK                         _______ _______ _______ _____ _____    ______ ____
ROOT
ATOM      1  C   UNL     1       2.967  -6.169   3.967  0.00  0.00    +0.213 C 
ATOM      2  O   UNL     1       3.878  -5.421   3.680  0.00  0.00    -0.276 OA
ATOM      3  N   UNL     1       3.232  -7.402   4.441  0.00  0.00    -0.315 N 
ATOM      4  H   UNL     1       2.504  -8.001   4.670  0.00  0.00    +0.149 HD
ENDROOT
BRANCH   1   5
ATOM      5  C   UNL     1       1.539  -5.719   3.793  0.00  0.00    +0.096 C 
BRANCH   5   6
ATOM      6  C   UNL     1       1.518  -4.291   3.244  0.00  0.00    +0.017 C 
BRANCH   6   7
ATOM      7  C   UNL     1       0.068  -3.835   3.068  0.00  0.00    +0.077 C 
BRANCH   7  21
ATOM      8  C   UNL     1      -0.018   1.461   0.010  0.00  0.00    +0.155 C 
ATOM      9  N   UNL     1       0.002  -0.004   0.002  0.00  0.00    -0.279 N 
ATOM     10  C   UNL     1       0.006  -0.675  -1.171  0.00  0.00    +0.269 A 
ATOM     11  O   UNL     1      -0.007  -0.066  -2.226  0.00  0.00    -0.266 OA
ATOM     12  C   UNL     1       0.025  -2.076  -1.165  0.00  0.00    +0.101 A 
ATOM     13  C   UNL     1       0.040  -2.807   0.024  0.00  0.00    +0.071 A 
ATOM     14  C   UNL     1       0.058  -4.186  -0.167  0.00  0.00    +0.034 A 
ATOM     15  C   UNL     1       0.059  -4.689  -1.421  0.00  0.00    +0.048 A 
ATOM     16  S   UNL     1       0.036  -3.334  -2.414  0.00  0.00    -0.090 S 
ATOM     17  N   UNL     1       0.036  -2.065   1.213  0.00  0.00    -0.264 N 
ATOM     18  C   UNL     1       0.023  -0.704   1.194  0.00  0.00    +0.239 A 
ATOM     19  N   UNL     1       0.029  -0.306   2.448  0.00  0.00    -0.110 NA
ATOM     20  N   UNL     1       0.050  -1.327   3.229  0.00  0.00    -0.132 NA
ATOM     21  C   UNL     1       0.046  -2.428   2.527  0.00  0.00    +0.139 A 
ENDBRANCH   7  21
ENDBRANCH   6   7
ENDBRANCH   5   6
ENDBRANCH   1   5
BRANCH   3  22
ATOM     22  C   UNL     1       4.620  -7.839   4.610  0.00  0.00    +0.109 C 
BRANCH  22  23
ATOM     23  C   UNL     1       4.642  -9.267   5.159  0.00  0.00    +0.054 C 
BRANCH  23  24
ATOM     24  C   UNL     1       6.070  -9.717   5.333  0.00  0.00    -0.046 A 
ATOM     25  C   UNL     1       6.728 -10.347   4.293  0.00  0.00    +0.005 A 
ATOM     26  C   UNL     1       8.037 -10.760   4.453  0.00  0.00    +0.029 A 
ATOM     27  C   UNL     1       8.690 -10.541   5.652  0.00  0.00    +0.105 A 
ATOM     28  C   UNL     1       8.032  -9.910   6.691  0.00  0.00    +0.029 A 
ATOM     29  C   UNL     1       6.724  -9.494   6.530  0.00  0.00    +0.005 A 
BRANCH  27  30
ATOM     30  S   UNL     1      10.359 -11.068   5.855  0.00  0.00    +0.056 S 
ATOM     31  O   UNL     1      10.564 -11.235   7.252  0.00  0.00    -0.153 OA
ATOM     32  O   UNL     1      10.569 -12.119   4.923  0.00  0.00    -0.153 OA
BRANCH  30  33
ATOM     33  N   UNL     1      11.329  -9.813   5.381  0.00  0.00    -0.204 NA
ATOM     34  H   UNL     1      10.933  -8.986   5.066  0.00  0.00    +0.144 HD
ATOM     35  H   UNL     1      12.294  -9.905   5.418  0.00  0.00    +0.144 HD
ENDBRANCH  30  33
ENDBRANCH  27  30
ENDBRANCH  23  24
ENDBRANCH  22  23
ENDBRANCH   3  22
TORSDOF 9
