REMARK  Name = ZINC44163846
REMARK  5 active torsions:
REMARK  status: ('A' for Active; 'I' for Inactive)
REMARK    1  A    between atoms: C_4  and  C_7
REMARK    2  A    between atoms: C_7  and  N_8
REMARK    3  A    between atoms: C_11  and  N_14
REMARK    4  A    between atoms: C_15  and  C_17
REMARK    5  A    between atoms: C_22  and  C_25
REMARK                            x       y       z     vdW  Elec       q    Type
REMARK                         _______ _______ _______ _____ _____    ______ ____
ROOT
ATOM      1  N   UNL     1       5.449  -2.776   4.914  0.00  0.00    -0.314 N 
ATOM      2  C   UNL     1       6.370  -3.698   5.258  0.00  0.00    +0.200 C 
ATOM      3  O   UNL     1       6.842  -4.429   4.414  0.00  0.00    -0.278 OA
ATOM      4  H   UNL     1       5.071  -2.192   5.589  0.00  0.00    +0.149 HD
ENDROOT
BRANCH   2   5
ATOM      5  C   UNL     1       6.813  -3.821   6.694  0.00  0.00    +0.027 C 
ATOM      6  C   UNL     1       7.423  -2.491   7.154  0.00  0.00    +0.062 C 
ATOM      7  S   UNL     1       7.884  -2.652   8.907  0.00  0.00    -0.163 S 
ATOM      8  C   UNL     1       8.831  -4.207   8.929  0.00  0.00    +0.058 C 
ATOM      9  C   UNL     1       8.010  -5.279   8.204  0.00  0.00    -0.030 C 
ATOM     10  N   UNL     1       7.808  -4.889   6.806  0.00  0.00    +0.392 N 
ATOM     11  H   UNL     1       7.493  -5.691   6.282  0.00  0.00    -0.084 HD
ATOM     12  H   UNL     1       8.684  -4.566   6.422  0.00  0.00    -0.084 HD
BRANCH   9  13
ATOM     13  C   UNL     1       8.747  -6.593   8.253  0.00  0.00    -0.060 A 
ATOM     14  C   UNL     1       9.787  -6.835   7.375  0.00  0.00    +0.005 A 
ATOM     15  C   UNL     1      10.464  -8.039   7.420  0.00  0.00    +0.038 A 
ATOM     16  C   UNL     1      10.100  -9.003   8.345  0.00  0.00    +0.123 A 
ATOM     17  C   UNL     1       9.058  -8.759   9.224  0.00  0.00    +0.038 A 
ATOM     18  C   UNL     1       8.386  -7.553   9.181  0.00  0.00    +0.005 A 
ATOM     19  F   UNL     1      10.761 -10.181   8.390  0.00  0.00    -0.205 F 
ENDBRANCH   9  13
ENDBRANCH   2   5
BRANCH   1  23
ATOM     20  N   UNL     1       4.153  -0.953   1.342  0.00  0.00    +0.382 N 
ATOM     21  C   UNL     1       3.203  -1.854   2.005  0.00  0.00    -0.077 C 
ATOM     22  C   UNL     1       3.614  -2.050   3.466  0.00  0.00    +0.003 C 
ATOM     23  C   UNL     1       5.019  -2.657   3.518  0.00  0.00    +0.069 C 
ATOM     24  C   UNL     1       5.987  -1.746   2.760  0.00  0.00    +0.003 C 
ATOM     25  C   UNL     1       5.489  -1.562   1.325  0.00  0.00    -0.077 C 
ATOM     26  H   UNL     1       4.190  -0.078   1.843  0.00  0.00    -0.081 HD
BRANCH  20  27
ATOM     27  C   UNL     1       3.711  -0.707  -0.038  0.00  0.00    -0.043 C 
BRANCH  27  31
ATOM     28  C   UNL     1      -0.017   1.378   0.010  0.00  0.00    +0.000 A 
ATOM     29  C   UNL     1       1.171   2.086   0.002  0.00  0.00    +0.000 A 
ATOM     30  C   UNL     1       2.377   1.411  -0.013  0.00  0.00    +0.002 A 
ATOM     31  C   UNL     1       2.396   0.029  -0.020  0.00  0.00    -0.064 A 
ATOM     32  C   UNL     1       1.208  -0.679  -0.012  0.00  0.00    +0.002 A 
ATOM     33  C   UNL     1       0.002  -0.004   0.002  0.00  0.00    +0.000 A 
ENDBRANCH  27  31
ENDBRANCH  20  27
ENDBRANCH   1  23
TORSDOF 5
