REMARK  Name = ZINC25524105
REMARK  6 active torsions:
REMARK  status: ('A' for Active; 'I' for Inactive)
REMARK    1  A    between atoms: C_1  and  C_2
REMARK    2  A    between atoms: C_3  and  C_7
REMARK    3  A    between atoms: N_9  and  N_10
REMARK    4  A    between atoms: N_10  and  S_11
REMARK    5  A    between atoms: S_11  and  C_14
REMARK    6  A    between atoms: C_17  and  N_20
REMARK                            x       y       z     vdW  Elec       q    Type
REMARK                         _______ _______ _______ _____ _____    ______ ____
ROOT
ATOM      1  S   UNL     1      -6.436   5.889   0.091  0.00  0.00    +0.074 S 
ATOM      2  O   UNL     1      -6.194   7.220  -0.345  0.00  0.00    -0.152 OA
ATOM      3  O   UNL     1      -7.360   5.030  -0.563  0.00  0.00    -0.152 OA
ENDROOT
BRANCH   1   4
ATOM      4  C   UNL     1      -4.880   5.062   0.072  0.00  0.00    +0.107 A 
ATOM      5  C   UNL     1      -4.832   3.684  -0.039  0.00  0.00    +0.030 A 
ATOM      6  C   UNL     1      -3.615   3.033  -0.054  0.00  0.00    +0.030 A 
ATOM      7  C   UNL     1      -2.437   3.763   0.044  0.00  0.00    +0.069 A 
ATOM      8  C   UNL     1      -2.489   5.146   0.161  0.00  0.00    +0.030 A 
ATOM      9  C   UNL     1      -3.710   5.792   0.170  0.00  0.00    +0.030 A 
BRANCH   7  10
ATOM     10  N   UNL     1      -1.202   3.106   0.029  0.00  0.00    -0.196 N 
ATOM     11  C   UNL     1      -0.999   2.039   0.827  0.00  0.00    +0.292 A 
ATOM     12  O   UNL     1      -1.889   1.642   1.563  0.00  0.00    -0.264 OA
ATOM     13  C   UNL     1       0.248   1.385   0.805  0.00  0.00    +0.127 A 
ATOM     14  C   UNL     1       1.228   1.847  -0.025  0.00  0.00    +0.084 A 
ATOM     15  C   UNL     1       0.980   2.961  -0.841  0.00  0.00    +0.155 A 
ATOM     16  N   UNL     1      -0.179   3.563  -0.809  0.00  0.00    -0.170 NA
ATOM     17 CL   UNL     1       2.774   1.059  -0.071  0.00  0.00    -0.080 Cl
ATOM     18 CL   UNL     1       0.536   0.007   1.822  0.00  0.00    -0.076 Cl
ENDBRANCH   7  10
ENDBRANCH   1   4
BRANCH   1  19
ATOM     19  N   UNL     1      -6.919   5.989   1.671  0.00  0.00    -0.108 NA
ATOM     20  H   UNL     1      -7.751   5.577   1.951  0.00  0.00    +0.172 HD
BRANCH  19  23
ATOM     21  C   UNL     1      -6.654   7.666   3.340  0.00  0.00    +0.262 C 
ATOM     22  O   UNL     1      -7.821   7.977   3.194  0.00  0.00    -0.269 OA
ATOM     23  N   UNL     1      -6.125   6.668   2.605  0.00  0.00    -0.228 N 
ATOM     24  H   UNL     1      -5.070   6.388   2.737  0.00  0.00    +0.171 HD
BRANCH  21  27
ATOM     25  C   UNL     1      -7.575  10.021   5.197  0.00  0.00    +0.087 C 
ATOM     26  C   UNL     1      -6.200   9.406   5.138  0.00  0.00    +0.114 A 
ATOM     27  C   UNL     1      -5.819   8.381   4.322  0.00  0.00    +0.078 A 
ATOM     28  C   UNL     1      -4.403   8.134   4.631  0.00  0.00    +0.054 A 
ATOM     29  C   UNL     1      -4.073   9.024   5.580  0.00  0.00    +0.196 A 
ATOM     30  O   UNL     1      -5.147   9.771   5.876  0.00  0.00    -0.467 OA
ENDBRANCH  21  27
ENDBRANCH  19  23
ENDBRANCH   1  19
TORSDOF 5
