REMARK  Name = ZINC22405592
REMARK  3 active torsions:
REMARK  status: ('A' for Active; 'I' for Inactive)
REMARK    1  A    between atoms: N_10  and  C_11
REMARK    2  A    between atoms: C_11  and  C_12
REMARK    3  A    between atoms: C_12  and  N_18
REMARK                            x       y       z     vdW  Elec       q    Type
REMARK                         _______ _______ _______ _____ _____    ______ ____
ROOT
ATOM      1  C   UNL     1       1.431   1.422   2.412  0.00  0.00    +0.125 C 
ENDROOT
BRANCH   1  11
ATOM      2  C   UNL     1       3.958   2.654   2.207  0.00  0.00    +0.049 A 
ATOM      3  C   UNL     1       5.190   3.219   2.096  0.00  0.00    +0.055 A 
ATOM      4  C   UNL     1       5.312   4.618   2.169  0.00  0.00    +0.200 A 
ATOM      5  N   UNL     1       6.335   5.458   2.104  0.00  0.00    -0.107 NA
ATOM      6  N   UNL     1       5.922   6.670   2.226  0.00  0.00    -0.021 NA
ATOM      7  N   UNL     1       4.641   6.705   2.373  0.00  0.00    -0.021 NA
ATOM      8  N   UNL     1       4.189   5.380   2.343  0.00  0.00    -0.108 N 
ATOM      9  N   UNL     1       2.937   4.774   2.447  0.00  0.00    -0.131 NA
ATOM     10  C   UNL     1       2.822   3.466   2.380  0.00  0.00    +0.141 A 
ATOM     11  N   UNL     1       1.567   2.879   2.486  0.00  0.00    -0.326 N 
ATOM     12  H   UNL     1       0.675   3.509   2.625  0.00  0.00    +0.148 HD
ENDBRANCH   1  11
BRANCH   1  13
ATOM     13  C   UNL     1      -0.052   1.046   2.460  0.00  0.00    +0.037 C 
ATOM     14  C   UNL     1      -0.201  -0.464   2.258  0.00  0.00    +0.024 C 
ATOM     15  C   UNL     1       0.549  -1.203   3.368  0.00  0.00    +0.002 C 
ATOM     16  C   UNL     1      -0.033  -0.810   4.727  0.00  0.00    +0.000 C 
ATOM     17  C   UNL     1       0.117   0.699   4.928  0.00  0.00    +0.002 C 
ATOM     18  C   UNL     1      -0.634   1.439   3.819  0.00  0.00    +0.024 C 
BRANCH  13  19
ATOM     19  N   UNL     1      -0.772   1.756   1.395  0.00  0.00    -0.291 NA
ATOM     20  C   UNL     1      -2.208   1.439   1.428  0.00  0.00    +0.113 C 
ATOM     21  C   UNL     1      -2.928   2.243   0.343  0.00  0.00    +0.175 C 
ATOM     22  O   UNL     1      -2.340   1.954  -0.928  0.00  0.00    -0.377 OA
ATOM     23  C   UNL     1      -0.943   2.251  -0.997  0.00  0.00    +0.175 C 
ATOM     24  C   UNL     1      -0.202   1.448   0.075  0.00  0.00    +0.113 C 
ENDBRANCH  13  19
ENDBRANCH   1  13
TORSDOF 3
