REMARK  Name = ZINC09245352
REMARK  5 active torsions:
REMARK  status: ('A' for Active; 'I' for Inactive)
REMARK    1  A    between atoms: C_1  and  N_2
REMARK    2  A    between atoms: N_2  and  C_24
REMARK    3  A    between atoms: C_10  and  C_12
REMARK    4  A    between atoms: C_12  and  S_13
REMARK    5  A    between atoms: S_13  and  C_14
REMARK                            x       y       z     vdW  Elec       q    Type
REMARK                         _______ _______ _______ _____ _____    ______ ____
ROOT
ATOM      1  C   UNL     1       4.825  -1.217  -2.559  0.00  0.00    +0.131 C 
ATOM      2  N   UNL     1       4.466  -0.983  -1.154  0.00  0.00    -0.313 N 
ATOM      3  C   UNL     1       4.710   0.330  -0.792  0.00  0.00    +0.133 A 
ATOM      4  C   UNL     1       3.636   1.194  -0.443  0.00  0.00    +0.051 A 
ATOM      5  C   UNL     1       2.195   0.893  -0.404  0.00  0.00    -0.025 A 
ATOM      6  C   UNL     1       1.377   1.892  -0.036  0.00  0.00    -0.004 A 
ATOM      7  S   UNL     1       2.447   3.277   0.274  0.00  0.00    -0.073 S 
ATOM      8  C   UNL     1       4.000   2.505  -0.090  0.00  0.00    +0.114 A 
ATOM      9  N   UNL     1       5.261   2.894  -0.088  0.00  0.00    -0.224 NA
ATOM     10  C   UNL     1       6.217   2.048  -0.422  0.00  0.00    +0.142 A 
ATOM     11  N   UNL     1       5.947   0.800  -0.764  0.00  0.00    -0.216 NA
ATOM     12  C   UNL     1      -0.068   1.469  -0.029  0.00  0.00    +0.043 C 
ATOM     13  C   UNL     1      -0.020  -0.074  -0.027  0.00  0.00    +0.010 C 
ATOM     14  C   UNL     1       1.343  -0.346  -0.694  0.00  0.00    +0.037 C 
ENDROOT
BRANCH   2  15
ATOM     15  C   UNL     1       5.177  -1.914  -0.267  0.00  0.00    +0.097 C 
ATOM     16  C   UNL     1       4.899  -3.359  -0.716  0.00  0.00    +0.046 C 
ATOM     17  C   UNL     1       5.392  -4.317   0.405  0.00  0.00    +0.168 C 
ATOM     18  S   UNL     1       4.837  -3.399   1.903  0.00  0.00    -0.029 S 
ATOM     19  O   UNL     1       3.545  -3.858   2.274  0.00  0.00    -0.174 OA
ATOM     20  O   UNL     1       5.885  -3.405   2.864  0.00  0.00    -0.174 OA
ATOM     21  C   UNL     1       4.689  -1.712   1.188  0.00  0.00    +0.188 C 
ENDBRANCH   2  15
BRANCH  10  22
ATOM     22  C   UNL     1       7.650   2.515  -0.413  0.00  0.00    +0.150 C 
BRANCH  22  23
ATOM     23  S   UNL     1       8.371   2.223   1.225  0.00  0.00    -0.117 S 
BRANCH  23  24
ATOM     24  C   UNL     1      10.024   2.814   1.075  0.00  0.00    +0.008 A 
ATOM     25  C   UNL     1      10.467   3.342  -0.132  0.00  0.00    +0.016 A 
ATOM     26  C   UNL     1      11.762   3.809  -0.245  0.00  0.00    +0.021 A 
ATOM     27  C   UNL     1      12.621   3.742   0.838  0.00  0.00    +0.041 A 
ATOM     28  C   UNL     1      12.184   3.211   2.039  0.00  0.00    +0.021 A 
ATOM     29  C   UNL     1      10.889   2.748   2.160  0.00  0.00    +0.016 A 
ATOM     30 CL   UNL     1      14.249   4.324   0.690  0.00  0.00    -0.084 Cl
ENDBRANCH  23  24
ENDBRANCH  22  23
ENDBRANCH  10  22
TORSDOF 4
