REMARK  Name = ZINC66185965
REMARK  4 active torsions:
REMARK  status: ('A' for Active; 'I' for Inactive)
REMARK    1  A    between atoms: C_1  and  N_2
REMARK    2  A    between atoms: N_2  and  C_3
REMARK    3  A    between atoms: N_6  and  C_9
REMARK    4  A    between atoms: N_17  and  C_18
REMARK                            x       y       z     vdW  Elec       q    Type
REMARK                         _______ _______ _______ _____ _____    ______ ____
ROOT
ATOM      1  C   UNL     1      -0.018   1.461   0.010  0.00  0.00    +0.134 C 
ATOM      2  N   UNL     1       0.002  -0.004   0.002  0.00  0.00    -0.286 N 
ATOM      3  C   UNL     1       0.000  -0.672  -1.169  0.00  0.00    +0.302 C 
ATOM      4  O   UNL     1       0.017  -1.887  -1.175  0.00  0.00    -0.253 OA
ATOM      5  N   UNL     1      -0.020   0.009  -2.332  0.00  0.00    -0.298 N 
ATOM      6  H   UNL     1      -0.033   0.978  -2.327  0.00  0.00    +0.150 HD
ENDROOT
BRANCH   5   7
ATOM      7  C   UNL     1      -0.022  -0.717  -3.605  0.00  0.00    +0.059 C 
ATOM      8  C   UNL     1      -1.474  -1.025  -4.066  0.00  0.00    +0.002 C 
ATOM      9  C   UNL     1      -1.464  -0.800  -5.598  0.00  0.00    -0.077 C 
ATOM     10  N   UNL     1      -0.076  -0.492  -5.948  0.00  0.00    +0.383 N 
ATOM     11  C   UNL     1       0.493   0.175  -4.747  0.00  0.00    -0.048 C 
ATOM     12  C   UNL     1       2.009   0.164  -4.894  0.00  0.00    -0.014 C 
ATOM     13  C   UNL     1       2.359   1.011  -6.128  0.00  0.00    -0.003 C 
ATOM     14  C   UNL     1       1.622   0.491  -7.363  0.00  0.00    -0.019 C 
ATOM     15  C   UNL     1       0.112   0.388  -7.093  0.00  0.00    -0.078 C 
ATOM     16  H   UNL     1       0.426  -1.353  -6.105  0.00  0.00    -0.081 HD
ENDBRANCH   5   7
BRANCH   2  17
ATOM     17  C   UNL     1       0.024  -0.743   1.267  0.00  0.00    +0.074 C 
ATOM     18  C   UNL     1      -1.218  -0.388   2.089  0.00  0.00    +0.004 C 
ATOM     19  C   UNL     1      -1.149  -1.102   3.441  0.00  0.00    -0.077 C 
ATOM     20  N   UNL     1       0.056  -0.675   4.163  0.00  0.00    +0.382 N 
ATOM     21  C   UNL     1       1.253  -1.076   3.414  0.00  0.00    -0.077 C 
ATOM     22  C   UNL     1       1.276  -0.362   2.061  0.00  0.00    +0.004 C 
ATOM     23  H   UNL     1       0.046   0.328   4.267  0.00  0.00    -0.081 HD
BRANCH  20  24
ATOM     24  C   UNL     1       0.077  -1.303   5.491  0.00  0.00    -0.064 C 
ATOM     25  C   UNL     1      -1.161  -0.870   6.282  0.00  0.00    +0.013 C 
ATOM     26  C   UNL     1      -1.090  -1.465   7.691  0.00  0.00    +0.158 C 
ATOM     27  O   UNL     1       0.117  -1.038   8.327  0.00  0.00    -0.380 OA
ATOM     28  C   UNL     1       1.308  -1.455   7.657  0.00  0.00    +0.158 C 
ATOM     29  C   UNL     1       1.334  -0.860   6.247  0.00  0.00    +0.013 C 
ENDBRANCH  20  24
ENDBRANCH   2  17
TORSDOF 3
