REMARK  Name = ZINC02187944
REMARK  7 active torsions:
REMARK  status: ('A' for Active; 'I' for Inactive)
REMARK    1  A    between atoms: C_4  and  C_7
REMARK    2  A    between atoms: C_8  and  C_9
REMARK    3  A    between atoms: C_8  and  N_22
REMARK    4  A    between atoms: N_11  and  N_12
REMARK    5  A    between atoms: C_13  and  C_14
REMARK    6  A    between atoms: C_19  and  O_20
REMARK    7  A    between atoms: C_23  and  C_25
REMARK                            x       y       z     vdW  Elec       q    Type
REMARK                         _______ _______ _______ _____ _____    ______ ____
ROOT
ATOM      1  C   UNL     1       2.162   8.440  -0.043  0.00  0.00    +0.036 C 
ATOM      2  C   UNL     1       3.283   7.683  -0.062  0.00  0.00    +0.098 C 
ENDROOT
BRANCH   1   6
ATOM      3  C   UNL     1       2.446  12.661  -0.355  0.00  0.00    +0.000 A 
ATOM      4  C   UNL     1       1.304  12.013  -0.794  0.00  0.00    +0.001 A 
ATOM      5  C   UNL     1       1.204  10.642  -0.697  0.00  0.00    +0.008 A 
ATOM      6  C   UNL     1       2.260   9.904  -0.152  0.00  0.00    -0.023 A 
ATOM      7  C   UNL     1       3.409  10.566   0.295  0.00  0.00    +0.008 A 
ATOM      8  C   UNL     1       3.496  11.938   0.185  0.00  0.00    +0.001 A 
ENDBRANCH   1   6
BRANCH   2   9
ATOM      9  C   UNL     1       3.200   6.240   0.201  0.00  0.00    +0.277 C 
ATOM     10  O   UNL     1       4.208   5.559   0.184  0.00  0.00    -0.267 OA
ATOM     11  N   UNL     1       2.006   5.670   0.460  0.00  0.00    -0.202 N 
ATOM     12  H   UNL     1       1.202   6.212   0.473  0.00  0.00    +0.178 HD
BRANCH  11  13
ATOM     13  N   UNL     1       1.927   4.294   0.710  0.00  0.00    -0.187 NA
ATOM     14  C   UNL     1       0.777   3.745   0.960  0.00  0.00    +0.142 C 
BRANCH  14  15
ATOM     15  C   UNL     1       0.693   2.297   1.223  0.00  0.00    +0.037 A 
ATOM     16  C   UNL     1      -0.542   1.703   1.492  0.00  0.00    +0.033 A 
ATOM     17  C   UNL     1      -0.613   0.346   1.738  0.00  0.00    +0.042 A 
ATOM     18  C   UNL     1       0.535  -0.428   1.718  0.00  0.00    +0.023 A 
ATOM     19  C   UNL     1       1.763   0.149   1.453  0.00  0.00    +0.047 A 
ATOM     20  C   UNL     1       1.852   1.509   1.205  0.00  0.00    +0.126 A 
ATOM     21 CL   UNL     1      -2.148  -0.392   2.072  0.00  0.00    -0.084 Cl
BRANCH  20  22
ATOM     22  O   UNL     1       3.058   2.077   0.945  0.00  0.00    -0.506 OA
ATOM     23  H   UNL     1       3.292   2.092   0.007  0.00  0.00    +0.292 HD
ENDBRANCH  20  22
ENDBRANCH  14  15
ENDBRANCH  11  13
ENDBRANCH   2   9
BRANCH   2  24
ATOM     24  N   UNL     1       4.521   8.274  -0.331  0.00  0.00    -0.277 N 
ATOM     25  C   UNL     1       5.537   8.136   0.543  0.00  0.00    +0.248 C 
ATOM     26  O   UNL     1       5.399   7.443   1.532  0.00  0.00    -0.270 OA
ATOM     27  H   UNL     1       4.648   8.783  -1.146  0.00  0.00    +0.155 HD
BRANCH  25  28
ATOM     28  C   UNL     1       6.821   8.828   0.299  0.00  0.00    +0.037 A 
ATOM     29  C   UNL     1       7.026   9.526  -0.892  0.00  0.00    +0.013 A 
ATOM     30  C   UNL     1       8.224  10.174  -1.111  0.00  0.00    +0.001 A 
ATOM     31  C   UNL     1       9.225  10.124  -0.158  0.00  0.00    +0.000 A 
ATOM     32  C   UNL     1       9.031   9.429   1.023  0.00  0.00    +0.001 A 
ATOM     33  C   UNL     1       7.835   8.781   1.257  0.00  0.00    +0.013 A 
ENDBRANCH  25  28
ENDBRANCH   2  24
TORSDOF 7
