REMARK  Name = ZINC35746261
REMARK  19 active torsions:
REMARK  status: ('A' for Active; 'I' for Inactive)
REMARK    1  A    between atoms: C_1  and  C_2
REMARK    2  A    between atoms: C_2  and  C_3
REMARK    3  A    between atoms: C_2  and  C_4
REMARK    4  A    between atoms: C_2  and  O_5
REMARK    5  A    between atoms: O_5  and  C_6
REMARK    6  A    between atoms: C_6  and  C_7
REMARK    7  A    between atoms: C_7  and  C_9
REMARK    8  A    between atoms: C_7  and  O_36
REMARK    9  A    between atoms: C_9  and  N_10
REMARK   10  A    between atoms: N_10  and  C_11
REMARK   11  A    between atoms: N_10  and  C_16
REMARK   12  A    between atoms: C_11  and  C_12
REMARK   13  A    between atoms: C_12  and  C_13
REMARK   14  A    between atoms: C_13  and  O_14
REMARK   15  A    between atoms: O_14  and  C_15
REMARK   16  A    between atoms: C_16  and  C_17
REMARK   17  A    between atoms: C_23  and  C_28
REMARK   18  A    between atoms: C_32  and  O_34
REMARK   19  A    between atoms: O_34  and  C_35
REMARK                            x       y       z     vdW  Elec       q    Type
REMARK                         _______ _______ _______ _____ _____    ______ ____
ROOT
ATOM      1  C   UNL     1       6.558  -1.327  -3.238  0.00  0.00    +0.094 A 
ATOM      2  N   UNL     1       7.913  -1.242  -3.248  0.00  0.00    -0.312 N 
ATOM      3  H   UNL     1       8.344  -0.579  -3.810  0.00  0.00    +0.170 HD
ATOM      4  C   UNL     1       8.671  -2.059  -2.493  0.00  0.00    +0.260 A 
ATOM      5  O   UNL     1       9.886  -1.969  -2.513  0.00  0.00    -0.267 OA
ATOM      6  C   UNL     1       8.027  -3.034  -1.666  0.00  0.00    +0.080 A 
ATOM      7  C   UNL     1       8.620  -4.019  -0.769  0.00  0.00    +0.004 A 
ATOM      8  C   UNL     1       7.801  -4.848  -0.079  0.00  0.00    +0.056 A 
ATOM      9  S   UNL     1       6.172  -4.346  -0.599  0.00  0.00    -0.076 S 
ATOM     10  C   UNL     1       6.624  -3.048  -1.721  0.00  0.00    +0.116 A 
ATOM     11  N   UNL     1       5.942  -2.203  -2.490  0.00  0.00    -0.229 NA
ENDROOT
BRANCH   7  12
ATOM     12  C   UNL     1      10.092  -4.112  -0.617  0.00  0.00    -0.013 A 
ATOM     13  C   UNL     1      10.909  -4.181  -1.745  0.00  0.00    +0.009 A 
ATOM     14  C   UNL     1      12.279  -4.268  -1.600  0.00  0.00    +0.004 A 
ATOM     15  C   UNL     1      12.845  -4.287  -0.339  0.00  0.00    +0.045 A 
ATOM     16  C   UNL     1      12.039  -4.220   0.790  0.00  0.00    +0.121 A 
ATOM     17  C   UNL     1      10.663  -4.126   0.654  0.00  0.00    +0.054 A 
BRANCH  16  18
ATOM     18  O   UNL     1      12.599  -4.239   2.027  0.00  0.00    -0.495 OA
ATOM     19  C   UNL     1      14.024  -4.331   2.093  0.00  0.00    +0.277 C 
ENDBRANCH  16  18
ENDBRANCH   7  12
BRANCH   1  20
ATOM     20  C   UNL     1       5.751  -0.391  -4.100  0.00  0.00    -0.003 C 
BRANCH  20  21
ATOM     21  N   UNL     1       4.322  -0.570  -3.812  0.00  0.00    +0.386 N 
ATOM     22  H   UNL     1       4.081  -1.546  -3.900  0.00  0.00    -0.081 HD
BRANCH  21  23
ATOM     23  C   UNL     1       4.038  -0.117  -2.444  0.00  0.00    -0.044 C 
BRANCH  23  24
ATOM     24  C   UNL     1       2.577  -0.418  -2.100  0.00  0.00    +0.124 C 
BRANCH  24  25
ATOM     25  O   UNL     1       2.375  -1.833  -2.080  0.00  0.00    -0.391 OA
ATOM     26  H   UNL     1       2.922  -2.299  -1.433  0.00  0.00    +0.210 HD
ENDBRANCH  24  25
BRANCH  24  27
ATOM     27  C   UNL     1       2.247   0.165  -0.725  0.00  0.00    +0.189 C 
BRANCH  27  28
ATOM     28  O   UNL     1       0.855  -0.014  -0.454  0.00  0.00    -0.372 OA
BRANCH  28  30
ATOM     29  C   UNL     1       0.722   2.001   0.875  0.00  0.00    +0.041 C 
ATOM     30  C   UNL     1       0.440   0.498   0.814  0.00  0.00    +0.061 C 
ATOM     31  C   UNL     1       1.211  -0.211   1.929  0.00  0.00    +0.041 C 
ATOM     32  C   UNL     1      -1.060   0.254   0.996  0.00  0.00    +0.041 C 
ENDBRANCH  28  30
ENDBRANCH  27  28
ENDBRANCH  24  27
ENDBRANCH  23  24
ENDBRANCH  21  23
BRANCH  21  33
ATOM     33  C   UNL     1       3.528   0.218  -4.764  0.00  0.00    -0.076 C 
BRANCH  33  34
ATOM     34  C   UNL     1       3.725  -0.338  -6.176  0.00  0.00    +0.009 C 
BRANCH  34  35
ATOM     35  C   UNL     1       2.796   0.394  -7.146  0.00  0.00    +0.157 C 
BRANCH  35  36
ATOM     36  O   UNL     1       2.980  -0.125  -8.465  0.00  0.00    -0.383 OA
ATOM     37  C   UNL     1       2.154   0.493  -9.454  0.00  0.00    +0.193 C 
ENDBRANCH  35  36
ENDBRANCH  34  35
ENDBRANCH  33  34
ENDBRANCH  21  33
ENDBRANCH  20  21
ENDBRANCH   1  20
TORSDOF 14
