REMARK  Name = ZINC06898494
REMARK  3 active torsions:
REMARK  status: ('A' for Active; 'I' for Inactive)
REMARK    1  A    between atoms: C_3  and  N_17
REMARK    2  A    between atoms: N_7  and  N_8
REMARK    3  A    between atoms: C_9  and  C_10
REMARK                            x       y       z     vdW  Elec       q    Type
REMARK                         _______ _______ _______ _____ _____    ______ ____
ROOT
ATOM      1  C   UNL     1       0.262  11.159   0.113  0.00  0.00    +0.022 A 
ATOM      2  C   UNL     1      -1.122  11.111   0.020  0.00  0.00    +0.038 A 
ATOM      3  C   UNL     1      -1.738   9.873  -0.033  0.00  0.00    +0.167 A 
ATOM      4  C   UNL     1      -0.951   8.722   0.009  0.00  0.00    +0.169 A 
ATOM      5  N   UNL     1       0.369   8.811   0.104  0.00  0.00    -0.237 NA
ATOM      6  C   UNL     1       0.981   9.975   0.150  0.00  0.00    +0.113 A 
ATOM      7  N   UNL     1      -1.552   7.478  -0.042  0.00  0.00    -0.219 N 
ATOM      8  H   UNL     1      -2.503   7.406  -0.221  0.00  0.00    +0.176 HD
ENDROOT
BRANCH   3   9
ATOM      9  N   UNL     1      -3.212   9.771  -0.133  0.00  0.00    +0.060 N 
ATOM     10  O   UNL     1      -3.883  10.637  -0.864  0.00  0.00    -0.126 OA
ATOM     11  O   UNL     1      -3.851   8.816   0.510  0.00  0.00    -0.126 OA
ENDBRANCH   3   9
BRANCH   7  12
ATOM     12  N   UNL     1      -0.849   6.414   0.149  0.00  0.00    -0.186 NA
ATOM     13  C   UNL     1      -1.431   5.210   0.100  0.00  0.00    +0.176 C 
BRANCH  13  14
ATOM     14  C   UNL     1      -0.679   4.070   0.304  0.00  0.00    +0.150 A 
ATOM     15  C   UNL     1      -1.165   2.683   0.277  0.00  0.00    +0.067 A 
ATOM     16  C   UNL     1      -0.078   1.899   0.534  0.00  0.00    +0.071 A 
ATOM     17  C   UNL     1       1.024   2.741   0.701  0.00  0.00    +0.185 A 
ATOM     18  O   UNL     1       0.649   4.016   0.562  0.00  0.00    -0.446 OA
ATOM     19 BR   UNL     1       2.786   2.163   1.071  0.00  0.00    -0.007 Br
ATOM     20 BR   UNL     1      -0.064   0.010   0.635  0.00  0.00    -0.046 Br
ENDBRANCH  13  14
ENDBRANCH   7  12
TORSDOF 3
