REMARK  Name = ZINC39379460
REMARK  5 active torsions:
REMARK  status: ('A' for Active; 'I' for Inactive)
REMARK    1  A    between atoms: C_3  and  C_7
REMARK    2  A    between atoms: C_18  and  C_20
REMARK    3  A    between atoms: C_23  and  C_26
REMARK    4  A    between atoms: C_26  and  O_27
REMARK    5  A    between atoms: O_27  and  C_28
REMARK                            x       y       z     vdW  Elec       q    Type
REMARK                         _______ _______ _______ _____ _____    ______ ____
ROOT
ATOM      1  C   UNL     1       3.698   2.036  -0.008  0.00  0.00    +0.154 C 
ATOM      2  C   UNL     1       4.269   2.120   1.385  0.00  0.00    +0.070 C 
ATOM      3  N   UNL     1       3.756   1.924   2.537  0.00  0.00    -0.241 NA
ATOM      4  C   UNL     1       4.689   1.984   3.518  0.00  0.00    +0.216 C 
ATOM      5  N   UNL     1       5.872   2.273   3.074  0.00  0.00    -0.263 NA
ATOM      6  C   UNL     1       5.731   2.481   1.631  0.00  0.00    +0.155 C 
ATOM      7  C   UNL     1       6.562   1.495   0.809  0.00  0.00    +0.052 C 
ATOM      8  C   UNL     1       6.114   1.582  -0.655  0.00  0.00    +0.111 C 
ATOM      9  N   UNL     1       4.688   1.264  -0.792  0.00  0.00    -0.287 N 
ATOM     10  C   UNL     1       4.284   0.280  -1.619  0.00  0.00    +0.241 C 
ATOM     11  O   UNL     1       3.100   0.091  -1.806  0.00  0.00    -0.273 OA
ENDROOT
BRANCH   1  14
ATOM     12  C   UNL     1       0.039   1.228  -0.452  0.00  0.00    +0.020 A 
ATOM     13  C   UNL     1       1.235   1.928  -0.491  0.00  0.00    +0.009 A 
ATOM     14  C   UNL     1       2.373   1.317   0.013  0.00  0.00    -0.003 A 
ATOM     15  C   UNL     1       2.278   0.041   0.535  0.00  0.00    +0.116 A 
ATOM     16  N   UNL     1       1.123  -0.595   0.556  0.00  0.00    -0.263 NA
ATOM     17  C   UNL     1       0.020  -0.045   0.085  0.00  0.00    +0.111 A 
ENDBRANCH   1  14
BRANCH  10  18
ATOM     18  C   UNL     1       5.303  -0.588  -2.312  0.00  0.00    +0.204 C 
ATOM     19  C   UNL     1       5.829   0.094  -3.561  0.00  0.00    +0.051 C 
ATOM     20  C   UNL     1       5.237  -0.454  -4.601  0.00  0.00    +0.161 C 
ATOM     21  O   UNL     1       4.360  -1.422  -4.242  0.00  0.00    -0.407 OA
ATOM     22  N   UNL     1       4.669  -1.819  -2.851  0.00  0.00    -0.140 NA
ATOM     23  H   UNL     1       5.312  -2.596  -2.830  0.00  0.00    +0.168 HD
BRANCH  20  24
ATOM     24  C   UNL     1       5.504  -0.049  -6.028  0.00  0.00    +0.304 C 
BRANCH  24  25
ATOM     25  O   UNL     1       6.104  -1.141  -6.728  0.00  0.00    -0.484 OA
BRANCH  25  26
ATOM     26  C   UNL     1       6.410  -0.941  -8.037  0.00  0.00    +0.124 A 
ATOM     27  C   UNL     1       6.145   0.284  -8.633  0.00  0.00    +0.048 A 
ATOM     28  C   UNL     1       6.456   0.487  -9.964  0.00  0.00    +0.045 A 
ATOM     29  C   UNL     1       7.033  -0.530 -10.704  0.00  0.00    +0.159 A 
ATOM     30  C   UNL     1       7.299  -1.755 -10.111  0.00  0.00    +0.162 A 
ATOM     31  C   UNL     1       6.994  -1.958  -8.777  0.00  0.00    +0.087 A 
ATOM     32  F   UNL     1       7.862  -2.748 -10.834  0.00  0.00    -0.202 F 
ATOM     33  F   UNL     1       7.336  -0.330 -12.005  0.00  0.00    -0.202 F 
ENDBRANCH  25  26
ENDBRANCH  24  25
ENDBRANCH  20  24
ENDBRANCH  10  18
TORSDOF 5
