REMARK  Name = ZINC20494969
REMARK  5 active torsions:
REMARK  status: ('A' for Active; 'I' for Inactive)
REMARK    1  A    between atoms: C_1  and  O_2
REMARK    2  A    between atoms: O_2  and  C_3
REMARK    3  A    between atoms: C_6  and  N_9
REMARK    4  A    between atoms: C_13  and  C_14
REMARK    5  A    between atoms: C_19  and  N_20
REMARK                            x       y       z     vdW  Elec       q    Type
REMARK                         _______ _______ _______ _____ _____    ______ ____
ROOT
ATOM      1  N   UNL     1       0.134  -4.475   1.127  0.00  0.00    -0.215 N 
ATOM      2  C   UNL     1       1.273  -5.058   0.793  0.00  0.00    +0.263 C 
ATOM      3  O   UNL     1       2.347  -4.526   1.006  0.00  0.00    -0.269 OA
ATOM      4  C   UNL     1       1.184  -6.387   0.154  0.00  0.00    +0.079 C 
ATOM      5  C   UNL     1       2.177  -7.200  -0.281  0.00  0.00    +0.030 C 
ATOM      6  S   UNL     1      -0.586  -6.632   0.103  0.00  0.00    -0.049 S 
ATOM      7  C   UNL     1      -1.074  -5.096   0.871  0.00  0.00    +0.165 C 
ATOM      8  N   UNL     1      -2.278  -4.665   1.128  0.00  0.00    -0.279 NA
ATOM      9  H   UNL     1      -2.420  -3.687   1.611  0.00  0.00    +0.189 HD
ENDROOT
BRANCH   1  13
ATOM     10  C   UNL     1       0.186  -0.725   2.953  0.00  0.00    +0.120 A 
ATOM     11  C   UNL     1      -0.356  -0.871   1.684  0.00  0.00    +0.047 A 
ATOM     12  C   UNL     1      -0.368  -2.111   1.077  0.00  0.00    +0.027 A 
ATOM     13  C   UNL     1       0.152  -3.214   1.741  0.00  0.00    +0.044 A 
ATOM     14  C   UNL     1       0.689  -3.068   3.013  0.00  0.00    +0.027 A 
ATOM     15  C   UNL     1       0.705  -1.827   3.617  0.00  0.00    +0.047 A 
BRANCH  10  17
ATOM     16  C   UNL     1      -0.349   1.587   2.807  0.00  0.00    +0.277 C 
ATOM     17  O   UNL     1       0.203   0.497   3.548  0.00  0.00    -0.495 OA
ENDBRANCH  10  17
ENDBRANCH   1  13
BRANCH   5  18
ATOM     18  C   UNL     1       3.569  -6.726  -0.280  0.00  0.00    +0.006 A 
ATOM     19  C   UNL     1       3.870  -5.429  -0.713  0.00  0.00    +0.010 A 
ATOM     20  C   UNL     1       5.177  -4.992  -0.709  0.00  0.00    +0.001 A 
ATOM     21  C   UNL     1       6.191  -5.831  -0.279  0.00  0.00    +0.002 A 
ATOM     22  C   UNL     1       5.901  -7.114   0.150  0.00  0.00    +0.033 A 
ATOM     23  C   UNL     1       4.598  -7.566   0.158  0.00  0.00    +0.133 A 
BRANCH  23  24
ATOM     24  N   UNL     1       4.290  -8.937   0.623  0.00  0.00    +0.057 N 
ATOM     25  O   UNL     1       5.195  -9.703   0.900  0.00  0.00    -0.126 OA
ATOM     26  O   UNL     1       3.132  -9.298   0.728  0.00  0.00    -0.126 OA
ENDBRANCH  23  24
ENDBRANCH   5  18
TORSDOF 4
