REMARK  Name = ZINC47191134
REMARK  4 active torsions:
REMARK  status: ('A' for Active; 'I' for Inactive)
REMARK    1  A    between atoms: C_1  and  C_2
REMARK    2  A    between atoms: C_2  and  C_9
REMARK    3  A    between atoms: C_13  and  N_15
REMARK    4  A    between atoms: C_16  and  C_18
REMARK                            x       y       z     vdW  Elec       q    Type
REMARK                         _______ _______ _______ _____ _____    ______ ____
ROOT
ATOM      1  C   UNL     1       1.883   0.247  -1.505  0.00  0.00    -0.014 A 
ATOM      2  C   UNL     1       2.170  -1.078  -1.235  0.00  0.00    +0.006 A 
ATOM      3  C   UNL     1       1.909  -2.052  -2.182  0.00  0.00    +0.002 A 
ATOM      4  C   UNL     1       1.362  -1.703  -3.401  0.00  0.00    +0.023 A 
ATOM      5  C   UNL     1       1.072  -0.373  -3.675  0.00  0.00    +0.034 A 
ATOM      6  C   UNL     1       1.330   0.602  -2.720  0.00  0.00    +0.029 A 
ENDROOT
BRANCH   1   8
ATOM      7  C   UNL     1       3.140   2.349  -1.024  0.00  0.00    +0.047 C 
ATOM      8  C   UNL     1       2.168   1.305  -0.470  0.00  0.00    +0.135 C 
ATOM      9  C   UNL     1       0.883   1.964  -0.009  0.00  0.00    +0.248 C 
ATOM     10  O   UNL     1       0.098   2.592  -0.687  0.00  0.00    -0.273 OA
ATOM     11  N   UNL     1       0.795   1.708   1.311  0.00  0.00    -0.238 N 
ATOM     12  C   UNL     1       1.835   0.986   1.743  0.00  0.00    +0.307 C 
ATOM     13  O   UNL     1       1.978   0.630   2.897  0.00  0.00    -0.252 OA
ATOM     14  N   UNL     1       2.705   0.696   0.759  0.00  0.00    -0.282 N 
ATOM     15  H   UNL     1       0.069   2.010   1.877  0.00  0.00    +0.159 HD
ATOM     16  H   UNL     1       3.526   0.186   0.842  0.00  0.00    +0.152 HD
ENDBRANCH   1   8
BRANCH   5  17
ATOM     17  N   UNL     1       0.518  -0.017  -4.909  0.00  0.00    -0.285 N 
ATOM     18  C   UNL     1       0.860  -0.694  -6.023  0.00  0.00    +0.225 C 
ATOM     19  O   UNL     1       1.572  -1.673  -5.942  0.00  0.00    -0.275 OA
ATOM     20  H   UNL     1      -0.113   0.719  -4.963  0.00  0.00    +0.155 HD
BRANCH  18  21
ATOM     21  C   UNL     1       0.357  -0.236  -7.368  0.00  0.00    +0.105 C 
ATOM     22  C   UNL     1       1.194  -0.889  -8.467  0.00  0.00    +0.018 C 
ATOM     23  C   UNL     1       0.536  -0.587  -9.819  0.00  0.00    +0.006 C 
ATOM     24  C   UNL     1      -0.772  -1.371  -9.903  0.00  0.00    +0.035 C 
ATOM     25  C   UNL     1      -1.613  -1.133  -8.677  0.00  0.00    -0.043 A 
ATOM     26  C   UNL     1      -1.093  -0.616  -7.512  0.00  0.00    -0.032 A 
ATOM     27  C   UNL     1      -1.923  -0.426  -6.414  0.00  0.00    +0.004 A 
ATOM     28  C   UNL     1      -3.263  -0.750  -6.484  0.00  0.00    +0.000 A 
ATOM     29  C   UNL     1      -3.784  -1.266  -7.655  0.00  0.00    +0.000 A 
ATOM     30  C   UNL     1      -2.962  -1.454  -8.745  0.00  0.00    +0.004 A 
ENDBRANCH  18  21
ENDBRANCH   5  17
TORSDOF 3
