REMARK  Name = ZINC49426254
REMARK  7 active torsions:
REMARK  status: ('A' for Active; 'I' for Inactive)
REMARK    1  A    between atoms: C_3  and  C_6
REMARK    2  A    between atoms: N_11  and  C_13
REMARK    3  A    between atoms: C_13  and  C_14
REMARK    4  A    between atoms: C_14  and  N_15
REMARK    5  A    between atoms: C_16  and  C_18
REMARK    6  A    between atoms: N_27  and  C_28
REMARK    7  A    between atoms: C_28  and  C_29
REMARK                            x       y       z     vdW  Elec       q    Type
REMARK                         _______ _______ _______ _____ _____    ______ ____
ROOT
ATOM      1  N   UNL     1       7.157   4.801  -1.467  0.00  0.00    -0.313 N 
ATOM      2  C   UNL     1       7.458   5.410  -2.631  0.00  0.00    +0.218 C 
ATOM      3  O   UNL     1       7.161   4.886  -3.684  0.00  0.00    -0.275 OA
ATOM      4  H   UNL     1       7.394   5.221  -0.625  0.00  0.00    +0.149 HD
ENDROOT
BRANCH   2   5
ATOM      5  C   UNL     1       8.164   6.741  -2.625  0.00  0.00    +0.092 C 
ATOM      6  C   UNL     1       8.387   7.208  -4.065  0.00  0.00    +0.016 C 
ATOM      7  C   UNL     1       9.074   8.575  -4.060  0.00  0.00    +0.020 C 
ATOM      8  C   UNL     1      10.439   8.453  -3.374  0.00  0.00    +0.109 C 
ATOM      9  N   UNL     1      10.247   7.869  -2.040  0.00  0.00    -0.285 N 
ATOM     10  C   UNL     1       9.518   6.599  -1.923  0.00  0.00    +0.122 C 
ATOM     11  C   UNL     1      10.732   8.486  -0.944  0.00  0.00    +0.302 C 
ATOM     12  O   UNL     1      10.486   8.043   0.161  0.00  0.00    -0.253 OA
ATOM     13  N   UNL     1      11.489   9.593  -1.073  0.00  0.00    -0.295 N 
ATOM     14  H   UNL     1      11.625   9.988  -1.949  0.00  0.00    +0.151 HD
BRANCH  13  15
ATOM     15  C   UNL     1      12.105  10.201   0.108  0.00  0.00    +0.148 C 
BRANCH  15  16
ATOM     16  C   UNL     1      12.893  11.417  -0.306  0.00  0.00    +0.007 A 
ATOM     17  C   UNL     1      12.486  12.707  -0.398  0.00  0.00    +0.013 A 
ATOM     18  C   UNL     1      13.393  13.668  -0.803  0.00  0.00    +0.008 A 
ATOM     19  C   UNL     1      14.662  13.293  -1.097  0.00  0.00    +0.045 A 
ATOM     20  S   UNL     1      14.606  11.535  -0.795  0.00  0.00    -0.100 S 
ENDBRANCH  15  16
ENDBRANCH  13  15
ENDBRANCH   2   5
BRANCH   1  21
ATOM     21  C   UNL     1       6.470   3.507  -1.473  0.00  0.00    +0.127 C 
BRANCH  21  22
ATOM     22  C   UNL     1       6.249   3.040  -0.033  0.00  0.00    +0.166 C 
BRANCH  22  28
ATOM     23  C   UNL     1       3.600   0.595  -0.027  0.00  0.00    +0.126 A 
ATOM     24  C   UNL     1       4.281  -0.648  -0.050  0.00  0.00    +0.038 A 
ATOM     25  C   UNL     1       5.643  -0.637  -0.066  0.00  0.00    +0.074 A 
ATOM     26  C   UNL     1       6.295   0.617  -0.060  0.00  0.00    +0.267 A 
ATOM     27  O   UNL     1       7.514   0.676  -0.075  0.00  0.00    -0.266 OA
ATOM     28  N   UNL     1       5.563   1.746  -0.039  0.00  0.00    -0.227 N 
ATOM     29  N   UNL     1       4.279   1.720  -0.028  0.00  0.00    -0.165 NA
BRANCH  23  32
ATOM     30  C   UNL     1       0.009   1.307   0.020  0.00  0.00    +0.042 A 
ATOM     31  C   UNL     1       1.349   1.743   0.008  0.00  0.00    +0.051 A 
ATOM     32  C   UNL     1       2.124   0.625  -0.009  0.00  0.00    +0.155 A 
ATOM     33  O   UNL     1       1.310  -0.449  -0.007  0.00  0.00    -0.461 OA
ATOM     34  C   UNL     1       0.031  -0.040   0.011  0.00  0.00    +0.196 A 
ENDBRANCH  23  32
ENDBRANCH  22  28
ENDBRANCH  21  22
ENDBRANCH   1  21
TORSDOF 7
