REMARK  Name = ZINC34792800
REMARK  6 active torsions:
REMARK  status: ('A' for Active; 'I' for Inactive)
REMARK    1  A    between atoms: C_1  and  C_2
REMARK    2  A    between atoms: C_7  and  C_10
REMARK    3  A    between atoms: C_11  and  C_13
REMARK    4  A    between atoms: C_13  and  N_14
REMARK    5  A    between atoms: C_20  and  C_27
REMARK    6  A    between atoms: N_25  and  C_26
REMARK                            x       y       z     vdW  Elec       q    Type
REMARK                         _______ _______ _______ _____ _____    ______ ____
ROOT
ATOM      1  N   UNL     1       0.232  -4.926  -3.240  0.00  0.00    -0.283 N 
ATOM      2  C   UNL     1      -1.135  -5.408  -3.493  0.00  0.00    +0.160 C 
ATOM      3  C   UNL     1      -1.087  -6.002  -4.882  0.00  0.00    +0.042 C 
ATOM      4  C   UNL     1       0.180  -5.848  -5.317  0.00  0.00    +0.058 C 
ATOM      5  C   UNL     1       0.960  -5.202  -4.337  0.00  0.00    +0.247 C 
ATOM      6  O   UNL     1       2.140  -4.931  -4.465  0.00  0.00    -0.270 OA
ATOM      7  C   UNL     1       0.517  -6.362  -6.703  0.00  0.00    +0.143 C 
ATOM      8  N   UNL     1      -0.575  -6.992  -7.464  0.00  0.00    -0.288 N 
ATOM      9  C   UNL     1      -1.793  -7.073  -6.892  0.00  0.00    +0.307 C 
ATOM     10  O   UNL     1      -2.701  -7.592  -7.512  0.00  0.00    -0.252 OA
ATOM     11  N   UNL     1      -2.035  -6.601  -5.662  0.00  0.00    -0.260 N 
ATOM     12  C   UNL     1      -3.391  -6.735  -5.123  0.00  0.00    +0.139 C 
ATOM     13  H   UNL     1      -0.422  -7.340  -8.356  0.00  0.00    +0.151 HD
ENDROOT
BRANCH   7  14
ATOM     14  C   UNL     1       1.040  -5.205  -7.513  0.00  0.00    -0.004 A 
ATOM     15  C   UNL     1       0.182  -4.485  -8.325  0.00  0.00    +0.007 A 
ATOM     16  C   UNL     1       0.662  -3.424  -9.069  0.00  0.00    +0.000 A 
ATOM     17  C   UNL     1       2.000  -3.080  -9.002  0.00  0.00    +0.001 A 
ATOM     18  C   UNL     1       2.858  -3.799  -8.191  0.00  0.00    +0.020 A 
ATOM     19  C   UNL     1       2.377  -4.858  -7.442  0.00  0.00    +0.046 A 
ATOM     20 CL   UNL     1       3.454  -5.757  -6.418  0.00  0.00    -0.083 Cl
ENDBRANCH   7  14
BRANCH   1  21
ATOM     21  C   UNL     1       0.709  -4.264  -2.023  0.00  0.00    +0.204 C 
BRANCH  21  30
ATOM     22  C   UNL     1      -0.019   1.526   0.010  0.00  0.00    +0.039 C 
ATOM     23  C   UNL     1       0.002  -0.004   0.002  0.00  0.00    +0.133 C 
ATOM     24  C   UNL     1       0.722  -0.499  -1.258  0.00  0.00    +0.139 C 
ATOM     25  N   UNL     1       0.894  -1.957  -1.151  0.00  0.00    -0.295 N 
ATOM     26  C   UNL     1       1.483  -2.495   0.085  0.00  0.00    +0.139 C 
ATOM     27  C   UNL     1       0.726  -1.903   1.280  0.00  0.00    +0.133 C 
ATOM     28  O   UNL     1       0.695  -0.479   1.159  0.00  0.00    -0.371 OA
ATOM     29  C   UNL     1       1.436  -2.291   2.578  0.00  0.00    +0.039 C 
ATOM     30  C   UNL     1       0.523  -2.775  -2.156  0.00  0.00    +0.233 C 
ATOM     31  O   UNL     1       0.039  -2.312  -3.167  0.00  0.00    -0.274 OA
ENDBRANCH  21  30
ENDBRANCH   1  21
TORSDOF 3
