REMARK  Name = ZINC06772740
REMARK  7 active torsions:
REMARK  status: ('A' for Active; 'I' for Inactive)
REMARK    1  A    between atoms: C_1  and  C_2
REMARK    2  A    between atoms: C_4  and  C_18
REMARK    3  A    between atoms: C_6  and  C_17
REMARK    4  A    between atoms: N_8  and  C_11
REMARK    5  A    between atoms: N_20  and  C_21
REMARK    6  A    between atoms: C_21  and  C_22
REMARK    7  A    between atoms: C_27  and  N_62
REMARK                            x       y       z     vdW  Elec       q    Type
REMARK                         _______ _______ _______ _____ _____    ______ ____
ROOT
ATOM      1  C   UNL     1       3.087  -3.822   3.516  0.00  0.00    +0.065 C 
ATOM      2  C   UNL     1       3.317  -2.448   4.090  0.00  0.00    +0.041 A 
ATOM      3  C   UNL     1       2.662  -1.362   3.528  0.00  0.00    +0.037 A 
ATOM      4  C   UNL     1       2.876  -0.089   4.052  0.00  0.00    +0.051 A 
ATOM      5  C   UNL     1       3.753   0.032   5.153  0.00  0.00    +0.054 A 
ATOM      6  C   UNL     1       4.200   1.119   5.933  0.00  0.00    +0.070 A 
ATOM      7  N   UNL     1       5.019   0.671   6.841  0.00  0.00    -0.169 NA
ATOM      8  N   UNL     1       5.155  -0.717   6.713  0.00  0.00    -0.214 N 
ATOM      9  C   UNL     1       4.371  -1.128   5.663  0.00  0.00    +0.164 A 
ATOM     10  N   UNL     1       4.129  -2.309   5.115  0.00  0.00    -0.232 NA
ATOM     11  C   UNL     1       3.798   2.559   5.746  0.00  0.00    +0.068 C 
ENDROOT
BRANCH   8  12
ATOM     12  C   UNL     1       5.954  -1.542   7.515  0.00  0.00    +0.068 A 
ATOM     13  C   UNL     1       5.530  -2.826   7.830  0.00  0.00    +0.028 A 
ATOM     14  C   UNL     1       6.322  -3.640   8.616  0.00  0.00    +0.002 A 
ATOM     15  C   UNL     1       7.531  -3.172   9.100  0.00  0.00    +0.000 A 
ATOM     16  C   UNL     1       7.953  -1.891   8.792  0.00  0.00    +0.002 A 
ATOM     17  C   UNL     1       7.168  -1.075   8.001  0.00  0.00    +0.028 A 
ENDBRANCH   8  12
BRANCH   4  18
ATOM     18  C   UNL     1       2.202   1.096   3.479  0.00  0.00    +0.245 C 
ATOM     19  O   UNL     1       2.300   2.175   4.028  0.00  0.00    -0.270 OA
ATOM     20  N   UNL     1       1.480   0.978   2.346  0.00  0.00    -0.311 N 
ATOM     21  H   UNL     1       1.403   0.117   1.908  0.00  0.00    +0.149 HD
BRANCH  20  22
ATOM     22  C   UNL     1       0.813   2.152   1.778  0.00  0.00    +0.106 C 
BRANCH  22  23
ATOM     23  C   UNL     1       0.068   1.749   0.504  0.00  0.00    -0.012 C 
ATOM     24  C   UNL     1       1.063   1.327  -0.601  0.00  0.00    -0.015 C 
ATOM     25  C   UNL     1       0.489   1.911  -1.906  0.00  0.00    -0.078 C 
ATOM     26  C   UNL     1      -0.649   2.971  -0.125  0.00  0.00    -0.074 C 
ATOM     27  N   UNL     1      -0.763   2.580  -1.535  0.00  0.00    +0.382 N 
ATOM     28  H   UNL     1      -1.551   1.932  -1.652  0.00  0.00    -0.081 HD
BRANCH  27  29
ATOM     29  C   UNL     1      -0.983   3.780  -2.397  0.00  0.00    -0.069 C 
ATOM     30  C   UNL     1      -0.872   3.397  -3.888  0.00  0.00    -0.015 C 
ATOM     31  C   UNL     1      -0.166   4.612  -4.540  0.00  0.00    -0.002 C 
ATOM     32  C   UNL     1       0.864   5.030  -3.460  0.00  0.00    -0.002 C 
ATOM     33  C   UNL     1       0.120   4.818  -2.126  0.00  0.00    -0.015 C 
ENDBRANCH  27  29
ENDBRANCH  22  23
ENDBRANCH  20  22
ENDBRANCH   4  18
TORSDOF 5
