REMARK  Name = ZINC39684067
REMARK  9 active torsions:
REMARK  status: ('A' for Active; 'I' for Inactive)
REMARK    1  A    between atoms: C_1  and  C_2
REMARK    2  A    between atoms: C_7  and  C_11
REMARK    3  A    between atoms: C_11  and  C_12
REMARK    4  A    between atoms: C_12  and  N_13
REMARK    5  A    between atoms: C_14  and  C_16
REMARK    6  A    between atoms: C_27  and  C_29
REMARK    7  A    between atoms: C_34  and  O_35
REMARK    8  A    between atoms: O_35  and  C_36
REMARK    9  A    between atoms: C_36  and  C_38
REMARK                            x       y       z     vdW  Elec       q    Type
REMARK                         _______ _______ _______ _____ _____    ______ ____
ROOT
ATOM      1  C   UNL     1      -8.739   1.833  -6.686  0.00  0.00    +0.100 C 
ATOM      2  C   UNL     1      -9.843   2.219  -5.676  0.00  0.00    +0.121 C 
ATOM      3  N   UNL     1     -11.095   1.692  -6.270  0.00  0.00    -0.296 N 
ATOM      4  C   UNL     1     -10.706   0.383  -6.847  0.00  0.00    +0.115 C 
ATOM      5  C   UNL     1      -9.309   0.627  -7.452  0.00  0.00    -0.004 C 
ATOM      6  C   UNL     1      -8.424  -0.598  -7.243  0.00  0.00    -0.010 C 
ATOM      7  C   UNL     1      -8.978  -1.768  -8.061  0.00  0.00    -0.082 C 
ATOM      8  N   UNL     1      -9.014  -1.402  -9.482  0.00  0.00    +0.379 N 
ATOM      9  C   UNL     1      -9.940  -0.281  -9.687  0.00  0.00    -0.082 C 
ATOM     10  C   UNL     1      -9.426   0.952  -8.938  0.00  0.00    -0.010 C 
ATOM     11  C   UNL     1     -12.311   2.272  -6.283  0.00  0.00    +0.250 C 
ATOM     12  O   UNL     1     -13.268   1.669  -6.729  0.00  0.00    -0.270 OA
ATOM     13  H   UNL     1      -8.089  -1.131  -9.781  0.00  0.00    -0.086 HD
ATOM     14  H   UNL     1      -9.321  -2.194 -10.024  0.00  0.00    -0.086 HD
ENDROOT
BRANCH  11  15
ATOM     15  C   UNL     1     -12.482   3.640  -5.755  0.00  0.00    +0.079 A 
ATOM     16  C   UNL     1     -11.731   4.068  -4.658  0.00  0.00    +0.017 A 
ATOM     17  C   UNL     1     -11.895   5.347  -4.170  0.00  0.00    +0.001 A 
ATOM     18  C   UNL     1     -12.802   6.210  -4.762  0.00  0.00    +0.004 A 
ATOM     19  C   UNL     1     -13.551   5.799  -5.847  0.00  0.00    +0.047 A 
ATOM     20  C   UNL     1     -13.395   4.518  -6.355  0.00  0.00    +0.144 A 
BRANCH  20  21
ATOM     21  O   UNL     1     -14.126   4.114  -7.424  0.00  0.00    -0.425 OA
BRANCH  21  22
ATOM     22  C   UNL     1     -13.590   4.261  -8.647  0.00  0.00    +0.309 C 
ATOM     23  O   UNL     1     -12.454   4.655  -8.764  0.00  0.00    -0.251 OA
ATOM     24  C   UNL     1     -14.405   3.936  -9.871  0.00  0.00    +0.136 C 
ENDBRANCH  21  22
ENDBRANCH  20  21
ENDBRANCH  11  15
BRANCH   1  26
ATOM     25  N   UNL     1      -6.286   1.531  -6.586  0.00  0.00    -0.315 N 
ATOM     26  C   UNL     1      -7.477   1.445  -5.960  0.00  0.00    +0.218 C 
ATOM     27  O   UNL     1      -7.533   1.055  -4.813  0.00  0.00    -0.275 OA
ATOM     28  H   UNL     1      -6.242   1.843  -7.503  0.00  0.00    +0.149 HD
BRANCH  25  29
ATOM     29  C   UNL     1      -5.059   1.154  -5.880  0.00  0.00    +0.109 C 
BRANCH  29  30
ATOM     30  C   UNL     1      -3.858   1.343  -6.809  0.00  0.00    +0.056 C 
BRANCH  30  37
ATOM     31  C   UNL     1       1.158  -1.276  -4.107  0.00  0.00    +0.046 C 
ATOM     32  C   UNL     1      -0.107  -1.396  -4.917  0.00  0.00    -0.027 A 
ATOM     33  C   UNL     1      -0.518  -2.627  -5.379  0.00  0.00    +0.005 A 
ATOM     34  C   UNL     1      -1.680  -2.751  -6.127  0.00  0.00    +0.001 A 
ATOM     35  C   UNL     1      -2.438  -1.652  -6.419  0.00  0.00    +0.010 A 
ATOM     36  C   UNL     1      -2.041  -0.395  -5.961  0.00  0.00    +0.003 A 
ATOM     37  C   UNL     1      -2.596   0.955  -6.083  0.00  0.00    -0.021 A 
ATOM     38  C   UNL     1      -1.766   1.782  -5.427  0.00  0.00    +0.087 A 
ATOM     39  N   UNL     1      -0.725   1.071  -4.894  0.00  0.00    -0.360 N 
ATOM     40  C   UNL     1      -0.866  -0.265  -5.197  0.00  0.00    +0.050 A 
ATOM     41  H   UNL     1       0.002   1.451  -4.376  0.00  0.00    +0.165 HD
ENDBRANCH  30  37
ENDBRANCH  29  30
ENDBRANCH  25  29
ENDBRANCH   1  26
TORSDOF 7
