REMARK  Name = ZINC04028806
REMARK  7 active torsions:
REMARK  status: ('A' for Active; 'I' for Inactive)
REMARK    1  A    between atoms: C_1  and  C_2
REMARK    2  A    between atoms: C_5  and  C_31
REMARK    3  A    between atoms: C_7  and  C_30
REMARK    4  A    between atoms: C_9  and  C_11
REMARK    5  A    between atoms: N_12  and  N_13
REMARK    6  A    between atoms: C_19  and  O_28
REMARK    7  A    between atoms: O_28  and  C_29
REMARK                            x       y       z     vdW  Elec       q    Type
REMARK                         _______ _______ _______ _____ _____    ______ ____
ROOT
ATOM      1  N   UNL     1       1.203   1.967   0.001  0.00  0.00    -0.184 N 
ATOM      2  C   UNL     1       2.369   1.279  -0.116  0.00  0.00    +0.227 A 
ATOM      3  N   UNL     1       3.525   1.881  -0.128  0.00  0.00    -0.233 NA
ATOM      4  C   UNL     1       3.615   3.218  -0.024  0.00  0.00    +0.103 A 
ATOM      5  C   UNL     1       4.741   4.162  -0.007  0.00  0.00    +0.029 A 
ATOM      6  C   UNL     1       6.126   4.007  -0.091  0.00  0.00    +0.057 A 
ATOM      7  C   UNL     1       6.943   5.118  -0.044  0.00  0.00    +0.121 A 
ATOM      8  C   UNL     1       6.390   6.389   0.087  0.00  0.00    +0.047 A 
ATOM      9  C   UNL     1       5.026   6.554   0.172  0.00  0.00    +0.030 A 
ATOM     10  C   UNL     1       4.184   5.445   0.126  0.00  0.00    +0.049 A 
ATOM     11  N   UNL     1       2.811   5.315   0.188  0.00  0.00    -0.349 N 
ATOM     12  H   UNL     1       2.187   6.051   0.280  0.00  0.00    +0.166 HD
ATOM     13  C   UNL     1       2.457   3.982   0.099  0.00  0.00    +0.133 A 
ATOM     14  C   UNL     1       1.211   3.314   0.104  0.00  0.00    +0.298 A 
ATOM     15  O   UNL     1       0.168   3.938   0.204  0.00  0.00    -0.263 OA
ENDROOT
BRANCH   1  17
ATOM     16  C   UNL     1      -0.025  -0.004   0.010  0.00  0.00    +0.110 C 
ATOM     17  N   UNL     1      -0.015   1.276   0.009  0.00  0.00    -0.175 NA
BRANCH  16  24
ATOM     18  C   UNL     1      -0.932  -0.783   2.605  0.00  0.00    +0.008 C 
ATOM     19  C   UNL     1      -1.304  -1.631   1.387  0.00  0.00    -0.001 C 
ATOM     20  C   UNL     1      -2.696  -2.233   1.584  0.00  0.00    +0.034 C 
ATOM     21  C   UNL     1      -3.182  -2.842   0.302  0.00  0.00    -0.076 C 
ATOM     22  C   UNL     1      -2.676  -2.585  -0.861  0.00  0.00    -0.024 C 
ATOM     23  C   UNL     1      -1.526  -1.648  -1.089  0.00  0.00    +0.017 C 
ATOM     24  C   UNL     1      -1.330  -0.748   0.133  0.00  0.00    +0.042 C 
ATOM     25  C   UNL     1      -1.813  -0.781  -2.317  0.00  0.00    +0.012 C 
ATOM     26  C   UNL     1      -4.332  -3.815   0.373  0.00  0.00    +0.039 C 
ENDBRANCH  16  24
ENDBRANCH   1  17
BRANCH   7  27
ATOM     27  O   UNL     1       8.293   4.971  -0.126  0.00  0.00    -0.495 OA
ATOM     28  C   UNL     1       9.079   6.163  -0.070  0.00  0.00    +0.277 C 
ENDBRANCH   7  27
TORSDOF 3
