REMARK  Name = ZINC39460331
REMARK  8 active torsions:
REMARK  status: ('A' for Active; 'I' for Inactive)
REMARK    1  A    between atoms: C_1  and  C_2
REMARK    2  A    between atoms: C_2  and  C_4
REMARK    3  A    between atoms: C_2  and  O_17
REMARK    4  A    between atoms: C_4  and  N_6
REMARK    5  A    between atoms: O_17  and  C_18
REMARK    6  A    between atoms: C_18  and  C_20
REMARK    7  A    between atoms: N_22  and  C_32
REMARK    8  A    between atoms: C_24  and  C_26
REMARK                            x       y       z     vdW  Elec       q    Type
REMARK                         _______ _______ _______ _____ _____    ______ ____
ROOT
ATOM      1  C   UNL     1      -3.224  -1.206   1.303  0.00  0.00    +0.075 C 
ATOM      2  C   UNL     1      -3.921  -1.467   2.428  0.00  0.00    +0.106 C 
ATOM      3  N   UNL     1      -5.168  -1.925   2.146  0.00  0.00    -0.242 N 
ATOM      4  N   UNL     1      -5.386  -2.001   0.801  0.00  0.00    -0.224 NA
ATOM      5  C   UNL     1      -4.147  -1.536   0.148  0.00  0.00    +0.141 C 
ATOM      6  H   UNL     1      -5.612  -2.945   0.524  0.00  0.00    +0.146 HD
ENDROOT
BRANCH   5   7
ATOM      7  C   UNL     1      -3.557  -2.632  -0.702  0.00  0.00    -0.024 A 
ATOM      8  C   UNL     1      -3.670  -3.951  -0.305  0.00  0.00    +0.005 A 
ATOM      9  C   UNL     1      -3.129  -4.956  -1.085  0.00  0.00    +0.000 A 
ATOM     10  C   UNL     1      -2.477  -4.642  -2.262  0.00  0.00    +0.000 A 
ATOM     11  C   UNL     1      -2.365  -3.323  -2.660  0.00  0.00    +0.000 A 
ATOM     12  C   UNL     1      -2.909  -2.318  -1.882  0.00  0.00    +0.005 A 
ENDBRANCH   5   7
BRANCH   3  13
ATOM     13  C   UNL     1      -6.112  -2.277   3.115  0.00  0.00    +0.049 A 
ATOM     14  C   UNL     1      -7.363  -2.743   2.731  0.00  0.00    +0.025 A 
ATOM     15  C   UNL     1      -8.294  -3.090   3.690  0.00  0.00    +0.002 A 
ATOM     16  C   UNL     1      -7.982  -2.972   5.032  0.00  0.00    +0.000 A 
ATOM     17  C   UNL     1      -6.738  -2.508   5.418  0.00  0.00    +0.002 A 
ATOM     18  C   UNL     1      -5.800  -2.166   4.464  0.00  0.00    +0.025 A 
ENDBRANCH   3  13
BRANCH   1  19
ATOM     19  C   UNL     1      -1.902  -0.717   1.219  0.00  0.00    +0.339 C 
ATOM     20  O   UNL     1      -1.270  -0.493   2.235  0.00  0.00    -0.245 OA
BRANCH  19  21
ATOM     21  O   UNL     1      -1.339  -0.499   0.012  0.00  0.00    -0.449 OA
BRANCH  21  23
ATOM     22  C   UNL     1      -0.019   1.526   0.010  0.00  0.00    +0.062 C 
ATOM     23  C   UNL     1       0.002  -0.004   0.002  0.00  0.00    +0.261 C 
BRANCH  23  24
ATOM     24  C   UNL     1       0.707  -0.490  -1.238  0.00  0.00    +0.278 C 
ATOM     25  O   UNL     1       0.095  -1.115  -2.079  0.00  0.00    -0.270 OA
BRANCH  24  26
ATOM     26  N   UNL     1       2.011  -0.232  -1.412  0.00  0.00    -0.162 NA
ATOM     27  C   UNL     1       2.625  -0.656  -2.491  0.00  0.00    +0.145 C 
ATOM     28  N   UNL     1       1.992  -1.366  -3.492  0.00  0.00    -0.188 NA
ATOM     29  C   UNL     1       2.341  -1.166  -4.795  0.00  0.00    +0.211 C 
ATOM     30  N   UNL     1       3.390  -0.457  -5.154  0.00  0.00    -0.221 NA
ATOM     31  C   UNL     1       4.124   0.111  -4.198  0.00  0.00    +0.164 C 
ATOM     32  N   UNL     1       4.910   1.143  -4.155  0.00  0.00    -0.219 NA
ATOM     33  C   UNL     1       5.127   1.539  -2.893  0.00  0.00    +0.218 C 
ATOM     34  N   UNL     1       4.654   0.710  -2.007  0.00  0.00    -0.254 NA
ATOM     35  C   UNL     1       4.094  -0.406  -2.761  0.00  0.00    +0.237 C 
ENDBRANCH  24  26
ENDBRANCH  23  24
ENDBRANCH  21  23
ENDBRANCH  19  21
ENDBRANCH   1  19
TORSDOF 7
