REMARK  Name = ZINC37868704
REMARK  8 active torsions:
REMARK  status: ('A' for Active; 'I' for Inactive)
REMARK    1  A    between atoms: C_1  and  C_2
REMARK    2  A    between atoms: N_8  and  C_9
REMARK    3  A    between atoms: C_9  and  C_10
REMARK    4  A    between atoms: C_16  and  C_24
REMARK    5  A    between atoms: C_18  and  C_22
REMARK    6  A    between atoms: C_19  and  N_21
REMARK    7  A    between atoms: C_29  and  O_30
REMARK    8  A    between atoms: O_30  and  C_31
REMARK                            x       y       z     vdW  Elec       q    Type
REMARK                         _______ _______ _______ _____ _____    ______ ____
ROOT
ATOM      1  C   UNL     1      -0.018   1.503   0.010  0.00  0.00    +0.064 C 
ATOM      2  C   UNL     1       0.002  -0.004   0.002  0.00  0.00    +0.023 A 
ATOM      3  C   UNL     1       0.005  -0.663  -1.176  0.00  0.00    +0.068 A 
ATOM      4  C   UNL     1       0.024  -2.074  -1.190  0.00  0.00    +0.141 A 
ATOM      5  C   UNL     1       0.039  -2.753   0.010  0.00  0.00    +0.072 A 
ATOM      6  C   UNL     1       0.035  -2.026   1.208  0.00  0.00    +0.259 A 
ATOM      7  O   UNL     1       0.048  -2.614   2.278  0.00  0.00    -0.267 OA
ATOM      8  N   UNL     1       0.022  -0.680   1.180  0.00  0.00    -0.306 N 
ATOM      9  C   UNL     1       0.057  -4.256   0.043  0.00  0.00    +0.107 C 
ATOM     10  C   UNL     1       0.455  -4.798  -1.302  0.00  0.00    +0.098 C 
ATOM     11  C   UNL     1       0.418  -4.021  -2.411  0.00  0.00    +0.199 C 
ATOM     12  O   UNL     1       0.027  -2.736  -2.366  0.00  0.00    -0.441 OA
ENDROOT
BRANCH   9  13
ATOM     13  C   UNL     1      -1.316  -4.765   0.397  0.00  0.00    +0.007 A 
ATOM     14  C   UNL     1      -2.395  -4.465  -0.412  0.00  0.00    +0.008 A 
ATOM     15  C   UNL     1      -3.655  -4.932  -0.087  0.00  0.00    +0.001 A 
ATOM     16  C   UNL     1      -3.839  -5.700   1.048  0.00  0.00    +0.004 A 
ATOM     17  C   UNL     1      -2.764  -6.003   1.860  0.00  0.00    +0.046 A 
ATOM     18  C   UNL     1      -1.497  -5.540   1.533  0.00  0.00    +0.124 A 
BRANCH  18  19
ATOM     19  O   UNL     1      -0.437  -5.841   2.328  0.00  0.00    -0.495 OA
ATOM     20  C   UNL     1      -0.697  -6.644   3.481  0.00  0.00    +0.277 C 
ENDBRANCH  18  19
ENDBRANCH   9  13
BRANCH  11  21
ATOM     21  N   UNL     1       0.790  -4.563  -3.616  0.00  0.00    -0.328 N 
ATOM     22  H   UNL     1       1.074  -5.489  -3.665  0.00  0.00    +0.145 HD
ATOM     23  H   UNL     1       0.769  -4.019  -4.419  0.00  0.00    +0.145 HD
ENDBRANCH  11  21
BRANCH  10  24
ATOM     24  C   UNL     1       0.880  -6.161  -1.413  0.00  0.00    +0.101 C 
ATOM     25  N   UNL     1       1.218  -7.242  -1.501  0.00  0.00    -0.191 NA
ENDBRANCH  10  24
BRANCH   8  26
ATOM     26  C   UNL     1       0.025   0.067   2.441  0.00  0.00    +0.180 C 
BRANCH  26  27
ATOM     27  C   UNL     1      -1.395   0.304   2.886  0.00  0.00    +0.061 A 
ATOM     28  C   UNL     1      -1.982  -0.564   3.788  0.00  0.00    +0.025 A 
ATOM     29  C   UNL     1      -3.289  -0.337   4.191  0.00  0.00    +0.003 A 
ATOM     30  C   UNL     1      -3.959   0.760   3.671  0.00  0.00    +0.020 A 
ATOM     31  C   UNL     1      -3.307   1.584   2.774  0.00  0.00    +0.111 A 
ATOM     32  N   UNL     1      -2.061   1.340   2.416  0.00  0.00    -0.258 NA
ENDBRANCH  26  27
ENDBRANCH   8  26
TORSDOF 6
