REMARK  Name = ZINC17164718
REMARK  3 active torsions:
REMARK  status: ('A' for Active; 'I' for Inactive)
REMARK    1  A    between atoms: C_6  and  C_7
REMARK    2  A    between atoms: C_7  and  S_8
REMARK    3  A    between atoms: S_8  and  C_9
REMARK                            x       y       z     vdW  Elec       q    Type
REMARK                         _______ _______ _______ _____ _____    ______ ____
ROOT
ATOM      1  C   UNL     1      -1.185  -1.989   0.003  0.00  0.00    +0.130 A 
ATOM      2  C   UNL     1       0.033  -2.693  -0.013  0.00  0.00    +0.140 A 
ATOM      3  C   UNL     1       1.227  -1.955  -0.020  0.00  0.00    +0.164 A 
ATOM      4  N   UNL     1       2.242  -2.879  -0.035  0.00  0.00    -0.329 N 
ATOM      5  H   UNL     1       3.222  -2.680  -0.043  0.00  0.00    +0.168 HD
ATOM      6  C   UNL     1       1.669  -4.117  -0.037  0.00  0.00    +0.198 A 
ATOM      7  N   UNL     1       0.372  -4.005  -0.023  0.00  0.00    -0.232 NA
ATOM      8  N   UNL     1       1.169  -0.627  -0.013  0.00  0.00    -0.195 NA
ATOM      9  C   UNL     1       0.002  -0.004   0.002  0.00  0.00    +0.216 A 
ATOM     10  N   UNL     1      -1.151  -0.660   0.015  0.00  0.00    -0.206 NA
ATOM     11  N   UNL     1      -0.017   1.381   0.010  0.00  0.00    -0.327 N 
ATOM     12  H   UNL     1       0.817   1.877   0.004  0.00  0.00    +0.145 HD
ATOM     13  H   UNL     1      -0.863   1.855   0.016  0.00  0.00    +0.145 HD
ENDROOT
BRANCH   1  14
ATOM     14  S   UNL     1      -2.722  -2.850   0.014  0.00  0.00    -0.099 S 
BRANCH  14  15
ATOM     15  C   UNL     1      -3.868  -1.448   0.033  0.00  0.00    +0.111 C 
BRANCH  15  21
ATOM     16  C   UNL     1      -5.949  -2.180  -1.148  0.00  0.00    +0.006 A 
ATOM     17  C   UNL     1      -7.249  -2.653  -1.139  0.00  0.00    +0.022 A 
ATOM     18  C   UNL     1      -7.888  -2.894   0.063  0.00  0.00    +0.059 A 
ATOM     19  C   UNL     1      -7.225  -2.666   1.257  0.00  0.00    +0.060 A 
ATOM     20  C   UNL     1      -5.924  -2.199   1.246  0.00  0.00    +0.026 A 
ATOM     21  C   UNL     1      -5.286  -1.958   0.044  0.00  0.00    -0.036 A 
ATOM     22 CL   UNL     1      -8.027  -2.969   2.767  0.00  0.00    -0.082 Cl
ATOM     23 CL   UNL     1      -9.522  -3.481   0.075  0.00  0.00    -0.082 Cl
ENDBRANCH  15  21
ENDBRANCH  14  15
ENDBRANCH   1  14
TORSDOF 3
