REMARK  Name = ZINC09453456
REMARK  6 active torsions:
REMARK  status: ('A' for Active; 'I' for Inactive)
REMARK    1  A    between atoms: C_1  and  C_2
REMARK    2  A    between atoms: C_5  and  C_9
REMARK    3  A    between atoms: C_6  and  C_8
REMARK    4  A    between atoms: C_11  and  C_18
REMARK    5  A    between atoms: C_12  and  C_17
REMARK    6  A    between atoms: C_18  and  C_20
REMARK                            x       y       z     vdW  Elec       q    Type
REMARK                         _______ _______ _______ _____ _____    ______ ____
ROOT
ATOM      1  C   UNL     1       1.526   1.726  -0.584  0.00  0.00    +0.138 C 
ATOM      2  C   UNL     1       1.170   3.127  -0.128  0.00  0.00    +0.041 C 
ATOM      3  C   UNL     1      -0.120   3.374   0.198  0.00  0.00    +0.015 C 
ATOM      4  N   UNL     1      -1.066   2.395   0.117  0.00  0.00    -0.300 N 
ATOM      5  C   UNL     1      -0.807   1.143  -0.283  0.00  0.00    +0.135 C 
ATOM      6  S   UNL     1      -2.091   0.013  -0.345  0.00  0.00    -0.019 S 
ATOM      7  N   UNL     1       0.430   0.744  -0.635  0.00  0.00    -0.315 N 
ATOM      8  C   UNL     1      -0.518   4.753   0.655  0.00  0.00    +0.061 C 
ATOM      9  H   UNL     1      -1.978   2.618   0.361  0.00  0.00    +0.154 HD
ATOM     10  H   UNL     1       0.595  -0.169  -0.919  0.00  0.00    +0.149 HD
ENDROOT
BRANCH   1  15
ATOM     11  C   UNL     1       3.825   2.106  -5.872  0.00  0.00    +0.044 C 
ATOM     12  C   UNL     1       3.226   2.007  -4.492  0.00  0.00    -0.050 A 
ATOM     13  C   UNL     1       2.376   2.998  -4.035  0.00  0.00    +0.004 A 
ATOM     14  C   UNL     1       1.822   2.904  -2.773  0.00  0.00    +0.006 A 
ATOM     15  C   UNL     1       2.126   1.826  -1.962  0.00  0.00    -0.020 A 
ATOM     16  C   UNL     1       2.976   0.836  -2.419  0.00  0.00    -0.045 A 
ATOM     17  C   UNL     1       3.526   0.927  -3.684  0.00  0.00    +0.007 A 
ATOM     18  C   UNL     1       3.302  -0.343  -1.539  0.00  0.00    +0.044 C 
ENDBRANCH   1  15
BRANCH   2  19
ATOM     19  C   UNL     1       2.152   4.141  -0.046  0.00  0.00    +0.193 C 
ATOM     20  O   UNL     1       2.098   5.104  -0.791  0.00  0.00    -0.287 OA
BRANCH  19  21
ATOM     21  C   UNL     1       3.246   4.034   0.945  0.00  0.00    +0.022 A 
ATOM     22  C   UNL     1       3.260   2.982   1.862  0.00  0.00    +0.012 A 
ATOM     23  C   UNL     1       4.286   2.884   2.779  0.00  0.00    +0.001 A 
ATOM     24  C   UNL     1       5.293   3.832   2.799  0.00  0.00    +0.000 A 
ATOM     25  C   UNL     1       5.283   4.880   1.895  0.00  0.00    +0.001 A 
ATOM     26  C   UNL     1       4.266   4.987   0.969  0.00  0.00    +0.012 A 
ENDBRANCH  19  21
ENDBRANCH   2  19
TORSDOF 3
