REMARK  Name = ZINC04116637
REMARK  8 active torsions:
REMARK  status: ('A' for Active; 'I' for Inactive)
REMARK    1  A    between atoms: C_1  and  N_2
REMARK    2  A    between atoms: N_2  and  C_3
REMARK    3  A    between atoms: N_2  and  C_4
REMARK    4  A    between atoms: C_7  and  C_10
REMARK    5  A    between atoms: C_12  and  C_24
REMARK    6  A    between atoms: C_14  and  C_19
REMARK    7  A    between atoms: C_14  and  O_23
REMARK    8  A    between atoms: C_24  and  C_26
REMARK                            x       y       z     vdW  Elec       q    Type
REMARK                         _______ _______ _______ _____ _____    ______ ____
ROOT
ATOM      1  C   UNL     1       0.201  -0.132  -0.263  0.00  0.00    +0.120 C 
ATOM      2  C   UNL     1      -0.455  -0.727  -1.513  0.00  0.00    +0.144 C 
ATOM      3  C   UNL     1      -0.799  -2.194  -1.231  0.00  0.00    +0.243 C 
ATOM      4  N   UNL     1      -1.636  -2.269  -0.033  0.00  0.00    -0.264 N 
ATOM      5  C   UNL     1      -1.540  -1.355   0.944  0.00  0.00    +0.302 C 
ATOM      6  O   UNL     1      -2.251  -1.470   1.924  0.00  0.00    -0.253 OA
ATOM      7  N   UNL     1      -0.690  -0.319   0.883  0.00  0.00    -0.292 N 
ATOM      8  H   UNL     1      -2.274  -2.995   0.057  0.00  0.00    +0.153 HD
ATOM      9  H   UNL     1      -0.666   0.320   1.613  0.00  0.00    +0.151 HD
ENDROOT
BRANCH   1  13
ATOM     10  C   UNL     1       0.895   4.043  -0.866  0.00  0.00    +0.029 A 
ATOM     11  C   UNL     1       1.898   3.123  -1.144  0.00  0.00    +0.023 A 
ATOM     12  C   UNL     1       1.671   1.775  -0.948  0.00  0.00    +0.007 A 
ATOM     13  C   UNL     1       0.446   1.340  -0.476  0.00  0.00    -0.026 A 
ATOM     14  C   UNL     1      -0.557   2.253  -0.203  0.00  0.00    +0.007 A 
ATOM     15  C   UNL     1      -0.334   3.603  -0.391  0.00  0.00    +0.023 A 
BRANCH  10  17
ATOM     16  C   UNL     1       2.418   5.869  -1.565  0.00  0.00    +0.129 C 
ATOM     17  N   UNL     1       1.122   5.407  -1.064  0.00  0.00    -0.336 N 
ATOM     18  C   UNL     1       0.062   6.375  -0.770  0.00  0.00    +0.129 C 
ENDBRANCH  10  17
ENDBRANCH   1  13
BRANCH   3  19
ATOM     19  C   UNL     1      -1.558  -2.779  -2.424  0.00  0.00    +0.436 C 
ATOM     20  F   UNL     1      -0.807  -2.597  -3.590  0.00  0.00    -0.166 F 
ATOM     21  F   UNL     1      -1.772  -4.146  -2.216  0.00  0.00    -0.166 F 
ATOM     22  F   UNL     1      -2.790  -2.130  -2.557  0.00  0.00    -0.166 F 
ENDBRANCH   3  19
BRANCH   3  23
ATOM     23  O   UNL     1       0.404  -2.935  -1.021  0.00  0.00    -0.364 OA
ATOM     24  H   UNL     1       0.261  -3.873  -0.837  0.00  0.00    +0.212 HD
ENDBRANCH   3  23
BRANCH   2  25
ATOM     25  C   UNL     1      -1.715   0.035  -1.836  0.00  0.00    +0.173 C 
ATOM     26  O   UNL     1      -2.636   0.044  -1.048  0.00  0.00    -0.292 OA
BRANCH  25  27
ATOM     27  C   UNL     1      -1.826   0.768  -3.107  0.00  0.00    +0.018 A 
ATOM     28  C   UNL     1      -0.724   0.863  -3.962  0.00  0.00    +0.011 A 
ATOM     29  C   UNL     1      -0.837   1.547  -5.154  0.00  0.00    +0.001 A 
ATOM     30  C   UNL     1      -2.035   2.148  -5.500  0.00  0.00    +0.000 A 
ATOM     31  C   UNL     1      -3.129   2.063  -4.656  0.00  0.00    +0.001 A 
ATOM     32  C   UNL     1      -3.033   1.378  -3.463  0.00  0.00    +0.011 A 
ENDBRANCH  25  27
ENDBRANCH   2  25
TORSDOF 6
