REMARK  Name = ZINC61594331
REMARK  7 active torsions:
REMARK  status: ('A' for Active; 'I' for Inactive)
REMARK    1  A    between atoms: C_1  and  C_2
REMARK    2  A    between atoms: C_2  and  N_3
REMARK    3  A    between atoms: C_9  and  S_10
REMARK    4  A    between atoms: S_10  and  C_11
REMARK    5  A    between atoms: C_11  and  C_13
REMARK    6  A    between atoms: C_11  and  C_15
REMARK    7  A    between atoms: C_13  and  N_14
REMARK                            x       y       z     vdW  Elec       q    Type
REMARK                         _______ _______ _______ _____ _____    ______ ____
ROOT
ATOM      1  C   UNL     1      -3.022  -1.245  -3.729  0.00  0.00    +0.067 C 
ENDROOT
BRANCH   1   2
ATOM      2  C   UNL     1      -2.587  -1.134  -5.168  0.00  0.00    -0.035 A 
ATOM      3  C   UNL     1      -1.424  -1.752  -5.588  0.00  0.00    +0.005 A 
ATOM      4  C   UNL     1      -1.025  -1.650  -6.908  0.00  0.00    +0.001 A 
ATOM      5  C   UNL     1      -1.788  -0.930  -7.808  0.00  0.00    +0.015 A 
ATOM      6  C   UNL     1      -2.952  -0.312  -7.388  0.00  0.00    +0.018 A 
ATOM      7  C   UNL     1      -3.354  -0.419  -6.068  0.00  0.00    +0.020 A 
ATOM      8 BR   UNL     1      -3.997   0.673  -8.618  0.00  0.00    -0.050 Br
ENDBRANCH   1   2
BRANCH   1   9
ATOM      9  S   UNL     1      -1.744  -0.537  -2.655  0.00  0.00    -0.080 S 
BRANCH   9  16
ATOM     10  N   UNL     1      -1.853  -0.194   0.120  0.00  0.00    -0.271 N 
ATOM     11  C   UNL     1      -2.740  -0.317   1.128  0.00  0.00    +0.345 A 
ATOM     12  O   UNL     1      -2.528  -0.086   2.305  0.00  0.00    -0.245 OA
ATOM     13  N   UNL     1      -3.905  -0.741   0.596  0.00  0.00    -0.226 N 
ATOM     14  H   UNL     1      -4.726  -0.919   1.080  0.00  0.00    +0.194 HD
ATOM     15  N   UNL     1      -3.709  -0.878  -0.786  0.00  0.00    -0.145 NA
ATOM     16  C   UNL     1      -2.481  -0.541  -1.055  0.00  0.00    +0.193 A 
BRANCH  10  18
ATOM     17  C   UNL     1      -0.387   1.764   0.111  0.00  0.00    +0.027 C 
ATOM     18  C   UNL     1      -0.461   0.242   0.251  0.00  0.00    +0.125 C 
ENDBRANCH  10  18
ENDBRANCH   9  16
ENDBRANCH   1   9
BRANCH   1  19
ATOM     19  C   UNL     1      -3.229  -2.718  -3.372  0.00  0.00    -0.067 C 
BRANCH  19  20
ATOM     20  N   UNL     1      -4.352  -3.258  -4.151  0.00  0.00    +0.379 N 
ATOM     21  H   UNL     1      -4.440  -4.247  -3.973  0.00  0.00    -0.090 HD
ATOM     22  H   UNL     1      -5.204  -2.790  -3.882  0.00  0.00    -0.090 HD
ATOM     23  H   UNL     1      -4.181  -3.107  -5.135  0.00  0.00    -0.090 HD
ENDBRANCH  19  20
ENDBRANCH   1  19
TORSDOF 6
