REMARK  Name = ZINC56782906
REMARK  5 active torsions:
REMARK  status: ('A' for Active; 'I' for Inactive)
REMARK    1  A    between atoms: C_1  and  C_2
REMARK    2  A    between atoms: C_8  and  C_10
REMARK    3  A    between atoms: N_18  and  C_19
REMARK    4  A    between atoms: C_24  and  C_29
REMARK    5  A    between atoms: C_26  and  C_28
REMARK                            x       y       z     vdW  Elec       q    Type
REMARK                         _______ _______ _______ _____ _____    ______ ____
ROOT
ATOM      1  C   UNL     1       0.092  -5.172   3.140  0.00  0.00    +0.078 C 
ATOM      2  C   UNL     1       1.341  -4.915   3.987  0.00  0.00    +0.032 C 
ATOM      3  C   UNL     1       1.338  -5.859   5.194  0.00  0.00    +0.110 C 
ATOM      4  N   UNL     1       1.208  -7.241   4.713  0.00  0.00    -0.286 N 
ATOM      5  C   UNL     1       0.092  -7.576   3.819  0.00  0.00    +0.110 C 
ATOM      6  C   UNL     1       0.110  -6.614   2.627  0.00  0.00    +0.032 C 
ATOM      7  C   UNL     1       2.097  -8.184   5.086  0.00  0.00    +0.302 C 
ATOM      8  O   UNL     1       1.928  -9.342   4.757  0.00  0.00    -0.253 OA
ATOM      9  N   UNL     1       3.172  -7.842   5.823  0.00  0.00    -0.296 N 
ATOM     10  H   UNL     1       3.269  -6.933   6.148  0.00  0.00    +0.151 HD
ENDROOT
BRANCH   1  18
ATOM     11  C   UNL     1      -0.010   1.501   0.004  0.00  0.00    +0.066 C 
ATOM     12  C   UNL     1       0.010  -0.006  -0.004  0.00  0.00    +0.047 A 
ATOM     13  C   UNL     1       0.014  -0.708  -1.163  0.00  0.00    +0.071 A 
ATOM     14  S   UNL     1       0.039  -2.381  -0.539  0.00  0.00    -0.060 S 
ATOM     15  C   UNL     1       0.042  -2.016   1.104  0.00  0.00    +0.165 A 
ATOM     16  N   UNL     1       0.029  -0.701   1.119  0.00  0.00    -0.230 NA
ATOM     17  N   UNL     1       0.058  -2.892   2.183  0.00  0.00    -0.264 N 
ATOM     18  C   UNL     1       0.075  -4.223   1.970  0.00  0.00    +0.222 C 
ATOM     19  O   UNL     1       0.076  -4.656   0.838  0.00  0.00    -0.275 OA
ATOM     20  H   UNL     1       0.057  -2.545   3.089  0.00  0.00    +0.157 HD
ENDBRANCH   1  18
BRANCH   9  21
ATOM     21  C   UNL     1       4.195  -8.844   6.135  0.00  0.00    +0.078 C 
ATOM     22  C   UNL     1       3.776  -9.632   7.378  0.00  0.00    +0.022 C 
ATOM     23  C   UNL     1       3.623  -8.674   8.561  0.00  0.00    +0.002 C 
ATOM     24  C   UNL     1       4.958  -7.975   8.826  0.00  0.00    +0.003 C 
ATOM     25  C   UNL     1       5.377  -7.187   7.583  0.00  0.00    -0.009 C 
ATOM     26  C   UNL     1       5.530  -8.145   6.400  0.00  0.00    +0.009 C 
ATOM     27  C   UNL     1       5.949  -7.357   5.157  0.00  0.00    +0.009 C 
ATOM     28  C   UNL     1       6.712  -6.488   7.849  0.00  0.00    +0.008 C 
ENDBRANCH   9  21
TORSDOF 2
