REMARK  Name = ZINC66270712
REMARK  6 active torsions:
REMARK  status: ('A' for Active; 'I' for Inactive)
REMARK    1  A    between atoms: C_1  and  C_2
REMARK    2  A    between atoms: C_2  and  C_4
REMARK    3  A    between atoms: C_9  and  N_10
REMARK    4  A    between atoms: C_11  and  C_13
REMARK    5  A    between atoms: C_13  and  C_14
REMARK    6  A    between atoms: C_17  and  C_19
REMARK                            x       y       z     vdW  Elec       q    Type
REMARK                         _______ _______ _______ _____ _____    ______ ____
ROOT
ATOM      1  N   UNL     1       0.017  -2.745  -0.194  0.00  0.00    -0.284 N 
ATOM      2  C   UNL     1       0.074  -4.076  -0.398  0.00  0.00    +0.223 C 
ATOM      3  O   UNL     1      -0.946  -4.706  -0.580  0.00  0.00    -0.275 OA
ATOM      4  H   UNL     1       0.835  -2.232  -0.105  0.00  0.00    +0.155 HD
ENDROOT
BRANCH   1  10
ATOM      5  C   UNL     1      -1.439  -1.125   0.874  0.00  0.00    +0.042 A 
ATOM      6  C   UNL     1      -2.684  -0.483   0.947  0.00  0.00    +0.062 A 
ATOM      7  C   UNL     1      -3.685  -0.820   0.061  0.00  0.00    +0.167 A 
ATOM      8  C   UNL     1      -3.462  -1.800  -0.911  0.00  0.00    +0.168 A 
ATOM      9  C   UNL     1      -2.235  -2.439  -0.990  0.00  0.00    +0.073 A 
ATOM     10  C   UNL     1      -1.218  -2.106  -0.109  0.00  0.00    +0.048 A 
ATOM     11  O   UNL     1      -4.599  -1.943  -1.651  0.00  0.00    -0.453 OA
ATOM     12  C   UNL     1      -5.647  -1.342  -0.868  0.00  0.00    +0.466 C 
ATOM     13  O   UNL     1      -4.962  -0.354  -0.076  0.00  0.00    -0.453 OA
BRANCH   5  15
ATOM     14  C   UNL     1      -0.571   0.365   2.785  0.00  0.00    +0.091 C 
ATOM     15  C   UNL     1      -0.373  -0.770   1.813  0.00  0.00    +0.162 C 
ATOM     16  O   UNL     1       0.670  -1.390   1.809  0.00  0.00    -0.292 OA
ENDBRANCH   5  15
ENDBRANCH   1  10
BRANCH   2  17
ATOM     17  C   UNL     1       1.406  -4.781  -0.400  0.00  0.00    +0.152 C 
BRANCH  17  18
ATOM     18  C   UNL     1       1.196  -6.252  -0.648  0.00  0.00    +0.058 A 
ATOM     19  C   UNL     1       1.849  -6.872  -1.669  0.00  0.00    +0.071 A 
ATOM     20  S   UNL     1       1.234  -8.542  -1.488  0.00  0.00    -0.074 S 
ATOM     21  C   UNL     1       0.179  -8.233  -0.077  0.00  0.00    +0.128 A 
ATOM     22  N   UNL     1       0.387  -6.939   0.122  0.00  0.00    -0.242 NA
BRANCH  21  23
ATOM     23  C   UNL     1      -0.688  -9.170   0.668  0.00  0.00    +0.114 A 
ATOM     24  C   UNL     1      -0.754 -10.514   0.294  0.00  0.00    +0.141 A 
ATOM     25  N   UNL     1      -1.529 -11.345   0.963  0.00  0.00    -0.260 NA
ATOM     26  C   UNL     1      -2.243 -10.908   1.987  0.00  0.00    +0.130 A 
ATOM     27  C   UNL     1      -2.181  -9.576   2.362  0.00  0.00    +0.131 A 
ATOM     28  N   UNL     1      -1.405  -8.737   1.703  0.00  0.00    -0.250 NA
ENDBRANCH  21  23
ENDBRANCH  17  18
ENDBRANCH   2  17
TORSDOF 5
