REMARK  Name = ZINC01694610
REMARK  3 active torsions:
REMARK  status: ('A' for Active; 'I' for Inactive)
REMARK    1  A    between atoms: C_1  and  S_2
REMARK    2  A    between atoms: S_2  and  N_5
REMARK    3  A    between atoms: N_5  and  C_6
REMARK                            x       y       z     vdW  Elec       q    Type
REMARK                         _______ _______ _______ _____ _____    ______ ____
ROOT
ATOM      1  C   UNL     1       1.989  -0.009  -1.675  0.00  0.00    +0.048 A 
ATOM      2  C   UNL     1       2.493   1.213  -1.238  0.00  0.00    +0.028 A 
ATOM      3  C   UNL     1       3.798   1.566  -1.505  0.00  0.00    +0.049 A 
ATOM      4  C   UNL     1       4.624   0.709  -2.223  0.00  0.00    +0.140 A 
ATOM      5  C   UNL     1       4.117  -0.519  -2.668  0.00  0.00    +0.027 A 
ATOM      6  C   UNL     1       2.799  -0.874  -2.392  0.00  0.00    +0.036 A 
ATOM      7  C   UNL     1       4.997  -1.426  -3.431  0.00  0.00    -0.000 A 
ATOM      8  C   UNL     1       4.556  -2.657  -3.900  0.00  0.00    +0.009 A 
ATOM      9  C   UNL     1       5.423  -3.467  -4.607  0.00  0.00    +0.001 A 
ATOM     10  C   UNL     1       6.726  -3.062  -4.852  0.00  0.00    +0.001 A 
ATOM     11  C   UNL     1       7.182  -1.843  -4.394  0.00  0.00    +0.015 A 
ATOM     12  C   UNL     1       6.322  -1.012  -3.679  0.00  0.00    +0.067 A 
ATOM     13  C   UNL     1       6.755   0.296  -3.168  0.00  0.00    +0.345 A 
ATOM     14  O   UNL     1       7.893   0.678  -3.368  0.00  0.00    -0.245 OA
ATOM     15  O   UNL     1       5.902   1.072  -2.481  0.00  0.00    -0.422 OA
ENDROOT
BRANCH   1  16
ATOM     16  N   UNL     1       0.665  -0.360  -1.394  0.00  0.00    -0.221 N 
ATOM     17  H   UNL     1      -0.061   0.053  -1.888  0.00  0.00    +0.173 HD
BRANCH  16  19
ATOM     18  C   UNL     1       0.924  -0.727   1.321  0.00  0.00    +0.218 C 
ATOM     19  S   UNL     1       0.336  -1.481  -0.220  0.00  0.00    +0.040 S 
ATOM     20  O   UNL     1       1.141  -2.603  -0.554  0.00  0.00    -0.155 OA
ATOM     21  O   UNL     1      -1.081  -1.585  -0.205  0.00  0.00    -0.155 OA
ENDBRANCH  16  19
ENDBRANCH   1  16
TORSDOF 2
