REMARK  Name = ZINC12803091
REMARK  10 active torsions:
REMARK  status: ('A' for Active; 'I' for Inactive)
REMARK    1  A    between atoms: C_1  and  C_2
REMARK    2  A    between atoms: C_3  and  C_14
REMARK    3  A    between atoms: C_4  and  C_13
REMARK    4  A    between atoms: N_5  and  C_7
REMARK    5  A    between atoms: C_14  and  N_15
REMARK    6  A    between atoms: C_16  and  C_18
REMARK    7  A    between atoms: C_23  and  S_24
REMARK    8  A    between atoms: S_24  and  C_25
REMARK    9  A    between atoms: C_25  and  C_26
REMARK   10  A    between atoms: C_26  and  C_33
REMARK                            x       y       z     vdW  Elec       q    Type
REMARK                         _______ _______ _______ _____ _____    ______ ____
ROOT
ATOM      1  N   UNL     1      -7.173   5.082  -2.281  0.00  0.00    -0.307 N 
ATOM      2  C   UNL     1      -6.006   4.505  -1.932  0.00  0.00    +0.245 C 
ATOM      3  O   UNL     1      -5.516   4.735  -0.843  0.00  0.00    -0.270 OA
ATOM      4  H   UNL     1      -7.564   4.899  -3.150  0.00  0.00    +0.149 HD
ENDROOT
BRANCH   2   5
ATOM      5  C   UNL     1      -5.324   3.595  -2.869  0.00  0.00    +0.050 A 
ATOM      6  C   UNL     1      -5.880   3.332  -4.124  0.00  0.00    +0.014 A 
ATOM      7  C   UNL     1      -5.241   2.476  -4.993  0.00  0.00    +0.001 A 
ATOM      8  C   UNL     1      -4.044   1.877  -4.633  0.00  0.00    +0.001 A 
ATOM      9  C   UNL     1      -3.478   2.130  -3.401  0.00  0.00    +0.015 A 
ATOM     10  C   UNL     1      -4.108   2.991  -2.510  0.00  0.00    +0.020 A 
BRANCH  10  11
ATOM     11  S   UNL     1      -3.389   3.317  -0.935  0.00  0.00    -0.122 S 
BRANCH  11  12
ATOM     12  C   UNL     1      -1.869   2.327  -0.933  0.00  0.00    +0.109 C 
BRANCH  12  13
ATOM     13  C   UNL     1      -1.136   2.520   0.396  0.00  0.00    +0.119 C 
ATOM     14  C   UNL     1       0.141   1.703   0.424  0.00  0.00    +0.244 C 
ATOM     15  O   UNL     1       0.240   0.497   0.344  0.00  0.00    -0.273 OA
ATOM     16  N   UNL     1       1.142   2.595   0.553  0.00  0.00    -0.238 N 
ATOM     17  C   UNL     1       0.681   3.850   0.613  0.00  0.00    +0.307 C 
ATOM     18  O   UNL     1       1.394   4.827   0.729  0.00  0.00    -0.252 OA
ATOM     19  N   UNL     1      -0.661   3.908   0.531  0.00  0.00    -0.285 N 
ATOM     20  C   UNL     1      -2.041   2.147   1.571  0.00  0.00    +0.042 C 
ATOM     21  H   UNL     1       2.082   2.358   0.596  0.00  0.00    +0.159 HD
ATOM     22  H   UNL     1      -1.208   4.709   0.553  0.00  0.00    +0.151 HD
ENDBRANCH  12  13
ENDBRANCH  11  12
ENDBRANCH  10  11
ENDBRANCH   2   5
BRANCH   1  23
ATOM     23  C   UNL     1      -7.851   5.986  -1.349  0.00  0.00    +0.143 C 
BRANCH  23  26
ATOM     24  C   UNL     1     -10.704   4.626  -1.129  0.00  0.00    +0.068 C 
ATOM     25  C   UNL     1     -10.384   5.893  -1.880  0.00  0.00    +0.065 A 
ATOM     26  C   UNL     1      -9.124   6.492  -1.977  0.00  0.00    +0.013 A 
ATOM     27  C   UNL     1      -9.251   7.610  -2.728  0.00  0.00    +0.047 A 
ATOM     28  N   UNL     1     -10.547   7.710  -3.102  0.00  0.00    -0.236 N 
ATOM     29  N   UNL     1     -11.238   6.622  -2.553  0.00  0.00    -0.171 NA
ATOM     30  C   UNL     1      -8.146   8.570  -3.088  0.00  0.00    +0.066 C 
BRANCH  28  31
ATOM     31  C   UNL     1     -11.102   8.726  -3.893  0.00  0.00    +0.066 A 
ATOM     32  C   UNL     1     -12.338   9.267  -3.564  0.00  0.00    +0.028 A 
ATOM     33  C   UNL     1     -12.879  10.271  -4.342  0.00  0.00    +0.002 A 
ATOM     34  C   UNL     1     -12.198  10.729  -5.455  0.00  0.00    +0.000 A 
ATOM     35  C   UNL     1     -10.969  10.189  -5.788  0.00  0.00    +0.002 A 
ATOM     36  C   UNL     1     -10.420   9.188  -5.010  0.00  0.00    +0.028 A 
ENDBRANCH  28  31
ENDBRANCH  23  26
ENDBRANCH   1  23
TORSDOF 7
