REMARK  Name = ZINC13049347
REMARK  12 active torsions:
REMARK  status: ('A' for Active; 'I' for Inactive)
REMARK    1  A    between atoms: C_1  and  C_2
REMARK    2  A    between atoms: C_7  and  C_8
REMARK    3  A    between atoms: C_8  and  C_10
REMARK    4  A    between atoms: C_8  and  N_11
REMARK    5  A    between atoms: C_12  and  C_14
REMARK    6  A    between atoms: C_14  and  S_15
REMARK    7  A    between atoms: S_15  and  C_16
REMARK    8  A    between atoms: C_20  and  C_31
REMARK    9  A    between atoms: N_26  and  C_27
REMARK   10  A    between atoms: C_27  and  C_28
REMARK   11  A    between atoms: C_28  and  C_29
REMARK   12  A    between atoms: C_28  and  C_30
REMARK                            x       y       z     vdW  Elec       q    Type
REMARK                         _______ _______ _______ _____ _____    ______ ____
ROOT
ATOM      1  C   UNL     1       1.611  -2.721  -0.752  0.00  0.00    +0.173 A 
ATOM      2  N   UNL     1       1.598  -4.031  -0.770  0.00  0.00    -0.223 NA
ATOM      3  C   UNL     1       0.605  -4.722  -1.378  0.00  0.00    +0.080 A 
ATOM      4  C   UNL     1       0.596  -6.119  -1.401  0.00  0.00    +0.043 A 
ATOM      5  C   UNL     1      -0.444  -6.785  -2.036  0.00  0.00    +0.065 A 
ATOM      6  C   UNL     1      -1.478  -6.066  -2.650  0.00  0.00    +0.016 A 
ATOM      7  C   UNL     1      -1.479  -4.701  -2.635  0.00  0.00    +0.016 A 
ATOM      8  C   UNL     1      -0.445  -4.012  -2.003  0.00  0.00    +0.065 A 
ATOM      9  C   UNL     1      -0.408  -2.541  -1.962  0.00  0.00    +0.262 A 
ATOM     10  O   UNL     1      -1.283  -1.874  -2.482  0.00  0.00    -0.267 OA
ATOM     11  N   UNL     1       0.634  -1.958  -1.325  0.00  0.00    -0.287 N 
ENDROOT
BRANCH   5  12
ATOM     12  C   UNL     1      -0.461  -8.264  -2.064  0.00  0.00    +0.387 C 
ATOM     13  O   UNL     1       0.433  -8.892  -1.533  0.00  0.00    -0.241 OA
ATOM     14  O   UNL     1      -1.467  -8.915  -2.679  0.00  0.00    -0.241 OA
ENDBRANCH   5  12
BRANCH   1  15
ATOM     15  S   UNL     1       2.947  -1.905   0.056  0.00  0.00    -0.078 S 
BRANCH  15  16
ATOM     16  C   UNL     1       3.903  -3.339   0.609  0.00  0.00    +0.173 C 
BRANCH  16  18
ATOM     17  N   UNL     1       5.997  -3.770   1.854  0.00  0.00    -0.308 N 
ATOM     18  C   UNL     1       5.130  -2.870   1.348  0.00  0.00    +0.224 C 
ATOM     19  O   UNL     1       5.338  -1.684   1.487  0.00  0.00    -0.275 OA
ATOM     20  H   UNL     1       5.831  -4.719   1.742  0.00  0.00    +0.149 HD
BRANCH  17  21
ATOM     21  C   UNL     1       7.190  -3.315   2.572  0.00  0.00    +0.100 C 
ATOM     22  C   UNL     1       8.307  -3.021   1.569  0.00  0.00    +0.033 C 
BRANCH  21  29
ATOM     23  C   UNL     1       8.738  -2.612   4.908  0.00  0.00    +0.044 C 
ATOM     24  C   UNL     1       8.382  -4.053   4.645  0.00  0.00    -0.046 A 
ATOM     25  C   UNL     1       8.793  -5.038   5.524  0.00  0.00    +0.004 A 
ATOM     26  C   UNL     1       8.471  -6.359   5.280  0.00  0.00    +0.000 A 
ATOM     27  C   UNL     1       7.734  -6.696   4.160  0.00  0.00    +0.000 A 
ATOM     28  C   UNL     1       7.320  -5.711   3.283  0.00  0.00    +0.006 A 
ATOM     29  C   UNL     1       7.641  -4.389   3.527  0.00  0.00    -0.025 A 
ENDBRANCH  21  29
ENDBRANCH  17  21
ENDBRANCH  16  18
ENDBRANCH  15  16
ENDBRANCH   1  15
BRANCH  11  30
ATOM     30  C   UNL     1       0.718  -0.497  -1.257  0.00  0.00    +0.130 C 
BRANCH  30  31
ATOM     31  C   UNL     1       0.002  -0.004   0.002  0.00  0.00    +0.003 C 
ATOM     32  C   UNL     1      -0.019   1.526   0.010  0.00  0.00    +0.009 C 
ATOM     33  C   UNL     1       0.742  -0.511   1.242  0.00  0.00    +0.009 C 
ENDBRANCH  30  31
ENDBRANCH  11  30
TORSDOF 8
