REMARK  Name = ZINC66557378
REMARK  5 active torsions:
REMARK  status: ('A' for Active; 'I' for Inactive)
REMARK    1  A    between atoms: C_1  and  C_2
REMARK    2  A    between atoms: C_6  and  C_7
REMARK    3  A    between atoms: N_9  and  N_10
REMARK    4  A    between atoms: C_11  and  C_13
REMARK    5  A    between atoms: N_16  and  C_18
REMARK                            x       y       z     vdW  Elec       q    Type
REMARK                         _______ _______ _______ _____ _____    ______ ____
ROOT
ATOM      1  N   UNL     1       0.058  -0.732   4.900  0.00  0.00    -0.229 N 
ATOM      2  C   UNL     1       0.080  -1.625   5.909  0.00  0.00    +0.281 C 
ATOM      3  O   UNL     1       0.094  -2.816   5.666  0.00  0.00    -0.267 OA
ATOM      4  H   UNL     1       0.047   0.219   5.094  0.00  0.00    +0.173 HD
ENDROOT
BRANCH   2   5
ATOM      5  C   UNL     1       0.087  -1.157   7.310  0.00  0.00    +0.152 A 
ATOM      6  C   UNL     1       0.115  -1.968   8.468  0.00  0.00    +0.006 A 
ATOM      7  C   UNL     1       0.111  -1.115   9.515  0.00  0.00    +0.049 A 
ATOM      8  N   UNL     1       0.083   0.145   9.001  0.00  0.00    -0.236 N 
ATOM      9  N   UNL     1       0.074   0.098   7.717  0.00  0.00    -0.161 NA
ATOM     10  C   UNL     1       0.141  -1.886  10.815  0.00  0.00    +0.056 C 
ATOM     11  C   UNL     1      -0.270  -3.326  10.437  0.00  0.00    +0.011 C 
ATOM     12  C   UNL     1       0.145  -3.398   8.950  0.00  0.00    +0.040 C 
BRANCH   8  13
ATOM     13  C   UNL     1       0.070   1.321   9.762  0.00  0.00    +0.066 A 
ATOM     14  C   UNL     1      -0.601   1.358  10.976  0.00  0.00    +0.028 A 
ATOM     15  C   UNL     1      -0.612   2.519  11.724  0.00  0.00    +0.002 A 
ATOM     16  C   UNL     1       0.046   3.645  11.264  0.00  0.00    +0.000 A 
ATOM     17  C   UNL     1       0.715   3.612  10.054  0.00  0.00    +0.002 A 
ATOM     18  C   UNL     1       0.734   2.452   9.305  0.00  0.00    +0.028 A 
ENDBRANCH   8  13
ENDBRANCH   2   5
BRANCH   1  21
ATOM     19  C   UNL     1       0.030  -0.283   2.562  0.00  0.00    +0.267 C 
ATOM     20  O   UNL     1       0.016   0.910   2.805  0.00  0.00    -0.268 OA
ATOM     21  N   UNL     1       0.052  -1.176   3.571  0.00  0.00    -0.230 N 
ATOM     22  H   UNL     1       0.063  -2.126   3.378  0.00  0.00    +0.173 HD
BRANCH  19  28
ATOM     23  C   UNL     1      -0.018   1.503   0.010  0.00  0.00    +0.045 C 
ATOM     24  C   UNL     1       0.002  -0.004   0.002  0.00  0.00    -0.031 A 
ATOM     25  C   UNL     1       0.007  -0.729  -1.166  0.00  0.00    +0.011 A 
ATOM     26  C   UNL     1       0.026  -2.083  -1.101  0.00  0.00    +0.046 A 
ATOM     27  S   UNL     1       0.038  -2.416   0.545  0.00  0.00    -0.092 S 
ATOM     28  C   UNL     1       0.023  -0.748   1.172  0.00  0.00    +0.078 A 
ENDBRANCH  19  28
ENDBRANCH   1  21
TORSDOF 4
