REMARK  Name = ZINC28825882
REMARK  6 active torsions:
REMARK  status: ('A' for Active; 'I' for Inactive)
REMARK    1  A    between atoms: C_1  and  N_2
REMARK    2  A    between atoms: N_2  and  C_3
REMARK    3  A    between atoms: N_2  and  C_4
REMARK    4  A    between atoms: C_4  and  C_5
REMARK    5  A    between atoms: C_5  and  N_6
REMARK    6  A    between atoms: C_20  and  C_23
REMARK                            x       y       z     vdW  Elec       q    Type
REMARK                         _______ _______ _______ _____ _____    ______ ____
ROOT
ATOM      1  N   UNL     1       2.845  -0.526  -2.362  0.00  0.00    -0.236 N 
ATOM      2  C   UNL     1       3.412  -1.745  -2.339  0.00  0.00    +0.254 C 
ATOM      3  O   UNL     1       3.345  -2.419  -1.329  0.00  0.00    -0.270 OA
ATOM      4  C   UNL     1       4.113  -2.273  -3.517  0.00  0.00    +0.046 A 
ATOM      5  C   UNL     1       4.711  -3.527  -3.530  0.00  0.00    +0.014 A 
ATOM      6  C   UNL     1       5.361  -3.976  -4.670  0.00  0.00    +0.001 A 
ATOM      7  C   UNL     1       5.431  -3.202  -5.810  0.00  0.00    +0.011 A 
ATOM      8  C   UNL     1       4.840  -1.936  -5.830  0.00  0.00    +0.011 A 
ATOM      9  C   UNL     1       4.179  -1.473  -4.678  0.00  0.00    +0.009 A 
ATOM     10  C   UNL     1       3.551  -0.153  -4.669  0.00  0.00    +0.048 A 
ATOM     11  C   UNL     1       3.610   0.639  -5.804  0.00  0.00    +0.041 A 
ATOM     12  C   UNL     1       4.259   0.194  -6.953  0.00  0.00    +0.068 A 
ATOM     13  C   UNL     1       4.879  -1.065  -7.007  0.00  0.00    +0.097 A 
ATOM     14  N   UNL     1       5.412  -1.201  -8.229  0.00  0.00    -0.226 NA
ATOM     15  C   UNL     1       5.174  -0.122  -8.940  0.00  0.00    +0.158 A 
ATOM     16  N   UNL     1       4.461   0.770  -8.194  0.00  0.00    -0.337 N 
ATOM     17  H   UNL     1       4.156   1.646  -8.479  0.00  0.00    +0.167 HD
ATOM     18  C   UNL     1       2.870   0.279  -3.441  0.00  0.00    +0.254 C 
ATOM     19  O   UNL     1       2.332   1.369  -3.397  0.00  0.00    -0.270 OA
ENDROOT
BRANCH  15  20
ATOM     20  C   UNL     1       5.609   0.091 -10.338  0.00  0.00    +0.106 A 
ATOM     21  C   UNL     1       6.327  -0.906 -10.998  0.00  0.00    +0.031 A 
ATOM     22  C   UNL     1       6.728  -0.692 -12.306  0.00  0.00    +0.004 A 
ATOM     23  C   UNL     1       6.398   0.512 -12.911  0.00  0.00    +0.020 A 
ATOM     24  C   UNL     1       5.683   1.458 -12.196  0.00  0.00    +0.111 A 
ATOM     25  N   UNL     1       5.309   1.227 -10.955  0.00  0.00    -0.252 NA
ENDBRANCH  15  20
BRANCH   1  26
ATOM     26  C   UNL     1       2.159  -0.053  -1.157  0.00  0.00    +0.098 C 
BRANCH  26  27
ATOM     27  C   UNL     1       0.690  -0.478  -1.207  0.00  0.00    -0.060 C 
BRANCH  27  29
ATOM     28  C   UNL     1      -0.018   1.465   0.010  0.00  0.00    -0.097 C 
ATOM     29  N   UNL     1       0.002  -0.004   0.002  0.00  0.00    +0.377 N 
ATOM     30  C   UNL     1      -1.376  -0.512   0.012  0.00  0.00    -0.097 C 
ATOM     31  H   UNL     1       0.490  -0.338   0.820  0.00  0.00    -0.083 HD
ENDBRANCH  27  29
ENDBRANCH  26  27
ENDBRANCH   1  26
TORSDOF 4
