REMARK  Name = ZINC36032611
REMARK  6 active torsions:
REMARK  status: ('A' for Active; 'I' for Inactive)
REMARK    1  A    between atoms: C_1  and  C_2
REMARK    2  A    between atoms: C_2  and  C_3
REMARK    3  A    between atoms: C_2  and  C_4
REMARK    4  A    between atoms: C_4  and  C_5
REMARK    5  A    between atoms: N_9  and  C_28
REMARK    6  A    between atoms: C_17  and  C_19
REMARK                            x       y       z     vdW  Elec       q    Type
REMARK                         _______ _______ _______ _____ _____    ______ ____
ROOT
ATOM      1  C   UNL     1       2.138   0.160  -0.712  0.00  0.00    +0.019 C 
ATOM      2  C   UNL     1       2.880  -0.553  -1.822  0.00  0.00    +0.201 C 
ATOM      3  O   UNL     1       2.800  -1.735  -2.083  0.00  0.00    -0.277 OA
ATOM      4  N   UNL     1       3.643   0.348  -2.474  0.00  0.00    -0.311 N 
ATOM      5  C   UNL     1       3.473   1.668  -1.861  0.00  0.00    +0.006 C 
ATOM      6  N   UNL     1       2.236   1.600  -1.052  0.00  0.00    +0.401 N 
ATOM      7  C   UNL     1       3.327   2.738  -2.941  0.00  0.00    +0.025 C 
ATOM      8  C   UNL     1       4.599   2.776  -3.795  0.00  0.00    +0.108 C 
ATOM      9  N   UNL     1       5.757   2.954  -2.909  0.00  0.00    -0.298 N 
ATOM     10  C   UNL     1       5.945   2.018  -1.792  0.00  0.00    +0.108 C 
ATOM     11  C   UNL     1       4.662   1.987  -0.955  0.00  0.00    +0.025 C 
ATOM     12  C   UNL     1       6.633   3.958  -3.117  0.00  0.00    +0.247 C 
ATOM     13  O   UNL     1       6.415   4.784  -3.982  0.00  0.00    -0.270 OA
ATOM     14  H   UNL     1       1.438   1.892  -1.597  0.00  0.00    -0.082 HD
ATOM     15  H   UNL     1       2.323   2.158  -0.216  0.00  0.00    -0.082 HD
ENDROOT
BRANCH  12  16
ATOM     16  C   UNL     1       7.855   4.054  -2.295  0.00  0.00    +0.041 A 
ATOM     17  C   UNL     1       8.570   2.900  -1.967  0.00  0.00    +0.017 A 
ATOM     18  C   UNL     1       9.711   2.992  -1.200  0.00  0.00    +0.050 A 
ATOM     19  C   UNL     1      10.154   4.229  -0.751  0.00  0.00    +0.166 A 
ATOM     20  C   UNL     1       9.443   5.385  -1.075  0.00  0.00    +0.167 A 
ATOM     21  C   UNL     1       8.302   5.300  -1.848  0.00  0.00    +0.062 A 
ATOM     22  O   UNL     1      10.079   6.457  -0.518  0.00  0.00    -0.453 OA
ATOM     23  C   UNL     1      10.951   5.907   0.487  0.00  0.00    +0.466 C 
ATOM     24  O   UNL     1      11.233   4.579   0.006  0.00  0.00    -0.453 OA
ENDBRANCH  12  16
BRANCH   4  25
ATOM     25  C   UNL     1       4.509   0.053  -3.618  0.00  0.00    +0.075 C 
ATOM     26  C   UNL     1       4.608  -1.405  -4.072  0.00  0.00    +0.024 C 
ATOM     27  C   UNL     1       3.836  -0.391  -4.918  0.00  0.00    +0.024 C 
ENDBRANCH   4  25
BRANCH   1  28
ATOM     28  C   UNL     1       0.674  -0.282  -0.680  0.00  0.00    -0.004 C 
BRANCH  28  30
ATOM     29  C   UNL     1      -1.554   0.138   0.369  0.00  0.00    +0.007 C 
ATOM     30  C   UNL     1      -0.062   0.472   0.429  0.00  0.00    -0.018 C 
ATOM     31  C   UNL     1       0.500   0.056   1.789  0.00  0.00    +0.007 C 
ENDBRANCH  28  30
ENDBRANCH   1  28
TORSDOF 4
