REMARK  Name = ZINC39454077
REMARK  3 active torsions:
REMARK  status: ('A' for Active; 'I' for Inactive)
REMARK    1  A    between atoms: C_1  and  O_2
REMARK    2  A    between atoms: O_2  and  C_3
REMARK    3  A    between atoms: N_15  and  C_18
REMARK                            x       y       z     vdW  Elec       q    Type
REMARK                         _______ _______ _______ _____ _____    ______ ____
ROOT
ATOM      1  C   UNL     1       0.605  -0.606  -1.054  0.00  0.00    +0.129 A 
ATOM      2  C   UNL     1       1.171   0.149  -2.058  0.00  0.00    +0.046 A 
ATOM      3  C   UNL     1       1.794  -0.448  -3.148  0.00  0.00    +0.006 A 
ATOM      4  C   UNL     1       1.875  -1.801  -3.277  0.00  0.00    +0.028 A 
ATOM      5  C   UNL     1       1.318  -2.634  -2.291  0.00  0.00    +0.075 A 
ATOM      6  C   UNL     1       0.665  -2.013  -1.135  0.00  0.00    +0.043 A 
ATOM      7  C   UNL     1       0.115  -2.835  -0.143  0.00  0.00    +0.029 A 
ATOM      8  C   UNL     1       0.221  -4.209  -0.309  0.00  0.00    +0.068 A 
ATOM      9  C   UNL     1       0.870  -4.744  -1.453  0.00  0.00    +0.100 A 
ATOM     10  N   UNL     1       1.378  -3.962  -2.388  0.00  0.00    -0.244 NA
ATOM     11  C   UNL     1       0.950  -6.210  -1.579  0.00  0.00    +0.082 A 
ATOM     12  C   UNL     1       0.407  -7.015  -0.598  0.00  0.00    +0.115 A 
ATOM     13  N   UNL     1      -0.224  -6.463   0.513  0.00  0.00    -0.268 N 
ATOM     14  C   UNL     1      -0.333  -5.135   0.690  0.00  0.00    +0.266 A 
ATOM     15  O   UNL     1      -0.891  -4.698   1.679  0.00  0.00    -0.267 OA
ATOM     16  C   UNL     1       0.492  -8.421  -0.716  0.00  0.00    +0.184 C 
ATOM     17  O   UNL     1      -0.030  -9.128   0.123  0.00  0.00    -0.290 OA
ATOM     18  C   UNL     1       1.223  -9.052  -1.872  0.00  0.00    +0.115 C 
ATOM     19  C   UNL     1       1.139  -8.127  -3.091  0.00  0.00    +0.146 C 
ATOM     20  N   UNL     1       1.562  -6.780  -2.678  0.00  0.00    -0.328 N 
ATOM     21 BR   UNL     1      -0.712  -8.068  -3.751  0.00  0.00    -0.067 Br
ATOM     22  H   UNL     1       2.254  -6.305  -3.164  0.00  0.00    +0.147 HD
ENDROOT
BRANCH  13  23
ATOM     23  C   UNL     1      -0.762  -7.321   1.480  0.00  0.00    +0.097 A 
ATOM     24  C   UNL     1       0.014  -7.735   2.554  0.00  0.00    +0.030 A 
ATOM     25  C   UNL     1      -0.520  -8.581   3.507  0.00  0.00    +0.002 A 
ATOM     26  C   UNL     1      -1.828  -9.017   3.394  0.00  0.00    +0.004 A 
ATOM     27  C   UNL     1      -2.607  -8.610   2.328  0.00  0.00    +0.053 A 
ATOM     28  C   UNL     1      -2.082  -7.757   1.371  0.00  0.00    +0.203 A 
ATOM     29  O   UNL     1      -2.849  -7.350   0.325  0.00  0.00    -0.286 OA
ENDBRANCH  13  23
BRANCH   1  31
ATOM     30  C   UNL     1      -0.017   1.425   0.010  0.00  0.00    +0.277 C 
ATOM     31  O   UNL     1       0.002  -0.004   0.002  0.00  0.00    -0.494 OA
ENDBRANCH   1  31
TORSDOF 2
