REMARK  Name = ZINC21799438
REMARK  9 active torsions:
REMARK  status: ('A' for Active; 'I' for Inactive)
REMARK    1  A    between atoms: C_1  and  C_2
REMARK    2  A    between atoms: C_2  and  C_3
REMARK    3  A    between atoms: C_3  and  C_5
REMARK    4  A    between atoms: C_3  and  N_6
REMARK    5  A    between atoms: N_6  and  C_7
REMARK    6  A    between atoms: C_9  and  C_27
REMARK    7  A    between atoms: C_14  and  C_23
REMARK    8  A    between atoms: C_15  and  C_16
REMARK    9  A    between atoms: C_19  and  C_22
REMARK                            x       y       z     vdW  Elec       q    Type
REMARK                         _______ _______ _______ _____ _____    ______ ____
ROOT
ATOM      1  C   UNL     1      -2.728   2.229   2.366  0.00  0.00    +0.124 A 
ATOM      2  C   UNL     1      -2.095   1.790   1.222  0.00  0.00    +0.066 A 
ATOM      3  C   UNL     1      -0.718   1.572   1.248  0.00  0.00    +0.044 A 
ATOM      4  N   UNL     1      -0.031   1.793   2.348  0.00  0.00    -0.232 NA
ATOM      5  C   UNL     1      -0.629   2.225   3.463  0.00  0.00    +0.166 A 
ATOM      6  N   UNL     1      -1.980   2.449   3.493  0.00  0.00    -0.200 N 
ATOM      7  N   UNL     1      -2.316   2.890   4.777  0.00  0.00    -0.159 NA
ATOM      8  C   UNL     1      -1.234   2.939   5.514  0.00  0.00    +0.175 A 
ATOM      9  C   UNL     1      -0.141   2.531   4.740  0.00  0.00    +0.058 A 
ATOM     10  C   UNL     1      -0.013   1.086   0.008  0.00  0.00    +0.066 C 
ENDROOT
BRANCH   9  11
ATOM     11  C   UNL     1       1.268   2.440   5.188  0.00  0.00    -0.012 A 
ATOM     12  C   UNL     1       1.903   1.200   5.253  0.00  0.00    +0.009 A 
ATOM     13  C   UNL     1       3.217   1.122   5.665  0.00  0.00    +0.004 A 
ATOM     14  C   UNL     1       3.902   2.270   6.024  0.00  0.00    -0.050 A 
ATOM     15  C   UNL     1       3.275   3.502   5.967  0.00  0.00    +0.004 A 
ATOM     16  C   UNL     1       1.963   3.594   5.551  0.00  0.00    +0.009 A 
ATOM     17  C   UNL     1       5.335   2.177   6.481  0.00  0.00    +0.044 C 
ENDBRANCH   9  11
BRANCH   8  18
ATOM     18  C   UNL     1      -1.176   3.364   6.958  0.00  0.00    +0.437 C 
ATOM     19  F   UNL     1      -2.473   3.591   7.431  0.00  0.00    -0.164 F 
ATOM     20  F   UNL     1      -0.574   2.354   7.718  0.00  0.00    -0.164 F 
ATOM     21  F   UNL     1      -0.426   4.540   7.069  0.00  0.00    -0.164 F 
ENDBRANCH   8  18
BRANCH   1  22
ATOM     22  N   UNL     1      -4.088   2.449   2.374  0.00  0.00    -0.326 N 
ATOM     23  H   UNL     1      -4.583   2.804   3.291  0.00  0.00    +0.148 HD
BRANCH  22  24
ATOM     24  C   UNL     1      -4.876   2.210   1.162  0.00  0.00    +0.068 C 
ATOM     25  C   UNL     1      -4.829   3.452   0.270  0.00  0.00    +0.028 C 
BRANCH  24  27
ATOM     26  C   UNL     1      -6.388   0.603   2.335  0.00  0.00    +0.005 C 
ATOM     27  C   UNL     1      -6.327   1.913   1.548  0.00  0.00    +0.018 C 
ENDBRANCH  24  27
ENDBRANCH  22  24
ENDBRANCH   1  22
TORSDOF 5
