REMARK  Name = ZINC22458676
REMARK  4 active torsions:
REMARK  status: ('A' for Active; 'I' for Inactive)
REMARK    1  A    between atoms: C_1  and  C_2
REMARK    2  A    between atoms: C_2  and  C_26
REMARK    3  A    between atoms: N_5  and  C_9
REMARK    4  A    between atoms: C_9  and  C_10
REMARK                            x       y       z     vdW  Elec       q    Type
REMARK                         _______ _______ _______ _____ _____    ______ ____
ROOT
ATOM      1  C   UNL     1       1.720   3.289   0.002  0.00  0.00    +0.214 C 
ENDROOT
BRANCH   1   2
ATOM      2  C   UNL     1       1.886   3.761   1.424  0.00  0.00    +0.237 C 
ATOM      3  O   UNL     1       1.655   3.006   2.344  0.00  0.00    -0.274 OA
ATOM      4  N   UNL     1       2.291   5.022   1.672  0.00  0.00    -0.263 N 
ATOM      5  C   UNL     1       2.444   5.456   2.980  0.00  0.00    +0.166 A 
ATOM      6  N   UNL     1       2.825   6.635   3.421  0.00  0.00    -0.224 NA
ATOM      7  C   UNL     1       2.930   6.919   4.726  0.00  0.00    +0.088 A 
ATOM      8  C   UNL     1       3.341   8.188   5.359  0.00  0.00    +0.009 A 
ATOM      9  C   UNL     1       3.687   9.293   4.572  0.00  0.00    +0.010 A 
ATOM     10  C   UNL     1       4.065  10.457   5.175  0.00  0.00    +0.001 A 
ATOM     11  C   UNL     1       4.111  10.558   6.562  0.00  0.00    +0.001 A 
ATOM     12  C   UNL     1       3.780   9.501   7.355  0.00  0.00    +0.008 A 
ATOM     13  C   UNL     1       3.387   8.286   6.766  0.00  0.00    -0.016 A 
ATOM     14  C   UNL     1       3.042   7.180   7.569  0.00  0.00    +0.010 A 
ATOM     15  C   UNL     1       2.663   6.011   6.988  0.00  0.00    +0.018 A 
ATOM     16  C   UNL     1       2.606   5.877   5.613  0.00  0.00    +0.041 A 
ATOM     17  S   UNL     1       2.166   4.561   4.502  0.00  0.00    -0.052 S 
ATOM     18  H   UNL     1       2.501   5.707   0.837  0.00  0.00    +0.157 HD
ENDBRANCH   1   2
BRANCH   1  23
ATOM     19  C   UNL     1      -0.686  -0.545  -1.253  0.00  0.00    +0.047 C 
ATOM     20  C   UNL     1       0.002  -0.004   0.002  0.00  0.00    +0.135 C 
ATOM     21  C   UNL     1      -0.018   1.512   0.010  0.00  0.00    +0.251 C 
ATOM     22  O   UNL     1      -0.995   2.231   0.019  0.00  0.00    -0.272 OA
ATOM     23  N   UNL     1       1.274   1.894   0.000  0.00  0.00    -0.215 N 
ATOM     24  C   UNL     1       2.099   0.841  -0.013  0.00  0.00    +0.310 C 
ATOM     25  O   UNL     1       3.311   0.933  -0.025  0.00  0.00    -0.252 OA
ATOM     26  N   UNL     1       1.438  -0.331  -0.013  0.00  0.00    -0.281 N 
ATOM     27  H   UNL     1       1.763  -1.382  -0.022  0.00  0.00    +0.152 HD
BRANCH  20  28
ATOM     28  C   UNL     1      -0.652  -0.550   1.245  0.00  0.00    -0.015 A 
ATOM     29  C   UNL     1      -1.662   0.163   1.864  0.00  0.00    +0.009 A 
ATOM     30  C   UNL     1      -2.266  -0.339   3.001  0.00  0.00    +0.039 A 
ATOM     31  C   UNL     1      -1.853  -1.552   3.526  0.00  0.00    +0.123 A 
ATOM     32  C   UNL     1      -0.839  -2.263   2.908  0.00  0.00    +0.039 A 
ATOM     33  C   UNL     1      -0.239  -1.761   1.768  0.00  0.00    +0.009 A 
ATOM     34  F   UNL     1      -2.440  -2.041   4.640  0.00  0.00    -0.205 F 
ENDBRANCH  20  28
ENDBRANCH   1  23
TORSDOF 3
