REMARK  Name = ZINC39447388
REMARK  7 active torsions:
REMARK  status: ('A' for Active; 'I' for Inactive)
REMARK    1  A    between atoms: C_1  and  C_2
REMARK    2  A    between atoms: C_4  and  C_8
REMARK    3  A    between atoms: C_8  and  N_9
REMARK    4  A    between atoms: N_9  and  C_10
REMARK    5  A    between atoms: C_11  and  C_13
REMARK    6  A    between atoms: C_13  and  C_14
REMARK    7  A    between atoms: N_21  and  C_22
REMARK                            x       y       z     vdW  Elec       q    Type
REMARK                         _______ _______ _______ _____ _____    ______ ____
ROOT
ATOM      1  C   UNL     1       2.966  -2.361   4.572  0.00  0.00    +0.028 C 
ATOM      2  C   UNL     1       3.332  -1.880   5.948  0.00  0.00    +0.200 C 
ATOM      3  O   UNL     1       2.520  -1.999   6.841  0.00  0.00    -0.278 OA
ATOM      4  N   UNL     1       4.517  -1.326   6.228  0.00  0.00    -0.318 N 
ATOM      5  C   UNL     1       5.547  -1.116   5.214  0.00  0.00    +0.085 C 
ATOM      6  C   UNL     1       5.254  -1.981   3.987  0.00  0.00    -0.058 C 
ATOM      7  N   UNL     1       3.860  -1.758   3.575  0.00  0.00    +0.391 N 
ATOM      8  H   UNL     1       4.699  -1.052   7.141  0.00  0.00    +0.149 HD
ATOM      9  H   UNL     1       3.678  -0.767   3.514  0.00  0.00    -0.080 HD
ENDROOT
BRANCH   7  10
ATOM     10  C   UNL     1       3.630  -2.385   2.267  0.00  0.00    -0.059 C 
ATOM     11  C   UNL     1       4.593  -1.810   1.206  0.00  0.00    +0.020 C 
ATOM     12  C   UNL     1       3.792  -1.773  -0.078  0.00  0.00    -0.046 A 
ATOM     13  C   UNL     1       4.210  -1.657  -1.393  0.00  0.00    +0.004 A 
ATOM     14  C   UNL     1       3.284  -1.646  -2.418  0.00  0.00    +0.000 A 
ATOM     15  C   UNL     1       1.936  -1.750  -2.131  0.00  0.00    +0.000 A 
ATOM     16  C   UNL     1       1.517  -1.866  -0.820  0.00  0.00    +0.004 A 
ATOM     17  C   UNL     1       2.444  -1.878   0.209  0.00  0.00    -0.046 A 
ATOM     18  C   UNL     1       2.247  -1.992   1.706  0.00  0.00    +0.020 C 
ENDBRANCH   7  10
BRANCH   1  19
ATOM     19  C   UNL     1       1.521  -1.964   4.264  0.00  0.00    +0.090 C 
BRANCH  19  22
ATOM     20  N   UNL     1       0.260   0.118   3.825  0.00  0.00    -0.301 N 
ATOM     21  C   UNL     1      -0.917  -0.708   3.542  0.00  0.00    +0.132 C 
ATOM     22  C   UNL     1       1.411  -0.462   4.220  0.00  0.00    +0.214 C 
ATOM     23  O   UNL     1       2.357   0.225   4.540  0.00  0.00    -0.276 OA
BRANCH  20  24
ATOM     24  C   UNL     1       0.186   1.574   3.679  0.00  0.00    +0.158 C 
BRANCH  24  28
ATOM     25  C   UNL     1      -2.513   0.563   7.359  0.00  0.00    +0.067 C 
ATOM     26  C   UNL     1      -1.377   1.161   6.569  0.00  0.00    +0.053 C 
ATOM     27  N   UNL     1      -1.504   1.795   5.452  0.00  0.00    -0.259 NA
ATOM     28  C   UNL     1      -0.158   2.205   5.030  0.00  0.00    +0.237 C 
ATOM     29  N   UNL     1       0.758   1.714   6.067  0.00  0.00    -0.262 NA
ATOM     30  C   UNL     1       0.041   1.115   6.958  0.00  0.00    +0.130 C 
ENDBRANCH  24  28
ENDBRANCH  20  24
ENDBRANCH  19  22
ENDBRANCH   1  19
TORSDOF 5
