REMARK  Name = ZINC09831208
REMARK  5 active torsions:
REMARK  status: ('A' for Active; 'I' for Inactive)
REMARK    1  A    between atoms: C_9  and  S_11
REMARK    2  A    between atoms: S_11  and  N_14
REMARK    3  A    between atoms: C_18  and  C_20
REMARK    4  A    between atoms: N_22  and  C_23
REMARK    5  A    between atoms: C_23  and  C_24
REMARK                            x       y       z     vdW  Elec       q    Type
REMARK                         _______ _______ _______ _____ _____    ______ ____
ROOT
ATOM      1  N   UNL     1      -4.359   4.123   3.065  0.00  0.00    -0.165 NA
ATOM      2  C   UNL     1      -5.194   3.227   3.886  0.00  0.00    +0.110 C 
ATOM      3  C   UNL     1      -4.186   2.419   4.741  0.00  0.00    +0.019 C 
ATOM      4  C   UNL     1      -3.020   2.214   3.737  0.00  0.00    +0.031 C 
ATOM      5  C   UNL     1      -3.019   3.531   2.934  0.00  0.00    +0.165 C 
ENDROOT
BRANCH   5   6
ATOM      6  C   UNL     1      -2.724   3.248   1.484  0.00  0.00    +0.232 C 
ATOM      7  O   UNL     1      -3.634   3.038   0.709  0.00  0.00    -0.274 OA
ATOM      8  N   UNL     1      -1.449   3.226   1.047  0.00  0.00    -0.310 N 
ATOM      9  H   UNL     1      -0.719   3.316   1.679  0.00  0.00    +0.149 HD
BRANCH   8  10
ATOM     10  C   UNL     1      -1.167   3.066  -0.381  0.00  0.00    +0.139 C 
BRANCH  10  11
ATOM     11  C   UNL     1       0.316   3.195  -0.618  0.00  0.00    -0.027 A 
ATOM     12  C   UNL     1       1.123   2.074  -0.568  0.00  0.00    +0.009 A 
ATOM     13  C   UNL     1       2.483   2.187  -0.790  0.00  0.00    +0.050 A 
ATOM     14  C   UNL     1       3.040   3.425  -1.062  0.00  0.00    +0.166 A 
ATOM     15  C   UNL     1       2.227   4.555  -1.113  0.00  0.00    +0.167 A 
ATOM     16  C   UNL     1       0.865   4.434  -0.889  0.00  0.00    +0.054 A 
ATOM     17  O   UNL     1       3.005   5.640  -1.395  0.00  0.00    -0.453 OA
ATOM     18  C   UNL     1       4.235   5.106  -1.920  0.00  0.00    +0.466 C 
ATOM     19  O   UNL     1       4.328   3.803  -1.313  0.00  0.00    -0.453 OA
ENDBRANCH  10  11
ENDBRANCH   8  10
ENDBRANCH   5   6
BRANCH   1  20
ATOM     20  S   UNL     1      -4.848   5.560   2.401  0.00  0.00    +0.064 S 
ATOM     21  O   UNL     1      -3.933   5.857   1.356  0.00  0.00    -0.153 OA
ATOM     22  O   UNL     1      -6.248   5.449   2.180  0.00  0.00    -0.153 OA
BRANCH  20  31
ATOM     23  C   UNL     1      -3.522   8.782   4.408  0.00  0.00    +0.003 A 
ATOM     24  C   UNL     1      -4.254   8.792   5.556  0.00  0.00    +0.010 A 
ATOM     25  C   UNL     1      -5.211   7.790   5.778  0.00  0.00    +0.002 A 
ATOM     26  C   UNL     1      -5.989   7.765   6.951  0.00  0.00    +0.011 A 
ATOM     27  C   UNL     1      -6.901   6.759   7.098  0.00  0.00    +0.020 A 
ATOM     28  C   UNL     1      -7.042   5.796   6.101  0.00  0.00    +0.111 A 
ATOM     29  N   UNL     1      -6.316   5.823   5.009  0.00  0.00    -0.253 NA
ATOM     30  C   UNL     1      -5.409   6.782   4.801  0.00  0.00    +0.097 A 
ATOM     31  C   UNL     1      -4.630   6.803   3.631  0.00  0.00    +0.131 A 
ATOM     32  C   UNL     1      -3.711   7.790   3.449  0.00  0.00    +0.031 A 
ENDBRANCH  20  31
ENDBRANCH   1  20
TORSDOF 5
