REMARK  Name = ZINC27372083
REMARK  6 active torsions:
REMARK  status: ('A' for Active; 'I' for Inactive)
REMARK    1  A    between atoms: C_1  and  C_2
REMARK    2  A    between atoms: C_7  and  S_30
REMARK    3  A    between atoms: C_12  and  C_14
REMARK    4  A    between atoms: C_14  and  N_15
REMARK    5  A    between atoms: C_23  and  C_25
REMARK    6  A    between atoms: S_30  and  N_33
REMARK                            x       y       z     vdW  Elec       q    Type
REMARK                         _______ _______ _______ _____ _____    ______ ____
ROOT
ATOM      1  C   UNL     1       4.326   2.979   2.023  0.00  0.00    +0.029 C 
ATOM      2  C   UNL     1       3.433   3.320   3.218  0.00  0.00    +0.083 C 
ATOM      3  C   UNL     1       4.171   3.028   4.535  0.00  0.00    +0.059 C 
ATOM      4  C   UNL     1       3.325   1.978   5.221  0.00  0.00    -0.022 A 
ATOM      5  C   UNL     1       3.487   1.334   6.432  0.00  0.00    +0.034 A 
ATOM      6  C   UNL     1       2.561   0.396   6.848  0.00  0.00    +0.105 A 
ATOM      7  C   UNL     1       1.471   0.103   6.050  0.00  0.00    +0.030 A 
ATOM      8  C   UNL     1       1.305   0.744   4.840  0.00  0.00    +0.026 A 
ATOM      9  C   UNL     1       2.233   1.697   4.416  0.00  0.00    +0.040 A 
ATOM     10  N   UNL     1       2.255   2.448   3.236  0.00  0.00    -0.270 N 
ATOM     11  C   UNL     1       1.326   2.384   2.262  0.00  0.00    +0.204 C 
ATOM     12  O   UNL     1       1.432   3.083   1.276  0.00  0.00    -0.277 OA
ENDROOT
BRANCH   6  13
ATOM     13  S   UNL     1       2.770  -0.426   8.393  0.00  0.00    +0.056 S 
ATOM     14  O   UNL     1       2.058  -1.652   8.300  0.00  0.00    -0.153 OA
ATOM     15  O   UNL     1       4.157  -0.372   8.698  0.00  0.00    -0.153 OA
BRANCH  13  16
ATOM     16  N   UNL     1       1.998   0.484   9.540  0.00  0.00    -0.204 NA
ATOM     17  H   UNL     1       2.105   0.003  10.524  0.00  0.00    +0.144 HD
ATOM     18  H   UNL     1       0.930   0.566   9.287  0.00  0.00    +0.144 HD
ENDBRANCH  13  16
ENDBRANCH   6  13
BRANCH  11  19
ATOM     19  C   UNL     1       0.156   1.445   2.397  0.00  0.00    +0.020 C 
BRANCH  19  20
ATOM     20  N   UNL     1      -0.706   1.562   1.213  0.00  0.00    +0.393 N 
ATOM     21  C   UNL     1      -0.013   1.086   0.008  0.00  0.00    -0.072 C 
ATOM     22  C   UNL     1      -0.762   1.598  -1.234  0.00  0.00    +0.024 C 
ATOM     23  C   UNL     1      -2.219   1.341  -1.024  0.00  0.00    -0.010 A 
ATOM     24  C   UNL     1      -2.826   1.008   0.150  0.00  0.00    -0.046 A 
ATOM     25  C   UNL     1      -4.204   0.813   0.104  0.00  0.00    +0.010 A 
ATOM     26  C   UNL     1      -4.870   0.957  -1.066  0.00  0.00    +0.045 A 
ATOM     27  S   UNL     1      -3.549   1.386  -2.191  0.00  0.00    -0.101 S 
ATOM     28  C   UNL     1      -1.989   0.873   1.418  0.00  0.00    +0.002 C 
ATOM     29  H   UNL     1      -0.932   2.628   1.060  0.00  0.00    -0.080 HD
BRANCH  28  30
ATOM     30  C   UNL     1      -2.721   1.501   2.576  0.00  0.00    -0.019 A 
ATOM     31  C   UNL     1      -3.458   0.904   3.545  0.00  0.00    +0.010 A 
ATOM     32  C   UNL     1      -4.042   1.689   4.521  0.00  0.00    +0.008 A 
ATOM     33  C   UNL     1      -3.869   3.033   4.476  0.00  0.00    +0.045 A 
ATOM     34  S   UNL     1      -2.848   3.225   3.024  0.00  0.00    -0.103 S 
ENDBRANCH  28  30
ENDBRANCH  19  20
ENDBRANCH  11  19
TORSDOF 5
