REMARK  Name = ZINC63294745
REMARK  6 active torsions:
REMARK  status: ('A' for Active; 'I' for Inactive)
REMARK    1  A    between atoms: C_7  and  C_10
REMARK    2  A    between atoms: C_10  and  C_11
REMARK    3  A    between atoms: C_14  and  C_18
REMARK    4  A    between atoms: N_20  and  C_21
REMARK    5  A    between atoms: C_21  and  C_22
REMARK    6  A    between atoms: C_22  and  C_23
REMARK                            x       y       z     vdW  Elec       q    Type
REMARK                         _______ _______ _______ _____ _____    ______ ____
ROOT
ATOM      1  C   UNL     1       0.457  -3.653  -1.462  0.00  0.00    +0.154 C 
ATOM      2  N   UNL     1      -0.540  -4.750  -1.487  0.00  0.00    -0.265 NA
ATOM      3  C   UNL     1      -0.031  -5.674  -2.534  0.00  0.00    +0.297 C 
ATOM      4  O   UNL     1       1.402  -5.632  -2.347  0.00  0.00    -0.270 OA
ATOM      5  N   UNL     1       1.700  -4.224  -2.021  0.00  0.00    -0.181 NA
ATOM      6  H   UNL     1      -0.592  -5.212  -0.591  0.00  0.00    +0.126 HD
ATOM      7  H   UNL     1       2.458  -4.159  -1.358  0.00  0.00    +0.156 HD
ENDROOT
BRANCH   3   8
ATOM      8  C   UNL     1      -0.559  -7.068  -2.314  0.00  0.00    +0.259 C 
ATOM      9  O   UNL     1      -1.376  -7.535  -3.079  0.00  0.00    -0.271 OA
ATOM     10  N   UNL     1      -0.123  -7.796  -1.267  0.00  0.00    -0.312 N 
ATOM     11  H   UNL     1       0.530  -7.423  -0.655  0.00  0.00    +0.149 HD
BRANCH  10  12
ATOM     12  C   UNL     1      -0.636  -9.152  -1.053  0.00  0.00    +0.108 C 
BRANCH  12  13
ATOM     13  C   UNL     1       0.015  -9.753   0.194  0.00  0.00    +0.052 C 
BRANCH  13  14
ATOM     14  C   UNL     1      -0.512 -11.148   0.413  0.00  0.00    -0.040 C 
ATOM     15  C   UNL     1       0.056 -12.306   0.006  0.00  0.00    +0.000 A 
ATOM     16  C   UNL     1       1.288 -12.602  -0.735  0.00  0.00    +0.030 A 
ATOM     17  C   UNL     1       1.599 -13.891  -1.002  0.00  0.00    +0.042 A 
ATOM     18  C   UNL     1       0.776 -14.949  -0.588  0.00  0.00    +0.022 A 
ATOM     19  C   UNL     1      -0.370 -14.756   0.098  0.00  0.00    +0.027 A 
ATOM     20  C   UNL     1      -0.795 -13.440   0.432  0.00  0.00    +0.043 A 
ATOM     21  N   UNL     1      -1.848 -13.000   1.077  0.00  0.00    -0.380 N 
ATOM     22  C   UNL     1      -1.781 -11.536   1.140  0.00  0.00    +0.144 C 
ATOM     23 CL   UNL     1       3.055 -14.246  -1.879  0.00  0.00    -0.084 Cl
ATOM     24  H   UNL     1      -2.551 -13.551   1.454  0.00  0.00    +0.160 HD
ENDBRANCH  13  14
ENDBRANCH  12  13
ENDBRANCH  10  12
ENDBRANCH   3   8
BRANCH   1  25
ATOM     25  C   UNL     1       0.691  -3.186  -0.024  0.00  0.00    +0.070 C 
BRANCH  25  32
ATOM     26  C   UNL     1      -0.016   1.348   0.009  0.00  0.00    +0.001 A 
ATOM     27  C   UNL     1       1.166   2.101   0.002  0.00  0.00    +0.002 A 
ATOM     28  C   UNL     1       2.391   1.535  -0.013  0.00  0.00    +0.026 A 
ATOM     29  C   UNL     1       2.529   0.120  -0.022  0.00  0.00    +0.043 A 
ATOM     30  N   UNL     1       3.587  -0.654  -0.037  0.00  0.00    -0.380 N 
ATOM     31  C   UNL     1       3.143  -2.053  -0.041  0.00  0.00    +0.144 C 
ATOM     32  C   UNL     1       1.631  -2.008  -0.025  0.00  0.00    -0.039 C 
ATOM     33  C   UNL     1       1.295  -0.698  -0.014  0.00  0.00    -0.001 A 
ATOM     34  C   UNL     1       0.002  -0.004   0.002  0.00  0.00    +0.010 A 
ATOM     35  H   UNL     1       4.509  -0.353  -0.045  0.00  0.00    +0.160 HD
ENDBRANCH  25  32
ENDBRANCH   1  25
TORSDOF 6
