REMARK  Name = ZINC57282543
REMARK  6 active torsions:
REMARK  status: ('A' for Active; 'I' for Inactive)
REMARK    1  A    between atoms: C_1  and  C_2
REMARK    2  A    between atoms: C_2  and  C_3
REMARK    3  A    between atoms: C_2  and  C_4
REMARK    4  A    between atoms: C_2  and  C_22
REMARK    5  A    between atoms: C_4  and  N_5
REMARK    6  A    between atoms: C_14  and  C_16
REMARK                            x       y       z     vdW  Elec       q    Type
REMARK                         _______ _______ _______ _____ _____    ______ ____
ROOT
ATOM      1  N   UNL     1      -1.956  -0.739   1.802  0.00  0.00    -0.298 N 
ATOM      2  C   UNL     1      -3.283  -0.942   1.912  0.00  0.00    +0.302 C 
ATOM      3  O   UNL     1      -3.876  -1.568   1.054  0.00  0.00    -0.253 OA
ATOM      4  N   UNL     1      -3.954  -0.451   2.972  0.00  0.00    -0.283 N 
ATOM      5  C   UNL     1      -3.277   0.407   3.954  0.00  0.00    +0.128 C 
ATOM      6  C   UNL     1      -4.055   1.723   4.075  0.00  0.00    +0.127 C 
ATOM      7  N   UNL     1      -5.478   1.411   4.270  0.00  0.00    -0.296 N 
ATOM      8  C   UNL     1      -6.156   0.552   3.288  0.00  0.00    +0.127 C 
ATOM      9  C   UNL     1      -5.378  -0.759   3.164  0.00  0.00    +0.128 C 
ATOM     10  C   UNL     1      -6.149   1.902   5.331  0.00  0.00    +0.245 C 
ATOM     11  O   UNL     1      -7.298   1.567   5.530  0.00  0.00    -0.273 OA
ATOM     12  H   UNL     1      -1.495  -0.180   2.447  0.00  0.00    +0.150 HD
ENDROOT
BRANCH  10  13
ATOM     13  C   UNL     1      -5.472   2.868   6.269  0.00  0.00    +0.204 C 
ATOM     14  C   UNL     1      -5.264   4.237   5.574  0.00  0.00    +0.043 C 
ATOM     15  C   UNL     1      -5.198   5.184   6.803  0.00  0.00    +0.031 C 
ATOM     16  C   UNL     1      -6.183   4.516   7.786  0.00  0.00    +0.161 C 
ATOM     17  O   UNL     1      -6.318   3.142   7.397  0.00  0.00    -0.367 OA
ENDBRANCH  10  13
BRANCH   1  18
ATOM     18  C   UNL     1      -1.207  -1.364   0.708  0.00  0.00    +0.116 C 
BRANCH  18  20
ATOM     19  C   UNL     1       0.404   0.545   0.720  0.00  0.00    +0.017 C 
ATOM     20  C   UNL     1       0.269  -0.976   0.813  0.00  0.00    +0.006 C 
ATOM     21  C   UNL     1       0.829  -1.456   2.153  0.00  0.00    +0.017 C 
BRANCH  20  22
ATOM     22  C   UNL     1       1.039  -1.619  -0.312  0.00  0.00    -0.040 A 
ATOM     23  C   UNL     1       0.381  -2.411  -1.234  0.00  0.00    +0.005 A 
ATOM     24  C   UNL     1       1.087  -3.001  -2.266  0.00  0.00    +0.020 A 
ATOM     25  C   UNL     1       2.451  -2.798  -2.376  0.00  0.00    +0.041 A 
ATOM     26  C   UNL     1       3.108  -2.004  -1.453  0.00  0.00    +0.020 A 
ATOM     27  C   UNL     1       2.401  -1.411  -0.425  0.00  0.00    +0.005 A 
ATOM     28 CL   UNL     1       3.337  -3.538  -3.672  0.00  0.00    -0.084 Cl
ENDBRANCH  20  22
ENDBRANCH  18  20
ENDBRANCH   1  18
TORSDOF 4
