REMARK  Name = ZINC36360388
REMARK  7 active torsions:
REMARK  status: ('A' for Active; 'I' for Inactive)
REMARK    1  A    between atoms: C_1  and  C_2
REMARK    2  A    between atoms: C_2  and  O_3
REMARK    3  A    between atoms: O_3  and  C_4
REMARK    4  A    between atoms: C_9  and  C_10
REMARK    5  A    between atoms: C_13  and  O_28
REMARK    6  A    between atoms: C_17  and  C_27
REMARK    7  A    between atoms: C_30  and  C_33
REMARK                            x       y       z     vdW  Elec       q    Type
REMARK                         _______ _______ _______ _____ _____    ______ ____
ROOT
ATOM      1  C   UNL     1       1.993  -1.399  -3.487  0.00  0.00    +0.067 C 
ATOM      2  C   UNL     1       3.498  -1.653  -3.630  0.00  0.00    +0.108 C 
ATOM      3  C   UNL     1       4.032  -1.086  -4.914  0.00  0.00    +0.190 C 
ATOM      4  N   UNL     1       3.345  -1.037  -6.016  0.00  0.00    -0.197 NA
ATOM      5  C   UNL     1       2.054  -1.474  -6.014  0.00  0.00    +0.165 A 
ATOM      6  C   UNL     1       1.355  -1.663  -4.828  0.00  0.00    +0.028 A 
ATOM      7  C   UNL     1       0.084  -2.101  -5.147  0.00  0.00    +0.066 A 
ATOM      8  N   UNL     1      -0.016  -2.170  -6.456  0.00  0.00    -0.168 NA
ATOM      9  N   UNL     1       1.207  -1.773  -7.026  0.00  0.00    -0.194 N 
ATOM     10  C   UNL     1       1.494  -1.696  -8.392  0.00  0.00    +0.178 A 
ATOM     11  C   UNL     1       0.783  -2.480  -9.301  0.00  0.00    +0.055 A 
ATOM     12  C   UNL     1       1.103  -2.369 -10.643  0.00  0.00    +0.077 A 
ATOM     13  C   UNL     1       2.115  -1.480 -11.003  0.00  0.00    +0.289 A 
ATOM     14  N   UNL     1       2.735  -0.777 -10.071  0.00  0.00    -0.105 NA
ATOM     15  N   UNL     1       2.436  -0.875  -8.827  0.00  0.00    -0.126 NA
ATOM     16  O   UNL     1       2.463  -1.338 -12.307  0.00  0.00    -0.264 OA
ATOM     17  C   UNL     1      -1.004  -2.444  -4.162  0.00  0.00    +0.068 C 
ENDROOT
BRANCH   1  23
ATOM     18  C   UNL     1       0.777  -1.811  -1.336  0.00  0.00    +0.125 A 
ATOM     19  C   UNL     1       0.243  -2.672  -0.388  0.00  0.00    +0.053 A 
ATOM     20  C   UNL     1       0.352  -4.034  -0.558  0.00  0.00    +0.001 A 
ATOM     21  C   UNL     1       0.985  -4.564  -1.675  0.00  0.00    +0.125 A 
ATOM     22  C   UNL     1       1.523  -3.695  -2.620  0.00  0.00    +0.053 A 
ATOM     23  C   UNL     1       1.413  -2.330  -2.454  0.00  0.00    +0.006 A 
ATOM     24  O   UNL     1       0.961  -5.926  -1.656  0.00  0.00    -0.488 OA
ATOM     25  C   UNL     1       0.703  -6.376  -0.315  0.00  0.00    +0.175 C 
ATOM     26  C   UNL     1      -0.108  -5.205   0.289  0.00  0.00    +0.083 C 
ATOM     27  C   UNL     1       2.013  -6.583   0.449  0.00  0.00    +0.052 C 
BRANCH  18  28
ATOM     28  O   UNL     1       0.671  -0.465  -1.174  0.00  0.00    -0.492 OA
BRANCH  28  30
ATOM     29  C   UNL     1      -0.019   1.526   0.010  0.00  0.00    +0.048 C 
ATOM     30  C   UNL     1       0.002  -0.004   0.002  0.00  0.00    +0.225 C 
ENDBRANCH  28  30
ENDBRANCH  18  28
ENDBRANCH   1  23
BRANCH   3  31
ATOM     31  O   UNL     1       5.291  -0.603  -4.923  0.00  0.00    -0.495 OA
ATOM     32  H   UNL     1       5.571  -0.253  -5.780  0.00  0.00    +0.293 HD
ENDBRANCH   3  31
TORSDOF 4
