REMARK  Name = ZINC01104406
REMARK  8 active torsions:
REMARK  status: ('A' for Active; 'I' for Inactive)
REMARK    1  A    between atoms: C_1  and  C_2
REMARK    2  A    between atoms: C_3  and  C_29
REMARK    3  A    between atoms: C_4  and  C_11
REMARK    4  A    between atoms: N_9  and  C_10
REMARK    5  A    between atoms: N_13  and  C_23
REMARK    6  A    between atoms: C_15  and  C_16
REMARK    7  A    between atoms: C_29  and  O_31
REMARK    8  A    between atoms: O_31  and  C_32
REMARK                            x       y       z     vdW  Elec       q    Type
REMARK                         _______ _______ _______ _____ _____    ______ ____
ROOT
ATOM      1  C   UNL     1      -0.812  -0.601   0.874  0.00  0.00    +0.023 A 
ATOM      2  C   UNL     1      -0.295  -1.820   0.604  0.00  0.00    +0.121 A 
ATOM      3  N   UNL     1       0.845  -1.639  -0.112  0.00  0.00    -0.239 N 
ATOM      4  N   UNL     1       1.031  -0.263  -0.291  0.00  0.00    -0.166 NA
ATOM      5  C   UNL     1       0.040   0.366   0.305  0.00  0.00    +0.098 A 
ENDROOT
BRANCH   1   9
ATOM      6  C   UNL     1      -2.226  -1.631   5.273  0.00  0.00    +0.061 C 
ATOM      7  C   UNL     1      -2.497  -1.418   3.806  0.00  0.00    +0.024 C 
ATOM      8  C   UNL     1      -1.770  -0.509   3.121  0.00  0.00    +0.078 C 
ATOM      9  C   UNL     1      -2.075  -0.326   1.648  0.00  0.00    +0.147 C 
ATOM     10  N   UNL     1      -3.147  -1.161   1.081  0.00  0.00    -0.288 N 
ATOM     11  C   UNL     1      -3.784  -2.026   1.893  0.00  0.00    +0.307 C 
ATOM     12  O   UNL     1      -4.671  -2.720   1.434  0.00  0.00    -0.252 OA
ATOM     13  N   UNL     1      -3.473  -2.147   3.190  0.00  0.00    -0.262 N 
ATOM     14  C   UNL     1      -4.223  -3.116   3.993  0.00  0.00    +0.139 C 
ATOM     15  H   UNL     1      -3.388  -1.091   0.144  0.00  0.00    +0.151 HD
BRANCH   8  16
ATOM     16  C   UNL     1      -0.758   0.248   3.758  0.00  0.00    +0.339 C 
ATOM     17  O   UNL     1      -0.457   0.011   4.913  0.00  0.00    -0.245 OA
BRANCH  16  18
ATOM     18  O   UNL     1      -0.127   1.232   3.085  0.00  0.00    -0.465 OA
ATOM     19  C   UNL     1       0.803   2.029   3.821  0.00  0.00    +0.280 C 
ENDBRANCH  16  18
ENDBRANCH   8  16
ENDBRANCH   1   9
BRANCH   5  20
ATOM     20  C   UNL     1      -0.151   1.836   0.362  0.00  0.00    +0.003 A 
ATOM     21  C   UNL     1      -1.419   2.385   0.178  0.00  0.00    +0.011 A 
ATOM     22  C   UNL     1      -1.592   3.752   0.237  0.00  0.00    +0.016 A 
ATOM     23  C   UNL     1      -0.507   4.580   0.468  0.00  0.00    +0.018 A 
ATOM     24  C   UNL     1       0.756   4.041   0.646  0.00  0.00    +0.016 A 
ATOM     25  C   UNL     1       0.938   2.674   0.594  0.00  0.00    +0.011 A 
ATOM     26 BR   UNL     1      -0.749   6.454   0.538  0.00  0.00    -0.050 Br
ENDBRANCH   5  20
BRANCH   3  27
ATOM     27  C   UNL     1       1.685  -2.653  -0.592  0.00  0.00    +0.065 A 
ATOM     28  C   UNL     1       1.382  -3.985  -0.342  0.00  0.00    +0.028 A 
ATOM     29  C   UNL     1       2.209  -4.981  -0.822  0.00  0.00    +0.002 A 
ATOM     30  C   UNL     1       3.344  -4.654  -1.540  0.00  0.00    +0.000 A 
ATOM     31  C   UNL     1       3.651  -3.329  -1.786  0.00  0.00    +0.002 A 
ATOM     32  C   UNL     1       2.826  -2.327  -1.314  0.00  0.00    +0.028 A 
ENDBRANCH   3  27
TORSDOF 5
