REMARK  Name = ZINC17910449
REMARK  7 active torsions:
REMARK  status: ('A' for Active; 'I' for Inactive)
REMARK    1  A    between atoms: C_3  and  C_21
REMARK    2  A    between atoms: C_5  and  N_7
REMARK    3  A    between atoms: N_7  and  S_8
REMARK    4  A    between atoms: S_8  and  C_11
REMARK    5  A    between atoms: N_23  and  C_24
REMARK    6  A    between atoms: C_24  and  C_25
REMARK    7  A    between atoms: C_25  and  C_26
REMARK                            x       y       z     vdW  Elec       q    Type
REMARK                         _______ _______ _______ _____ _____    ______ ____
ROOT
ATOM      1  C   UNL     1       5.728   2.133  -2.788  0.00  0.00    +0.003 A 
ATOM      2  C   UNL     1       5.199   2.215  -4.061  0.00  0.00    +0.013 A 
ATOM      3  C   UNL     1       4.373   1.196  -4.540  0.00  0.00    +0.038 A 
ATOM      4  C   UNL     1       4.090   0.096  -3.732  0.00  0.00    +0.037 A 
ATOM      5  C   UNL     1       4.622   0.025  -2.454  0.00  0.00    +0.049 A 
ATOM      6  C   UNL     1       5.443   1.044  -1.985  0.00  0.00    +0.024 A 
ENDROOT
BRANCH   3   7
ATOM      7  C   UNL     1       3.805   1.282  -5.903  0.00  0.00    +0.244 C 
ATOM      8  O   UNL     1       3.087   0.394  -6.318  0.00  0.00    -0.270 OA
ATOM      9  N   UNL     1       4.085   2.345  -6.684  0.00  0.00    -0.311 N 
ATOM     10  H   UNL     1       4.658   3.053  -6.352  0.00  0.00    +0.149 HD
BRANCH   9  11
ATOM     11  C   UNL     1       3.522   2.429  -8.034  0.00  0.00    +0.112 C 
BRANCH  11  12
ATOM     12  C   UNL     1       3.991   3.724  -8.701  0.00  0.00    +0.093 C 
BRANCH  12  13
ATOM     13  C   UNL     1       3.412   3.811 -10.090  0.00  0.00    +0.106 A 
ATOM     14  C   UNL     1       2.236   4.377 -10.418  0.00  0.00    +0.044 A 
ATOM     15  C   UNL     1       2.090   4.236 -11.817  0.00  0.00    +0.041 A 
ATOM     16  C   UNL     1       3.184   3.591 -12.260  0.00  0.00    +0.195 A 
ATOM     17  O   UNL     1       3.984   3.341 -11.210  0.00  0.00    -0.468 OA
ENDBRANCH  12  13
ENDBRANCH  11  12
ENDBRANCH   9  11
ENDBRANCH   3   7
BRANCH   5  18
ATOM     18  N   UNL     1       4.338  -1.074  -1.639  0.00  0.00    -0.216 N 
ATOM     19  H   UNL     1       4.380  -1.972  -2.003  0.00  0.00    +0.174 HD
BRANCH  18  20
ATOM     20  S   UNL     1       3.931  -0.843  -0.050  0.00  0.00    +0.072 S 
ATOM     21  O   UNL     1       4.904   0.039   0.494  0.00  0.00    -0.150 OA
ATOM     22  O   UNL     1       3.679  -2.130   0.496  0.00  0.00    -0.150 OA
BRANCH  20  23
ATOM     23  C   UNL     1       2.397   0.024  -0.026  0.00  0.00    +0.112 A 
ATOM     24  C   UNL     1       1.207  -0.680  -0.016  0.00  0.00    +0.032 A 
ATOM     25  C   UNL     1       0.002  -0.004   0.002  0.00  0.00    +0.051 A 
ATOM     26  C   UNL     1      -0.017   1.383   0.010  0.00  0.00    +0.162 A 
ATOM     27  C   UNL     1       1.179   2.090   0.002  0.00  0.00    +0.164 A 
ATOM     28  C   UNL     1       2.386   1.406  -0.017  0.00  0.00    +0.078 A 
ATOM     29  O   UNL     1       1.184   3.451   0.018  0.00  0.00    -0.485 OA
ATOM     30  C   UNL     1      -0.040   4.103  -0.340  0.00  0.00    +0.270 C 
ATOM     31  C   UNL     1      -1.189   3.413   0.408  0.00  0.00    +0.270 C 
ATOM     32  O   UNL     1      -1.212   2.035   0.019  0.00  0.00    -0.485 OA
ENDBRANCH  20  23
ENDBRANCH  18  20
ENDBRANCH   5  18
TORSDOF 7
