REMARK  Name = ZINC36206357
REMARK  16 active torsions:
REMARK  status: ('A' for Active; 'I' for Inactive)
REMARK    1  A    between atoms: C_1  and  C_2
REMARK    2  A    between atoms: C_2  and  C_3
REMARK    3  A    between atoms: C_2  and  C_4
REMARK    4  A    between atoms: C_4  and  O_5
REMARK    5  A    between atoms: O_5  and  C_6
REMARK    6  A    between atoms: C_6  and  C_7
REMARK    7  A    between atoms: C_7  and  C_9
REMARK    8  A    between atoms: C_7  and  O_37
REMARK    9  A    between atoms: C_9  and  N_10
REMARK   10  A    between atoms: N_10  and  C_11
REMARK   11  A    between atoms: N_10  and  C_17
REMARK   12  A    between atoms: C_11  and  C_12
REMARK   13  A    between atoms: C_17  and  C_18
REMARK   14  A    between atoms: C_24  and  C_29
REMARK   15  A    between atoms: C_33  and  O_35
REMARK   16  A    between atoms: O_35  and  C_36
REMARK                            x       y       z     vdW  Elec       q    Type
REMARK                         _______ _______ _______ _____ _____    ______ ____
ROOT
ATOM      1  C   UNL     1      -4.713  -7.218   0.182  0.00  0.00    -0.003 C 
ENDROOT
BRANCH   1   2
ATOM      2  C   UNL     1      -4.309  -8.668   0.099  0.00  0.00    +0.094 A 
ATOM      3  N   UNL     1      -5.250  -9.633   0.259  0.00  0.00    -0.312 N 
ATOM      4  H   UNL     1      -6.171  -9.376   0.425  0.00  0.00    +0.170 HD
ATOM      5  C   UNL     1      -4.931 -10.938   0.192  0.00  0.00    +0.260 A 
ATOM      6  O   UNL     1      -5.788 -11.793   0.337  0.00  0.00    -0.267 OA
ATOM      7  C   UNL     1      -3.570 -11.309  -0.053  0.00  0.00    +0.080 A 
ATOM      8  C   UNL     1      -2.982 -12.637  -0.169  0.00  0.00    +0.004 A 
ATOM      9  C   UNL     1      -1.652 -12.743  -0.407  0.00  0.00    +0.056 A 
ATOM     10  S   UNL     1      -1.112 -11.046  -0.490  0.00  0.00    -0.076 S 
ATOM     11  C   UNL     1      -2.668 -10.243  -0.206  0.00  0.00    +0.116 A 
ATOM     12  N   UNL     1      -3.060  -8.974  -0.131  0.00  0.00    -0.229 NA
BRANCH   8  13
ATOM     13  C   UNL     1      -3.822 -13.850  -0.029  0.00  0.00    -0.013 A 
ATOM     14  C   UNL     1      -4.685 -13.982   1.060  0.00  0.00    +0.009 A 
ATOM     15  C   UNL     1      -5.466 -15.112   1.188  0.00  0.00    +0.004 A 
ATOM     16  C   UNL     1      -5.397 -16.116   0.240  0.00  0.00    +0.045 A 
ATOM     17  C   UNL     1      -4.541 -15.994  -0.846  0.00  0.00    +0.121 A 
ATOM     18  C   UNL     1      -3.758 -14.860  -0.987  0.00  0.00    +0.054 A 
BRANCH  17  19
ATOM     19  O   UNL     1      -4.477 -16.984  -1.775  0.00  0.00    -0.495 OA
ATOM     20  C   UNL     1      -5.317 -18.121  -1.570  0.00  0.00    +0.277 C 
ENDBRANCH  17  19
ENDBRANCH   8  13
ENDBRANCH   1   2
BRANCH   1  21
ATOM     21  N   UNL     1      -3.533  -6.368  -0.028  0.00  0.00    +0.391 N 
ATOM     22  H   UNL     1      -2.813  -6.623   0.631  0.00  0.00    -0.080 HD
BRANCH  21  23
ATOM     23  C   UNL     1      -3.902  -4.960   0.171  0.00  0.00    -0.044 C 
BRANCH  23  24
ATOM     24  C   UNL     1      -4.287  -4.736   1.635  0.00  0.00    +0.124 C 
BRANCH  24  25
ATOM     25  O   UNL     1      -3.166  -5.025   2.472  0.00  0.00    -0.391 OA
ATOM     26  H   UNL     1      -2.413  -4.432   2.341  0.00  0.00    +0.210 HD
ENDBRANCH  24  25
BRANCH  24  27
ATOM     27  C   UNL     1      -4.709  -3.279   1.834  0.00  0.00    +0.189 C 
BRANCH  27  28
ATOM     28  O   UNL     1      -5.179  -3.097   3.171  0.00  0.00    -0.377 OA
BRANCH  28  29
ATOM     29  C   UNL     1      -5.600  -1.763   3.463  0.00  0.00    +0.163 C 
BRANCH  29  31
ATOM     30  C   UNL     1      -6.413  -0.235   5.264  0.00  0.00    +0.009 C 
ATOM     31  C   UNL     1      -6.080  -1.686   4.914  0.00  0.00    +0.009 C 
ATOM     32  C   UNL     1      -7.330  -2.552   5.085  0.00  0.00    +0.009 C 
ENDBRANCH  29  31
ENDBRANCH  28  29
ENDBRANCH  27  28
ENDBRANCH  24  27
ENDBRANCH  23  24
ENDBRANCH  21  23
BRANCH  21  33
ATOM     33  C   UNL     1      -3.033  -6.554  -1.397  0.00  0.00    -0.002 C 
BRANCH  33  34
ATOM     34  C   UNL     1      -1.743  -5.795  -1.567  0.00  0.00    +0.089 A 
ATOM     35  C   UNL     1      -0.518  -6.240  -1.233  0.00  0.00    +0.042 A 
ATOM     36  C   UNL     1       0.395  -5.212  -1.563  0.00  0.00    +0.041 A 
ATOM     37  C   UNL     1      -0.326  -4.201  -2.079  0.00  0.00    +0.195 A 
ATOM     38  O   UNL     1      -1.620  -4.562  -2.084  0.00  0.00    -0.470 OA
ENDBRANCH  33  34
ENDBRANCH  21  33
ENDBRANCH   1  21
TORSDOF 13
