REMARK  Name = ZINC23429182
REMARK  7 active torsions:
REMARK  status: ('A' for Active; 'I' for Inactive)
REMARK    1  A    between atoms: C_1  and  N_2
REMARK    2  A    between atoms: N_2  and  C_3
REMARK    3  A    between atoms: N_2  and  C_24
REMARK    4  A    between atoms: C_3  and  C_4
REMARK    5  A    between atoms: C_8  and  C_10
REMARK    6  A    between atoms: C_16  and  C_18
REMARK    7  A    between atoms: C_24  and  C_25
REMARK                            x       y       z     vdW  Elec       q    Type
REMARK                         _______ _______ _______ _____ _____    ______ ____
ROOT
ATOM      1  C   UNL     1      -1.246   3.537   0.032  0.00  0.00    -0.063 A 
ATOM      2  C   UNL     1      -0.056   4.242   0.024  0.00  0.00    +0.002 A 
ATOM      3  C   UNL     1       1.154   3.570   0.010  0.00  0.00    +0.001 A 
ATOM      4  C   UNL     1       1.180   2.191   0.003  0.00  0.00    +0.011 A 
ATOM      5  C   UNL     1      -0.018   1.473   0.010  0.00  0.00    +0.018 A 
ATOM      6  C   UNL     1      -1.235   2.158   0.020  0.00  0.00    +0.013 A 
ENDROOT
BRANCH   5   7
ATOM      7  C   UNL     1       0.002  -0.004   0.002  0.00  0.00    +0.141 A 
ATOM      8  N   UNL     1      -1.176  -0.690   0.010  0.00  0.00    -0.307 N 
ATOM      9  H   UNL     1      -2.130  -0.143   0.022  0.00  0.00    +0.170 HD
ATOM     10  C   UNL     1      -1.165  -2.040   0.002  0.00  0.00    +0.252 A 
ATOM     11  O   UNL     1      -2.209  -2.671   0.008  0.00  0.00    -0.268 OA
ATOM     12  C   UNL     1       0.077  -2.706  -0.014  0.00  0.00    +0.093 A 
ATOM     13  C   UNL     1       1.222  -1.965  -0.021  0.00  0.00    +0.052 A 
ATOM     14  N   UNL     1       1.158  -0.635  -0.018  0.00  0.00    -0.234 NA
BRANCH  13  15
ATOM     15  C   UNL     1       2.562  -2.653  -0.038  0.00  0.00    +0.034 C 
ATOM     16  C   UNL     1       3.361  -2.250   1.205  0.00  0.00    -0.010 C 
ATOM     17  C   UNL     1       4.744  -2.902   1.151  0.00  0.00    -0.082 C 
ATOM     18  N   UNL     1       5.444  -2.470  -0.066  0.00  0.00    +0.379 N 
ATOM     19  C   UNL     1       4.720  -2.889  -1.272  0.00  0.00    -0.082 C 
ATOM     20  C   UNL     1       3.336  -2.235  -1.292  0.00  0.00    -0.010 C 
ATOM     21  H   UNL     1       5.529  -1.373  -0.071  0.00  0.00    -0.086 HD
ATOM     22  H   UNL     1       6.450  -2.915  -0.088  0.00  0.00    -0.086 HD
ENDBRANCH  13  15
ENDBRANCH   5   7
BRANCH   1  23
ATOM     23  C   UNL     1      -2.559   4.278   0.046  0.00  0.00    -0.043 C 
BRANCH  23  25
ATOM     24  C   UNL     1      -3.315   3.265  -2.019  0.00  0.00    -0.096 C 
ATOM     25  N   UNL     1      -2.997   4.525  -1.333  0.00  0.00    +0.382 N 
ATOM     26  H   UNL     1      -2.165   5.003  -1.872  0.00  0.00    -0.082 HD
BRANCH  25  27
ATOM     27  C   UNL     1      -4.142   5.445  -1.365  0.00  0.00    -0.047 C 
BRANCH  27  28
ATOM     28  C   UNL     1      -4.412   5.874  -2.809  0.00  0.00    +0.102 C 
ATOM     29  C   UNL     1      -5.531   6.938  -2.854  0.00  0.00    +0.032 C 
ATOM     30  C   UNL     1      -6.327   6.592  -4.133  0.00  0.00    +0.030 C 
ATOM     31  C   UNL     1      -5.594   5.360  -4.709  0.00  0.00    +0.160 C 
ATOM     32  O   UNL     1      -4.927   4.763  -3.575  0.00  0.00    -0.378 OA
ENDBRANCH  27  28
ENDBRANCH  25  27
ENDBRANCH  23  25
ENDBRANCH   1  23
TORSDOF 6
