REMARK  Name = ZINC64868849
REMARK  6 active torsions:
REMARK  status: ('A' for Active; 'I' for Inactive)
REMARK    1  A    between atoms: C_1  and  C_2
REMARK    2  A    between atoms: C_7  and  C_8
REMARK    3  A    between atoms: N_9  and  C_20
REMARK    4  A    between atoms: C_13  and  C_15
REMARK    5  A    between atoms: C_20  and  C_21
REMARK    6  A    between atoms: N_23  and  C_24
REMARK                            x       y       z     vdW  Elec       q    Type
REMARK                         _______ _______ _______ _____ _____    ______ ____
ROOT
ATOM      1  C   UNL     1       1.151   1.418   0.008  0.00  0.00    +0.044 C 
ATOM      2  C   UNL     1       0.857  -0.060   0.003  0.00  0.00    -0.046 A 
ATOM      3  C   UNL     1       0.638  -0.716  -1.197  0.00  0.00    +0.028 A 
ATOM      4  C   UNL     1       0.368  -2.073  -1.202  0.00  0.00    +0.053 A 
ATOM      5  C   UNL     1       0.317  -2.777   0.001  0.00  0.00    +0.058 A 
ATOM      6  C   UNL     1       0.537  -2.114   1.197  0.00  0.00    +0.029 A 
ATOM      7  C   UNL     1       0.811  -0.757   1.194  0.00  0.00    -0.046 A 
ATOM      8  C   UNL     1       1.055  -0.038   2.496  0.00  0.00    +0.044 C 
ATOM      9  N   UNL     1       0.061  -4.142   0.204  0.00  0.00    -0.257 N 
ATOM     10  C   UNL     1      -0.195  -5.095  -0.714  0.00  0.00    +0.246 C 
ATOM     11  O   UNL     1      -0.384  -6.214  -0.271  0.00  0.00    -0.270 OA
ATOM     12  C   UNL     1      -0.275  -4.975  -2.111  0.00  0.00    +0.092 C 
ATOM     13  C   UNL     1      -0.110  -3.855  -2.897  0.00  0.00    +0.050 C 
ATOM     14  N   UNL     1       0.176  -2.560  -2.504  0.00  0.00    -0.312 N 
ATOM     15  H   UNL     1       0.254  -1.907  -3.217  0.00  0.00    +0.152 HD
ENDROOT
BRANCH  13  16
ATOM     16  C   UNL     1      -0.257  -4.063  -4.340  0.00  0.00    +0.033 A 
ATOM     17  C   UNL     1      -0.545  -5.232  -5.030  0.00  0.00    +0.017 A 
ATOM     18  C   UNL     1      -0.620  -5.114  -6.398  0.00  0.00    +0.008 A 
ATOM     19  C   UNL     1      -0.414  -3.901  -6.967  0.00  0.00    +0.046 A 
ATOM     20  S   UNL     1      -0.120  -2.880  -5.666  0.00  0.00    -0.095 S 
ENDBRANCH  13  16
BRANCH   9  21
ATOM     21  C   UNL     1       0.075  -4.591   1.599  0.00  0.00    +0.210 C 
BRANCH  21  22
ATOM     22  C   UNL     1       1.496  -4.845   2.031  0.00  0.00    +0.235 C 
ATOM     23  O   UNL     1       2.408  -4.667   1.251  0.00  0.00    -0.274 OA
ATOM     24  N   UNL     1       1.754  -5.268   3.284  0.00  0.00    -0.284 N 
ATOM     25  H   UNL     1       1.022  -5.482   3.884  0.00  0.00    +0.155 HD
BRANCH  24  26
ATOM     26  C   UNL     1       3.078  -5.399   3.721  0.00  0.00    +0.036 A 
ATOM     27  C   UNL     1       3.423  -6.419   4.598  0.00  0.00    +0.026 A 
ATOM     28  C   UNL     1       4.729  -6.547   5.028  0.00  0.00    +0.043 A 
ATOM     29  C   UNL     1       5.696  -5.660   4.585  0.00  0.00    +0.159 A 
ATOM     30  C   UNL     1       5.354  -4.641   3.709  0.00  0.00    +0.160 A 
ATOM     31  C   UNL     1       4.048  -4.513   3.273  0.00  0.00    +0.064 A 
ATOM     32  F   UNL     1       6.298  -3.776   3.279  0.00  0.00    -0.202 F 
ATOM     33  F   UNL     1       6.973  -5.788   5.008  0.00  0.00    -0.202 F 
ENDBRANCH  24  26
ENDBRANCH  21  22
ENDBRANCH   9  21
TORSDOF 4
