REMARK  Name = ZINC17961098
REMARK  7 active torsions:
REMARK  status: ('A' for Active; 'I' for Inactive)
REMARK    1  A    between atoms: C_1  and  C_2
REMARK    2  A    between atoms: C_4  and  C_28
REMARK    3  A    between atoms: C_5  and  N_9
REMARK    4  A    between atoms: C_6  and  C_8
REMARK    5  A    between atoms: C_10  and  C_12
REMARK    6  A    between atoms: C_12  and  N_13
REMARK    7  A    between atoms: C_14  and  C_16
REMARK                            x       y       z     vdW  Elec       q    Type
REMARK                         _______ _______ _______ _____ _____    ______ ____
ROOT
ATOM      1  N   UNL     1       0.858  -6.983   2.265  0.00  0.00    -0.306 N 
ATOM      2  C   UNL     1       0.984  -8.311   2.462  0.00  0.00    +0.220 C 
ATOM      3  O   UNL     1       0.718  -9.085   1.567  0.00  0.00    -0.275 OA
ATOM      4  H   UNL     1       1.071  -6.364   2.981  0.00  0.00    +0.149 HD
ENDROOT
BRANCH   2   5
ATOM      5  C   UNL     1       1.456  -8.833   3.794  0.00  0.00    +0.117 C 
ATOM      6  C   UNL     1       1.527 -10.362   3.754  0.00  0.00    +0.055 C 
ATOM      7  C   UNL     1       2.270 -10.868   4.964  0.00  0.00    -0.004 A 
ATOM      8  C   UNL     1       2.130 -12.198   5.323  0.00  0.00    +0.027 A 
ATOM      9  C   UNL     1       2.799 -12.697   6.425  0.00  0.00    +0.041 A 
ATOM     10  C   UNL     1       3.615 -11.866   7.173  0.00  0.00    +0.023 A 
ATOM     11  C   UNL     1       3.757 -10.540   6.819  0.00  0.00    +0.047 A 
ATOM     12  C   UNL     1       3.082 -10.034   5.712  0.00  0.00    +0.124 A 
ATOM     13  O   UNL     1       3.239  -8.721   5.403  0.00  0.00    -0.491 OA
ATOM     14  C   UNL     1       2.861  -8.293   4.093  0.00  0.00    +0.242 C 
ATOM     15 CL   UNL     1       2.618 -14.366   6.869  0.00  0.00    -0.084 Cl
ENDBRANCH   2   5
BRANCH   1  16
ATOM     16  C   UNL     1       0.399  -6.476   0.969  0.00  0.00    +0.200 C 
BRANCH  16  18
ATOM     17  N   UNL     1      -0.052  -4.280  -0.077  0.00  0.00    -0.284 N 
ATOM     18  C   UNL     1       0.345  -4.970   1.011  0.00  0.00    +0.234 C 
ATOM     19  O   UNL     1       0.659  -4.380   2.022  0.00  0.00    -0.274 OA
ATOM     20  H   UNL     1      -0.370  -4.753  -0.862  0.00  0.00    +0.155 HD
BRANCH  17  25
ATOM     21  C   UNL     1       0.136   1.390  -0.065  0.00  0.00    +0.044 C 
ATOM     22  C   UNL     1       0.086  -0.116  -0.068  0.00  0.00    -0.050 A 
ATOM     23  C   UNL     1       0.759  -0.827  -1.045  0.00  0.00    +0.008 A 
ATOM     24  C   UNL     1       0.715  -2.207  -1.051  0.00  0.00    -0.029 A 
ATOM     25  C   UNL     1      -0.005  -2.882  -0.074  0.00  0.00    +0.039 A 
ATOM     26  C   UNL     1      -0.679  -2.165   0.906  0.00  0.00    -0.029 A 
ATOM     27  C   UNL     1      -0.628  -0.785   0.909  0.00  0.00    +0.008 A 
ATOM     28  C   UNL     1      -1.463  -2.893   1.968  0.00  0.00    +0.045 C 
ATOM     29  C   UNL     1       1.448  -2.981  -2.117  0.00  0.00    +0.045 C 
ENDBRANCH  17  25
ENDBRANCH  16  18
ENDBRANCH   1  16
TORSDOF 4
