REMARK  Name = ZINC39709146
REMARK  7 active torsions:
REMARK  status: ('A' for Active; 'I' for Inactive)
REMARK    1  A    between atoms: C_1  and  C_2
REMARK    2  A    between atoms: C_7  and  C_12
REMARK    3  A    between atoms: C_12  and  C_29
REMARK    4  A    between atoms: C_13  and  C_14
REMARK    5  A    between atoms: N_18  and  C_19
REMARK    6  A    between atoms: C_22  and  S_25
REMARK    7  A    between atoms: S_25  and  N_28
REMARK                            x       y       z     vdW  Elec       q    Type
REMARK                         _______ _______ _______ _____ _____    ______ ____
ROOT
ATOM      1  C   UNL     1       2.384  -6.819   3.248  0.00  0.00    +0.048 A 
ATOM      2  C   UNL     1       2.436  -8.069   3.837  0.00  0.00    +0.027 A 
ATOM      3  C   UNL     1       3.782  -8.448   3.882  0.00  0.00    +0.020 A 
ATOM      4  C   UNL     1       4.515  -7.449   3.334  0.00  0.00    +0.092 A 
ATOM      5  N   UNL     1       3.676  -6.454   2.938  0.00  0.00    -0.316 N 
ENDROOT
BRANCH   5   6
ATOM      6  C   UNL     1       4.062  -5.256   2.322  0.00  0.00    +0.047 A 
ATOM      7  C   UNL     1       3.511  -4.894   1.099  0.00  0.00    +0.028 A 
ATOM      8  C   UNL     1       3.894  -3.713   0.494  0.00  0.00    +0.030 A 
ATOM      9  C   UNL     1       4.824  -2.892   1.104  0.00  0.00    +0.105 A 
ATOM     10  C   UNL     1       5.374  -3.249   2.321  0.00  0.00    +0.030 A 
ATOM     11  C   UNL     1       4.991  -4.426   2.934  0.00  0.00    +0.028 A 
BRANCH   9  12
ATOM     12  S   UNL     1       5.309  -1.386   0.328  0.00  0.00    +0.056 S 
ATOM     13  O   UNL     1       6.596  -1.063   0.837  0.00  0.00    -0.153 OA
ATOM     14  O   UNL     1       5.058  -1.545  -1.062  0.00  0.00    -0.153 OA
BRANCH  12  15
ATOM     15  N   UNL     1       4.279  -0.205   0.863  0.00  0.00    -0.204 NA
ATOM     16  H   UNL     1       4.586   0.712   0.932  0.00  0.00    +0.144 HD
ATOM     17  H   UNL     1       3.368  -0.431   1.107  0.00  0.00    +0.144 HD
ENDBRANCH  12  15
ENDBRANCH   9  12
ENDBRANCH   5   6
BRANCH   1  19
ATOM     18  C   UNL     1       0.017  -6.482   3.472  0.00  0.00    +0.073 C 
ATOM     19  C   UNL     1       1.215  -6.056   3.003  0.00  0.00    +0.044 C 
BRANCH  18  26
ATOM     20  C   UNL     1      -6.867  -7.601   3.937  0.00  0.00    +0.044 C 
ATOM     21  C   UNL     1      -5.510  -6.984   4.156  0.00  0.00    -0.048 A 
ATOM     22  C   UNL     1      -5.230  -6.395   5.402  0.00  0.00    +0.005 A 
ATOM     23  C   UNL     1      -4.043  -5.820   5.684  0.00  0.00    +0.027 A 
ATOM     24  C   UNL     1      -2.987  -5.798   4.663  0.00  0.00    +0.060 A 
ATOM     25  N   UNL     1      -1.775  -5.324   4.653  0.00  0.00    -0.359 N 
ATOM     26  C   UNL     1      -1.202  -5.607   3.331  0.00  0.00    +0.216 C 
ATOM     27  N   UNL     1      -2.243  -6.309   2.570  0.00  0.00    -0.359 N 
ATOM     28  C   UNL     1      -3.284  -6.421   3.344  0.00  0.00    +0.061 A 
ATOM     29  C   UNL     1      -4.611  -7.022   3.152  0.00  0.00    +0.030 A 
ATOM     30  H   UNL     1      -1.331  -4.868   5.385  0.00  0.00    +0.162 HD
ATOM     31  H   UNL     1      -2.169  -6.630   1.658  0.00  0.00    +0.162 HD
ENDBRANCH  18  26
BRANCH  18  32
ATOM     32  C   UNL     1      -0.091  -7.764   4.101  0.00  0.00    +0.099 C 
ATOM     33  N   UNL     1      -0.177  -8.781   4.601  0.00  0.00    -0.191 NA
ENDBRANCH  18  32
ENDBRANCH   1  19
TORSDOF 6
