REMARK  Name = ZINC50562116
REMARK  5 active torsions:
REMARK  status: ('A' for Active; 'I' for Inactive)
REMARK    1  A    between atoms: C_1  and  N_2
REMARK    2  A    between atoms: C_7  and  N_11
REMARK    3  A    between atoms: C_12  and  C_14
REMARK    4  A    between atoms: C_17  and  C_19
REMARK    5  A    between atoms: C_22  and  N_25
REMARK                            x       y       z     vdW  Elec       q    Type
REMARK                         _______ _______ _______ _____ _____    ______ ____
ROOT
ATOM      1  N   UNL     1       1.019  -4.256  -1.119  0.00  0.00    -0.303 N 
ATOM      2  C   UNL     1       0.660  -5.157  -0.183  0.00  0.00    +0.263 C 
ATOM      3  O   UNL     1      -0.472  -5.152   0.263  0.00  0.00    -0.268 OA
ATOM      4  H   UNL     1       1.921  -4.260  -1.475  0.00  0.00    +0.150 HD
ENDROOT
BRANCH   1  11
ATOM      5  C   UNL     1      -0.018   1.461   0.010  0.00  0.00    +0.172 C 
ATOM      6  N   UNL     1       0.002  -0.004   0.002  0.00  0.00    -0.271 N 
ATOM      7  C   UNL     1       0.008  -0.789  -1.088  0.00  0.00    +0.044 A 
ATOM      8  C   UNL     1       0.030  -2.081  -0.670  0.00  0.00    +0.013 A 
ATOM      9  C   UNL     1       0.036  -2.082   0.723  0.00  0.00    +0.140 A 
ATOM     10  N   UNL     1       0.025  -0.837   1.131  0.00  0.00    -0.179 NA
ATOM     11  C   UNL     1       0.047  -3.270  -1.598  0.00  0.00    +0.107 C 
ATOM     12  C   UNL     1       0.448  -2.786  -2.997  0.00  0.00    +0.027 C 
ATOM     13  C   UNL     1      -0.411  -1.580  -3.387  0.00  0.00    +0.008 C 
ATOM     14  C   UNL     1      -0.009  -0.369  -2.536  0.00  0.00    +0.055 C 
ENDBRANCH   1  11
BRANCH   2  15
ATOM     15  C   UNL     1       1.637  -6.148   0.298  0.00  0.00    +0.133 A 
ATOM     16  C   UNL     1       1.280  -7.072   1.245  0.00  0.00    +0.080 A 
ATOM     17  S   UNL     1       2.703  -7.948   1.452  0.00  0.00    -0.075 S 
ATOM     18  C   UNL     1       3.718  -7.065   0.281  0.00  0.00    +0.109 A 
ATOM     19  N   UNL     1       2.873  -6.162  -0.182  0.00  0.00    -0.234 NA
BRANCH  18  20
ATOM     20  C   UNL     1       5.135  -7.288  -0.081  0.00  0.00    +0.007 A 
ATOM     21  C   UNL     1       5.753  -6.472  -1.028  0.00  0.00    +0.013 A 
ATOM     22  C   UNL     1       7.075  -6.685  -1.360  0.00  0.00    +0.033 A 
ATOM     23  C   UNL     1       7.787  -7.706  -0.756  0.00  0.00    +0.126 A 
ATOM     24  C   UNL     1       7.180  -8.519   0.183  0.00  0.00    +0.033 A 
ATOM     25  C   UNL     1       5.860  -8.313   0.529  0.00  0.00    +0.013 A 
BRANCH  23  26
ATOM     26  N   UNL     1       9.205  -7.930  -1.118  0.00  0.00    +0.056 N 
ATOM     27  O   UNL     1       9.739  -7.221  -1.940  0.00  0.00    -0.126 OA
ATOM     28  O   UNL     1       9.830  -8.821  -0.592  0.00  0.00    -0.126 OA
ENDBRANCH  23  26
ENDBRANCH  18  20
ENDBRANCH   2  15
TORSDOF 4
