REMARK  Name = ZINC18222208
REMARK  5 active torsions:
REMARK  status: ('A' for Active; 'I' for Inactive)
REMARK    1  A    between atoms: C_1  and  C_2
REMARK    2  A    between atoms: C_5  and  S_7
REMARK    3  A    between atoms: S_7  and  C_8
REMARK    4  A    between atoms: C_8  and  C_9
REMARK    5  A    between atoms: N_19  and  C_22
REMARK                            x       y       z     vdW  Elec       q    Type
REMARK                         _______ _______ _______ _____ _____    ______ ____
ROOT
ATOM      1  C   UNL     1       0.091  -6.720  -0.470  0.00  0.00    +0.031 A 
ATOM      2  C   UNL     1      -1.038  -7.430  -0.656  0.00  0.00    +0.073 A 
ATOM      3  C   UNL     1      -1.035  -8.828  -0.407  0.00  0.00    +0.196 A 
ATOM      4  O   UNL     1      -2.042  -9.500  -0.567  0.00  0.00    -0.287 OA
ATOM      5  C   UNL     1       0.214  -9.436   0.045  0.00  0.00    +0.129 A 
ATOM      6  C   UNL     1       1.339  -8.624   0.212  0.00  0.00    +0.140 A 
ATOM      7  N   UNL     1       1.250  -7.295  -0.054  0.00  0.00    -0.342 N 
ATOM      8  H   UNL     1       2.036  -6.739   0.061  0.00  0.00    +0.167 HD
ATOM      9  N   UNL     1       2.363  -9.421   0.635  0.00  0.00    -0.274 N 
ATOM     10  H   UNL     1       3.263  -9.117   0.830  0.00  0.00    +0.189 HD
ATOM     11  N   UNL     1       1.918 -10.743   0.745  0.00  0.00    -0.217 N 
ATOM     12  C   UNL     1       0.615 -10.798   0.396  0.00  0.00    +0.285 A 
ATOM     13  O   UNL     1      -0.089 -11.791   0.377  0.00  0.00    -0.265 OA
ENDROOT
BRANCH  11  14
ATOM     14  C   UNL     1       2.697 -11.831   1.152  0.00  0.00    +0.067 A 
ATOM     15  C   UNL     1       4.030 -11.643   1.492  0.00  0.00    +0.028 A 
ATOM     16  C   UNL     1       4.797 -12.720   1.894  0.00  0.00    +0.002 A 
ATOM     17  C   UNL     1       4.238 -13.983   1.956  0.00  0.00    +0.000 A 
ATOM     18  C   UNL     1       2.911 -14.173   1.617  0.00  0.00    +0.002 A 
ATOM     19  C   UNL     1       2.138 -13.100   1.222  0.00  0.00    +0.028 A 
ENDBRANCH  11  14
BRANCH   1  20
ATOM     20  C   UNL     1       0.070  -5.237  -0.738  0.00  0.00    +0.129 C 
BRANCH  20  21
ATOM     21  S   UNL     1       0.064  -4.338   0.838  0.00  0.00    -0.091 S 
BRANCH  21  26
ATOM     22  C   UNL     1      -0.018   1.503   0.010  0.00  0.00    +0.075 C 
ATOM     23  C   UNL     1       0.002  -0.004   0.002  0.00  0.00    +0.100 A 
ATOM     24  N   UNL     1       0.010  -0.845  -1.012  0.00  0.00    -0.146 NA
ATOM     25  N   UNL     1       0.027  -2.095  -0.849  0.00  0.00    -0.135 NA
ATOM     26  C   UNL     1       0.039  -2.642   0.360  0.00  0.00    +0.159 A 
ATOM     27  S   UNL     1       0.031  -1.162   1.368  0.00  0.00    -0.044 S 
ENDBRANCH  21  26
ENDBRANCH  20  21
ENDBRANCH   1  20
TORSDOF 4
