REMARK  Name = ZINC09540921
REMARK  8 active torsions:
REMARK  status: ('A' for Active; 'I' for Inactive)
REMARK    1  A    between atoms: C_1  and  O_2
REMARK    2  A    between atoms: O_2  and  C_3
REMARK    3  A    between atoms: C_6  and  C_9
REMARK    4  A    between atoms: C_11  and  C_15
REMARK    5  A    between atoms: C_18  and  S_21
REMARK    6  A    between atoms: N_19  and  N_20
REMARK    7  A    between atoms: S_21  and  C_22
REMARK    8  A    between atoms: C_22  and  C_23
REMARK                            x       y       z     vdW  Elec       q    Type
REMARK                         _______ _______ _______ _____ _____    ______ ____
ROOT
ATOM      1  C   UNL     1       3.794  -5.404   6.238  0.00  0.00    +0.202 A 
ATOM      2  N   UNL     1       3.530  -6.582   5.723  0.00  0.00    -0.125 NA
ATOM      3  N   UNL     1       3.997  -7.507   6.482  0.00  0.00    -0.120 NA
ATOM      4  C   UNL     1       4.588  -6.976   7.529  0.00  0.00    +0.209 A 
ATOM      5  N   UNL     1       4.485  -5.620   7.407  0.00  0.00    -0.222 N 
ENDROOT
BRANCH   1   8
ATOM      6  C   UNL     1       2.578  -2.539   4.292  0.00  0.00    +0.066 A 
ATOM      7  C   UNL     1       2.716  -3.885   4.466  0.00  0.00    +0.061 A 
ATOM      8  C   UNL     1       3.424  -4.091   5.665  0.00  0.00    +0.132 A 
ATOM      9  N   UNL     1       3.700  -2.914   6.190  0.00  0.00    -0.170 NA
ATOM     10  N   UNL     1       3.185  -1.922   5.345  0.00  0.00    -0.276 N 
ATOM     11  H   UNL     1       3.248  -0.964   5.486  0.00  0.00    +0.189 HD
BRANCH   6  15
ATOM     12  C   UNL     1       0.626  -0.618   1.041  0.00  0.00    +0.120 A 
ATOM     13  C   UNL     1       1.202   0.142   2.050  0.00  0.00    +0.046 A 
ATOM     14  C   UNL     1       1.836  -0.478   3.106  0.00  0.00    +0.013 A 
ATOM     15  C   UNL     1       1.898  -1.871   3.160  0.00  0.00    +0.000 A 
ATOM     16  C   UNL     1       1.317  -2.631   2.145  0.00  0.00    +0.013 A 
ATOM     17  C   UNL     1       0.680  -2.005   1.095  0.00  0.00    +0.046 A 
BRANCH  12  19
ATOM     18  C   UNL     1      -0.017   1.425   0.010  0.00  0.00    +0.277 C 
ATOM     19  O   UNL     1       0.002  -0.004   0.002  0.00  0.00    -0.495 OA
ENDBRANCH  12  19
ENDBRANCH   6  15
ENDBRANCH   1   8
BRANCH   5  20
ATOM     20  N   UNL     1       4.964  -4.675   8.269  0.00  0.00    -0.295 N 
ATOM     21  H   UNL     1       4.279  -4.446   8.973  0.00  0.00    +0.163 HD
ATOM     22  H   UNL     1       5.830  -4.976   8.692  0.00  0.00    +0.163 HD
ENDBRANCH   5  20
BRANCH   4  23
ATOM     23  S   UNL     1       5.375  -7.851   8.841  0.00  0.00    -0.080 S 
BRANCH  23  24
ATOM     24  C   UNL     1       5.166  -9.596   8.392  0.00  0.00    +0.115 C 
BRANCH  24  25
ATOM     25  C   UNL     1       5.803 -10.466   9.445  0.00  0.00    -0.001 A 
ATOM     26  C   UNL     1       7.133 -10.830   9.331  0.00  0.00    +0.046 A 
ATOM     27  C   UNL     1       7.716 -11.628  10.299  0.00  0.00    +0.020 A 
ATOM     28  C   UNL     1       6.971 -12.062  11.379  0.00  0.00    +0.003 A 
ATOM     29  C   UNL     1       5.642 -11.699  11.493  0.00  0.00    +0.020 A 
ATOM     30  C   UNL     1       5.059 -10.896  10.529  0.00  0.00    +0.046 A 
ATOM     31 CL   UNL     1       3.392 -10.434  10.677  0.00  0.00    -0.083 Cl
ATOM     32 CL   UNL     1       8.069 -10.285   7.974  0.00  0.00    -0.083 Cl
ENDBRANCH  24  25
ENDBRANCH  23  24
ENDBRANCH   4  23
TORSDOF 7
