REMARK  Name = ZINC55023937
REMARK  5 active torsions:
REMARK  status: ('A' for Active; 'I' for Inactive)
REMARK    1  A    between atoms: C_4  and  C_7
REMARK    2  A    between atoms: C_7  and  C_9
REMARK    3  A    between atoms: C_7  and  O_13
REMARK    4  A    between atoms: C_9  and  C_10
REMARK    5  A    between atoms: O_13  and  C_14
REMARK                            x       y       z     vdW  Elec       q    Type
REMARK                         _______ _______ _______ _____ _____    ______ ____
ROOT
ATOM      1  C   UNL     1       3.707  -0.699  -0.048  0.00  0.00    +0.210 C 
ENDROOT
BRANCH   1   5
ATOM      2  C   UNL     1       0.048   1.499  -0.194  0.00  0.00    +0.000 A 
ATOM      3  C   UNL     1       1.256   2.170  -0.156  0.00  0.00    +0.000 A 
ATOM      4  C   UNL     1       2.440   1.459  -0.108  0.00  0.00    +0.007 A 
ATOM      5  C   UNL     1       2.416   0.076  -0.098  0.00  0.00    -0.007 A 
ATOM      6  C   UNL     1       1.208  -0.594  -0.135  0.00  0.00    +0.007 A 
ATOM      7  C   UNL     1       0.024   0.117  -0.184  0.00  0.00    +0.000 A 
ENDBRANCH   1   5
BRANCH   1   8
ATOM      8  C   UNL     1       3.966  -1.165   1.387  0.00  0.00    +0.118 C 
BRANCH   8   9
ATOM      9  C   UNL     1       5.315  -1.833   1.462  0.00  0.00    +0.067 C 
ATOM     10  N   UNL     1       5.420  -3.135   1.255  0.00  0.00    -0.390 N 
ATOM     11  N   UNL     1       6.393  -1.119   1.734  0.00  0.00    -0.348 N 
ATOM     12  H   UNL     1       4.629  -3.659   1.055  0.00  0.00    +0.157 HD
ATOM     13  H   UNL     1       6.316  -0.164   1.886  0.00  0.00    +0.143 HD
ATOM     14  H   UNL     1       7.261  -1.549   1.782  0.00  0.00    +0.143 HD
ATOM     15  H   UNL     1       6.288  -3.565   1.303  0.00  0.00    +0.157 HD
ENDBRANCH   8   9
ENDBRANCH   1   8
BRANCH   1  16
ATOM     16  O   UNL     1       3.614  -1.836  -0.908  0.00  0.00    -0.484 OA
BRANCH  16  17
ATOM     17  C   UNL     1       4.726  -2.168  -1.615  0.00  0.00    +0.124 A 
ATOM     18  C   UNL     1       4.672  -3.183  -2.559  0.00  0.00    +0.065 A 
ATOM     19  C   UNL     1       5.805  -3.519  -3.277  0.00  0.00    +0.046 A 
ATOM     20  C   UNL     1       6.992  -2.844  -3.054  0.00  0.00    +0.040 A 
ATOM     21  C   UNL     1       7.048  -1.831  -2.113  0.00  0.00    +0.046 A 
ATOM     22  C   UNL     1       5.916  -1.488  -1.397  0.00  0.00    +0.065 A 
ATOM     23 CL   UNL     1       8.539  -0.987  -1.835  0.00  0.00    -0.083 Cl
ATOM     24 CL   UNL     1       5.738  -4.789  -4.459  0.00  0.00    -0.083 Cl
ENDBRANCH  16  17
ENDBRANCH   1  16
TORSDOF 5
