REMARK  Name = ZINC20877005
REMARK  14 active torsions:
REMARK  status: ('A' for Active; 'I' for Inactive)
REMARK    1  A    between atoms: C_1  and  C_2
REMARK    2  A    between atoms: C_2  and  CA_3
REMARK    3  A    between atoms: CA_3  and  C_5
REMARK    4  A    between atoms: CA_3  and  N_7
REMARK    5  A    between atoms: C_5  and  O_6
REMARK    6  A    between atoms: N_7  and  C_8
REMARK    7  A    between atoms: C_8  and  C_9
REMARK    8  A    between atoms: C_11  and  O_30
REMARK    9  A    between atoms: C_12  and  O_16
REMARK   10  A    between atoms: O_16  and  C_17
REMARK   11  A    between atoms: C_17  and  C_18
REMARK   12  A    between atoms: C_18  and  C_20
REMARK   13  A    between atoms: C_18  and  O_29
REMARK   14  A    between atoms: O_30  and  C_31
REMARK                            x       y       z     vdW  Elec       q    Type
REMARK                         _______ _______ _______ _____ _____    ______ ____
ROOT
ATOM      1  C   UNL     1       0.821   0.696   4.852  0.00  0.00    -0.060 A 
ATOM      2  C   UNL     1      -0.065  -0.147   4.206  0.00  0.00    +0.051 A 
ATOM      3  C   UNL     1      -0.680   0.262   3.033  0.00  0.00    +0.163 A 
ATOM      4  C   UNL     1      -0.396   1.517   2.503  0.00  0.00    +0.176 A 
ATOM      5  C   UNL     1       0.493   2.356   3.155  0.00  0.00    +0.063 A 
ATOM      6  C   UNL     1       1.100   1.944   4.328  0.00  0.00    +0.021 A 
ATOM      7 BR   UNL     1       0.878   4.065   2.441  0.00  0.00    -0.046 Br
ENDROOT
BRANCH   3   8
ATOM      8  O   UNL     1      -1.556  -0.563   2.400  0.00  0.00    -0.491 OA
ATOM      9  C   UNL     1      -1.799  -1.836   3.002  0.00  0.00    +0.277 C 
ENDBRANCH   3   8
BRANCH   1  10
ATOM     10  C   UNL     1       1.485   0.251   6.130  0.00  0.00    -0.046 C 
BRANCH  10  11
ATOM     11  N   UNL     1       0.656   0.646   7.276  0.00  0.00    +0.385 N 
ATOM     12  H1  UNL     1      -0.360   0.250   7.129  0.00  0.00    -0.085 HD
ATOM     13  H2  UNL     1       0.618   1.745   7.322  0.00  0.00    -0.085 HD
BRANCH  11  14
ATOM     14  CA  UNL     1       1.209   0.123   8.531  0.00  0.00    -0.046 C 
BRANCH  14  16
ATOM     15  C   UNL     1       2.929   0.491  10.306  0.00  0.00    +0.002 C 
ATOM     16  C   UNL     1       2.254   1.099   9.075  0.00  0.00    -0.017 C 
ENDBRANCH  14  16
BRANCH  14  17
ATOM     17  C   UNL     1       0.084  -0.042   9.555  0.00  0.00    +0.140 C 
BRANCH  17  18
ATOM     18  O   UNL     1      -0.452   1.241   9.884  0.00  0.00    -0.397 OA
ATOM     19  H   UNL     1      -1.276   1.323  10.609  0.00  0.00    +0.209 HD
ENDBRANCH  17  18
ENDBRANCH  14  17
ENDBRANCH  11  14
ENDBRANCH  10  11
ENDBRANCH   1  10
BRANCH   4  20
ATOM     20  O   UNL     1      -0.993   1.920   1.349  0.00  0.00    -0.484 OA
BRANCH  20  21
ATOM     21  C   UNL     1      -0.317   1.617   0.128  0.00  0.00    +0.265 C 
BRANCH  21  22
ATOM     22  C   UNL     1      -1.135   2.145  -1.053  0.00  0.00    +0.182 C 
BRANCH  22  23
ATOM     23  C   UNL     1      -0.485   1.718  -2.344  0.00  0.00    -0.012 A 
ATOM     24  C   UNL     1       0.605   2.416  -2.831  0.00  0.00    +0.010 A 
ATOM     25  C   UNL     1       1.204   2.028  -4.015  0.00  0.00    +0.050 A 
ATOM     26  C   UNL     1       0.712   0.940  -4.717  0.00  0.00    +0.166 A 
ATOM     27  C   UNL     1      -0.386   0.237  -4.227  0.00  0.00    +0.167 A 
ATOM     28  C   UNL     1      -0.978   0.628  -3.037  0.00  0.00    +0.055 A 
ATOM     29  O   UNL     1      -0.674  -0.780  -5.090  0.00  0.00    -0.453 OA
ATOM     30  C   UNL     1       0.506  -0.944  -5.898  0.00  0.00    +0.466 C 
ATOM     31  O   UNL     1       1.113   0.362  -5.888  0.00  0.00    -0.453 OA
ENDBRANCH  22  23
BRANCH  22  32
ATOM     32  O   UNL     1      -1.188   3.571  -0.995  0.00  0.00    -0.384 OA
ATOM     33  H   UNL     1      -1.736   4.133  -1.766  0.00  0.00    +0.210 HD
ENDBRANCH  22  32
ENDBRANCH  21  22
ENDBRANCH  20  21
ENDBRANCH   4  20
TORSDOF 12
