REMARK  Name = ZINC39461401
REMARK  11 active torsions:
REMARK  status: ('A' for Active; 'I' for Inactive)
REMARK    1  A    between atoms: C_1  and  C_2
REMARK    2  A    between atoms: C_4  and  C_9
REMARK    3  A    between atoms: C_5  and  C_8
REMARK    4  A    between atoms: C_9  and  C_10
REMARK    5  A    between atoms: C_10  and  N_11
REMARK    6  A    between atoms: N_11  and  C_12
REMARK    7  A    between atoms: C_12  and  C_13
REMARK    8  A    between atoms: N_16  and  C_27
REMARK    9  A    between atoms: C_18  and  C_20
REMARK   10  A    between atoms: C_30  and  O_33
REMARK   11  A    between atoms: O_33  and  C_34
REMARK                            x       y       z     vdW  Elec       q    Type
REMARK                         _______ _______ _______ _____ _____    ______ ____
ROOT
ATOM      1  C   UNL     1      -2.210  -1.986  -6.428  0.00  0.00    +0.014 C 
ATOM      2  C   UNL     1      -3.042  -0.700  -6.647  0.00  0.00    +0.127 C 
ATOM      3  N   UNL     1      -4.439  -1.151  -6.752  0.00  0.00    -0.266 N 
ATOM      4  N   UNL     1      -4.507  -2.505  -6.553  0.00  0.00    -0.232 NA
ATOM      5  C   UNL     1      -3.191  -3.072  -6.949  0.00  0.00    +0.107 C 
ATOM      6  H   UNL     1      -4.717  -2.719  -5.590  0.00  0.00    +0.145 HD
ENDROOT
BRANCH   5   7
ATOM      7  C   UNL     1      -2.944  -4.393  -6.267  0.00  0.00    -0.010 A 
ATOM      8  C   UNL     1      -3.675  -4.740  -5.146  0.00  0.00    +0.006 A 
ATOM      9  C   UNL     1      -3.449  -5.952  -4.521  0.00  0.00    +0.000 A 
ATOM     10  C   UNL     1      -2.492  -6.817  -5.016  0.00  0.00    +0.001 A 
ATOM     11  C   UNL     1      -1.760  -6.472  -6.136  0.00  0.00    +0.020 A 
ATOM     12  C   UNL     1      -1.990  -5.261  -6.766  0.00  0.00    +0.046 A 
ATOM     13 CL   UNL     1      -1.075  -4.830  -8.177  0.00  0.00    -0.083 Cl
ENDBRANCH   5   7
BRANCH   3  14
ATOM     14  C   UNL     1      -5.534  -0.321  -7.016  0.00  0.00    +0.045 A 
ATOM     15  C   UNL     1      -5.343   1.042  -7.207  0.00  0.00    +0.028 A 
ATOM     16  C   UNL     1      -6.425   1.860  -7.467  0.00  0.00    +0.047 A 
ATOM     17  C   UNL     1      -7.701   1.322  -7.538  0.00  0.00    +0.120 A 
ATOM     18  C   UNL     1      -7.893  -0.038  -7.348  0.00  0.00    +0.047 A 
ATOM     19  C   UNL     1      -6.812  -0.859  -7.093  0.00  0.00    +0.028 A 
BRANCH  17  20
ATOM     20  O   UNL     1      -8.766   2.129  -7.795  0.00  0.00    -0.495 OA
ATOM     21  C   UNL     1     -10.051   1.507  -7.854  0.00  0.00    +0.277 C 
ENDBRANCH  17  20
ENDBRANCH   3  14
BRANCH   1  22
ATOM     22  C   UNL     1      -1.896  -2.193  -4.945  0.00  0.00    -0.076 C 
BRANCH  22  23
ATOM     23  N   UNL     1      -0.938  -1.173  -4.500  0.00  0.00    +0.380 N 
ATOM     24  H   UNL     1      -1.337  -0.256  -4.635  0.00  0.00    -0.086 HD
ATOM     25  H   UNL     1      -0.088  -1.252  -5.038  0.00  0.00    -0.086 HD
BRANCH  23  26
ATOM     26  C   UNL     1      -0.637  -1.371  -3.076  0.00  0.00    -0.078 C 
BRANCH  26  27
ATOM     27  C   UNL     1       0.361  -0.308  -2.612  0.00  0.00    +0.016 C 
BRANCH  27  30
ATOM     28  C   UNL     1      -0.137   1.530   0.061  0.00  0.00    +0.039 C 
ATOM     29  C   UNL     1      -0.106   0.000   0.049  0.00  0.00    +0.153 C 
ATOM     30  C   UNL     1       0.670  -0.512  -1.152  0.00  0.00    -0.023 C 
ATOM     31  C   UNL     1       1.688  -1.186  -0.613  0.00  0.00    +0.061 C 
ATOM     32  N   UNL     1       1.629  -1.147   0.737  0.00  0.00    -0.159 NA
ATOM     33  N   UNL     1       0.667  -0.514   1.192  0.00  0.00    -0.180 NA
ATOM     34  C   UNL     1       2.760  -1.893  -1.402  0.00  0.00    +0.067 C 
ENDBRANCH  27  30
ENDBRANCH  26  27
ENDBRANCH  23  26
ENDBRANCH  22  23
ENDBRANCH   1  22
TORSDOF 8
