REMARK  Name = ZINC16588396
REMARK  9 active torsions:
REMARK  status: ('A' for Active; 'I' for Inactive)
REMARK    1  A    between atoms: C_1  and  C_2
REMARK    2  A    between atoms: C_2  and  N_52
REMARK    3  A    between atoms: C_3  and  C_4
REMARK    4  A    between atoms: C_3  and  N_52
REMARK    5  A    between atoms: C_4  and  S_5
REMARK    6  A    between atoms: S_5  and  C_8
REMARK    7  A    between atoms: C_15  and  C_16
REMARK    8  A    between atoms: C_15  and  N_52
REMARK    9  A    between atoms: N_18  and  C_19
REMARK                            x       y       z     vdW  Elec       q    Type
REMARK                         _______ _______ _______ _____ _____    ______ ____
ROOT
ATOM      1  N   UNL     1       4.487  -4.170  -0.127  0.00  0.00    +0.386 N 
ATOM      2  H   UNL     1       3.822  -4.383  -0.880  0.00  0.00    -0.081 HD
ENDROOT
BRANCH   1   4
ATOM      3  C   UNL     1       2.420  -4.174   1.178  0.00  0.00    -0.017 C 
ATOM      4  C   UNL     1       3.895  -4.579   1.164  0.00  0.00    -0.082 C 
ENDBRANCH   1   4
BRANCH   1   5
ATOM      5  C   UNL     1       5.740  -4.915  -0.367  0.00  0.00    -0.055 C 
BRANCH   5   6
ATOM      6  C   UNL     1       5.402  -6.390  -0.591  0.00  0.00    +0.153 C 
BRANCH   6   7
ATOM      7  S   UNL     1       6.927  -7.318  -0.914  0.00  0.00    -0.005 S 
ATOM      8  O   UNL     1       7.481  -6.930  -2.164  0.00  0.00    -0.169 OA
ATOM      9  O   UNL     1       7.734  -7.355   0.255  0.00  0.00    -0.169 OA
BRANCH   7  10
ATOM     10  C   UNL     1       6.403  -8.983  -1.151  0.00  0.00    +0.088 A 
ATOM     11  C   UNL     1       6.326  -9.844  -0.072  0.00  0.00    +0.028 A 
ATOM     12  C   UNL     1       5.910 -11.149  -0.257  0.00  0.00    +0.017 A 
ATOM     13  C   UNL     1       5.581 -11.597  -1.524  0.00  0.00    +0.018 A 
ATOM     14  C   UNL     1       5.663 -10.737  -2.604  0.00  0.00    +0.017 A 
ATOM     15  C   UNL     1       6.074  -9.430  -2.417  0.00  0.00    +0.028 A 
ATOM     16 BR   UNL     1       5.018 -13.384  -1.778  0.00  0.00    -0.050 Br
ENDBRANCH   7  10
ENDBRANCH   6   7
ENDBRANCH   5   6
ENDBRANCH   1   5
BRANCH   1  17
ATOM     17  C   UNL     1       4.756  -2.716  -0.121  0.00  0.00    +0.019 C 
BRANCH  17  18
ATOM     18  C   UNL     1       4.907  -2.248  -1.546  0.00  0.00    +0.201 C 
ATOM     19  O   UNL     1       4.717  -3.020  -2.462  0.00  0.00    -0.278 OA
ATOM     20  N   UNL     1       5.254  -0.971  -1.802  0.00  0.00    -0.287 N 
ATOM     21  H   UNL     1       5.481  -0.374  -1.071  0.00  0.00    +0.155 HD
BRANCH  20  22
ATOM     22  C   UNL     1       5.288  -0.505  -3.123  0.00  0.00    +0.037 A 
ATOM     23  C   UNL     1       4.910   0.799  -3.409  0.00  0.00    +0.027 A 
ATOM     24  C   UNL     1       4.941   1.258  -4.712  0.00  0.00    +0.051 A 
ATOM     25  C   UNL     1       5.351   0.418  -5.737  0.00  0.00    +0.162 A 
ATOM     26  C   UNL     1       5.733  -0.888  -5.453  0.00  0.00    +0.164 A 
ATOM     27  C   UNL     1       5.699  -1.348  -4.146  0.00  0.00    +0.072 A 
ATOM     28  O   UNL     1       6.146  -1.724  -6.444  0.00  0.00    -0.485 OA
ATOM     29  C   UNL     1       5.812  -1.348  -7.785  0.00  0.00    +0.270 C 
ATOM     30  C   UNL     1       6.141   0.140  -7.963  0.00  0.00    +0.270 C 
ATOM     31  O   UNL     1       5.368   0.886  -7.016  0.00  0.00    -0.485 OA
ENDBRANCH  20  22
ENDBRANCH  17  18
ENDBRANCH   1  17
TORSDOF 8
