REMARK  Name = ZINC11859145
REMARK  5 active torsions:
REMARK  status: ('A' for Active; 'I' for Inactive)
REMARK    1  A    between atoms: C_3  and  C_6
REMARK    2  A    between atoms: C_6  and  C_8
REMARK    3  A    between atoms: C_10  and  C_22
REMARK    4  A    between atoms: C_16  and  C_17
REMARK    5  A    between atoms: C_16  and  O_21
REMARK                            x       y       z     vdW  Elec       q    Type
REMARK                         _______ _______ _______ _____ _____    ______ ____
ROOT
ATOM      1  C   UNL     1      -0.255   2.068  -1.143  0.00  0.00    +0.145 C 
ATOM      2  C   UNL     1      -0.013   1.086   0.008  0.00  0.00    +0.120 C 
ATOM      3  N   UNL     1       1.425   0.998   0.269  0.00  0.00    -0.292 N 
ATOM      4  C   UNL     1       2.243   2.032   0.025  0.00  0.00    +0.302 C 
ATOM      5  O   UNL     1       3.428   1.909   0.269  0.00  0.00    -0.253 OA
ATOM      6  N   UNL     1       1.806   3.196  -0.479  0.00  0.00    -0.264 N 
ATOM      7  C   UNL     1       0.391   3.410  -0.782  0.00  0.00    +0.243 C 
ATOM      8  H   UNL     1       1.793   0.174   0.626  0.00  0.00    +0.151 HD
ATOM      9  H   UNL     1       2.442   3.910  -0.645  0.00  0.00    +0.153 HD
ENDROOT
BRANCH   2  10
ATOM     10  C   UNL     1      -0.721   1.573   1.246  0.00  0.00    -0.023 A 
ATOM     11  C   UNL     1      -0.038   2.286   2.220  0.00  0.00    +0.025 A 
ATOM     12  C   UNL     1      -0.722   2.720   3.340  0.00  0.00    +0.111 A 
ATOM     13  N   UNL     1      -2.004   2.456   3.492  0.00  0.00    -0.263 NA
ATOM     14  C   UNL     1      -2.684   1.777   2.589  0.00  0.00    +0.111 A 
ATOM     15  C   UNL     1      -2.069   1.314   1.441  0.00  0.00    +0.025 A 
ENDBRANCH   2  10
BRANCH   7  16
ATOM     16  C   UNL     1       0.262   4.373  -1.965  0.00  0.00    +0.436 C 
ATOM     17  F   UNL     1       0.900   3.827  -3.083  0.00  0.00    -0.166 F 
ATOM     18  F   UNL     1      -1.092   4.577  -2.254  0.00  0.00    -0.166 F 
ATOM     19  F   UNL     1       0.858   5.596  -1.638  0.00  0.00    -0.166 F 
ENDBRANCH   7  16
BRANCH   1  20
ATOM     20  C   UNL     1       0.366   1.531  -2.406  0.00  0.00    +0.179 C 
ATOM     21  O   UNL     1       1.296   0.753  -2.342  0.00  0.00    -0.291 OA
BRANCH  20  24
ATOM     22  C   UNL     1      -0.379   2.105  -6.000  0.00  0.00    +0.008 A 
ATOM     23  C   UNL     1       0.294   1.565  -4.936  0.00  0.00    +0.019 A 
ATOM     24  C   UNL     1      -0.134   1.933  -3.665  0.00  0.00    +0.055 A 
ATOM     25  S   UNL     1      -1.474   3.050  -4.038  0.00  0.00    -0.094 S 
ATOM     26  C   UNL     1      -1.406   2.968  -5.769  0.00  0.00    +0.046 A 
ENDBRANCH  20  24
ENDBRANCH   1  20
BRANCH   7  27
ATOM     27  O   UNL     1      -0.264   3.965   0.360  0.00  0.00    -0.364 OA
ATOM     28  H   UNL     1       0.097   4.815   0.647  0.00  0.00    +0.212 HD
ENDBRANCH   7  27
TORSDOF 5
