REMARK  Name = ZINC41008910
REMARK  2 active torsions:
REMARK  status: ('A' for Active; 'I' for Inactive)
REMARK    1  A    between atoms: C_3  and  C_6
REMARK    2  A    between atoms: C_15  and  C_17
REMARK                            x       y       z     vdW  Elec       q    Type
REMARK                         _______ _______ _______ _____ _____    ______ ____
ROOT
ATOM      1  C   UNL     1       3.735   1.820  -0.024  0.00  0.00    +0.192 A 
ATOM      2  N   UNL     1       4.120   3.050  -0.290  0.00  0.00    -0.126 NA
ATOM      3  N   UNL     1       5.402   3.134  -0.210  0.00  0.00    -0.120 NA
ATOM      4  C   UNL     1       5.897   1.974   0.109  0.00  0.00    +0.220 A 
ATOM      5  N   UNL     1       4.872   1.072   0.252  0.00  0.00    -0.184 N 
ATOM      6  N   UNL     1       5.230  -0.224   0.599  0.00  0.00    -0.140 NA
ATOM      7  C   UNL     1       6.480  -0.555   0.781  0.00  0.00    +0.188 A 
ATOM      8  S   UNL     1       7.328   0.984   0.460  0.00  0.00    -0.011 S 
ATOM      9  N   UNL     1       7.014  -1.790   1.128  0.00  0.00    -0.263 N 
ATOM     10  C   UNL     1       8.346  -1.933   1.270  0.00  0.00    +0.225 C 
ATOM     11  O   UNL     1       9.080  -0.983   1.095  0.00  0.00    -0.275 OA
ATOM     12  H   UNL     1       6.427  -2.550   1.268  0.00  0.00    +0.157 HD
ENDROOT
BRANCH  10  13
ATOM     13  C   UNL     1       8.925  -3.272   1.647  0.00  0.00    +0.048 C 
ATOM     14  C   UNL     1       8.555  -4.306   0.581  0.00  0.00    +0.019 C 
ATOM     15  C   UNL     1       9.143  -5.665   0.964  0.00  0.00    -0.009 C 
ATOM     16  C   UNL     1      10.665  -5.554   1.058  0.00  0.00    +0.007 C 
ATOM     17  C   UNL     1      11.036  -4.521   2.124  0.00  0.00    -0.009 C 
ATOM     18  C   UNL     1      10.448  -3.161   1.742  0.00  0.00    +0.019 C 
ATOM     19  C   UNL     1      10.472  -4.958   3.477  0.00  0.00    +0.007 C 
ATOM     20  C   UNL     1       8.948  -5.069   3.382  0.00  0.00    -0.009 C 
ATOM     21  C   UNL     1       8.578  -6.103   2.317  0.00  0.00    +0.007 C 
ATOM     22  C   UNL     1       8.361  -3.709   3.000  0.00  0.00    +0.019 C 
ENDBRANCH  10  13
BRANCH   1  25
ATOM     23  C   UNL     1      -0.016   1.353   0.009  0.00  0.00    +0.008 A 
ATOM     24  C   UNL     1       1.177   2.042   0.002  0.00  0.00    +0.019 A 
ATOM     25  C   UNL     1       2.348   1.327  -0.013  0.00  0.00    +0.058 A 
ATOM     26  S   UNL     1       1.752  -0.356  -0.017  0.00  0.00    -0.093 S 
ATOM     27  C   UNL     1       0.002  -0.004   0.002  0.00  0.00    +0.046 A 
ENDBRANCH   1  25
TORSDOF 2
