REMARK  Name = ZINC48529961
REMARK  5 active torsions:
REMARK  status: ('A' for Active; 'I' for Inactive)
REMARK    1  A    between atoms: C_1  and  N_2
REMARK    2  A    between atoms: C_3  and  C_9
REMARK    3  A    between atoms: C_11  and  C_12
REMARK    4  A    between atoms: C_11  and  C_14
REMARK    5  A    between atoms: C_14  and  C_16
REMARK                            x       y       z     vdW  Elec       q    Type
REMARK                         _______ _______ _______ _____ _____    ______ ____
ROOT
ATOM      1  C   UNL     1       0.019  -0.355  -2.471  0.00  0.00    +0.223 C 
ATOM      2  O   UNL     1      -0.122   0.960  -2.748  0.00  0.00    -0.284 OA
ATOM      3  C   UNL     1       0.106  -1.283  -3.514  0.00  0.00    +0.147 C 
ENDROOT
BRANCH   1   6
ATOM      4  C   UNL     1      -2.100   0.213  -0.322  0.00  0.00    +0.150 C 
ATOM      5  N   UNL     1      -0.861  -0.549  -0.148  0.00  0.00    -0.330 N 
ATOM      6  C   UNL     1       0.079  -0.793  -1.128  0.00  0.00    +0.093 A 
ATOM      7  C   UNL     1       1.092  -1.545  -0.556  0.00  0.00    +0.052 A 
ATOM      8  C   UNL     1       0.746  -1.749   0.781  0.00  0.00    +0.078 A 
ATOM      9  C   UNL     1      -0.443  -1.129   1.005  0.00  0.00    +0.128 A 
ATOM     10 CL   UNL     1      -1.290  -1.089   2.520  0.00  0.00    -0.062 Cl
ATOM     11 CL   UNL     1       1.674  -2.632   1.952  0.00  0.00    -0.080 Cl
ENDBRANCH   1   6
BRANCH   3  12
ATOM     12  C   UNL     1       0.172  -0.831  -4.871  0.00  0.00    +0.107 C 
ATOM     13  N   UNL     1       0.224  -0.473  -5.947  0.00  0.00    -0.191 NA
ENDBRANCH   3  12
BRANCH   3  14
ATOM     14  C   UNL     1       0.130  -2.716  -3.217  0.00  0.00    +0.208 C 
ATOM     15  O   UNL     1      -0.850  -3.254  -2.733  0.00  0.00    -0.286 OA
BRANCH  14  16
ATOM     16  C   UNL     1       1.340  -3.508  -3.505  0.00  0.00    +0.030 A 
ATOM     17  C   UNL     1       1.435  -4.900  -3.139  0.00  0.00    +0.019 A 
ATOM     18  C   UNL     1       2.594  -5.511  -3.458  0.00  0.00    +0.046 A 
ATOM     19  S   UNL     1       3.532  -4.215  -4.238  0.00  0.00    -0.104 S 
ATOM     20  C   UNL     1       2.429  -2.955  -4.139  0.00  0.00    +0.057 A 
ENDBRANCH  14  16
ENDBRANCH   3  14
TORSDOF 4
