REMARK  Name = ZINC01809801
REMARK  4 active torsions:
REMARK  status: ('A' for Active; 'I' for Inactive)
REMARK    1  A    between atoms: C_4  and  C_7
REMARK    2  A    between atoms: C_7  and  C_8
REMARK    3  A    between atoms: N_25  and  C_28
REMARK    4  A    between atoms: C_28  and  C_29
REMARK                            x       y       z     vdW  Elec       q    Type
REMARK                         _______ _______ _______ _____ _____    ______ ____
ROOT
ATOM      1  C   UNL     1       3.847  -0.921   1.516  0.00  0.00    +0.132 A 
ATOM      2  C   UNL     1       4.486   0.169   2.263  0.00  0.00    +0.296 A 
ATOM      3  O   UNL     1       4.479   1.311   1.832  0.00  0.00    -0.264 OA
ATOM      4  N   UNL     1       5.075  -0.122   3.431  0.00  0.00    -0.181 NA
ATOM      5  C   UNL     1       5.079  -1.348   3.889  0.00  0.00    +0.201 A 
ATOM      6  N   UNL     1       4.500  -2.405   3.237  0.00  0.00    -0.170 N 
ATOM      7  N   UNL     1       3.862  -2.123   1.998  0.00  0.00    -0.161 NA
ATOM      8  C   UNL     1       4.566  -3.621   3.804  0.00  0.00    +0.288 A 
ATOM      9  O   UNL     1       4.069  -4.591   3.267  0.00  0.00    -0.265 OA
ATOM     10  C   UNL     1       5.264  -3.741   5.103  0.00  0.00    +0.095 A 
ATOM     11  C   UNL     1       5.473  -4.857   5.889  0.00  0.00    +0.065 C 
ATOM     12  C   UNL     1       5.196  -6.266   5.542  0.00  0.00    +0.010 A 
ATOM     13  C   UNL     1       4.677  -6.884   4.407  0.00  0.00    +0.010 A 
ATOM     14  C   UNL     1       4.533  -8.256   4.381  0.00  0.00    +0.001 A 
ATOM     15  C   UNL     1       4.902  -9.014   5.480  0.00  0.00    +0.002 A 
ATOM     16  C   UNL     1       5.417  -8.411   6.610  0.00  0.00    +0.024 A 
ATOM     17  C   UNL     1       5.571  -7.030   6.656  0.00  0.00    +0.045 A 
ATOM     18  N   UNL     1       6.054  -6.188   7.651  0.00  0.00    -0.258 N 
ATOM     19  C   UNL     1       6.029  -4.902   7.259  0.00  0.00    +0.253 C 
ATOM     20  O   UNL     1       6.394  -3.946   7.916  0.00  0.00    -0.270 OA
ATOM     21  S   UNL     1       5.764  -2.048   5.377  0.00  0.00    -0.043 S 
ENDROOT
BRANCH   1  22
ATOM     22  C   UNL     1       3.171  -0.642   0.198  0.00  0.00    +0.098 C 
BRANCH  22  26
ATOM     23  C   UNL     1      -0.183   1.926   0.832  0.00  0.00    +0.000 A 
ATOM     24  C   UNL     1       1.062   2.467   0.573  0.00  0.00    +0.000 A 
ATOM     25  C   UNL     1       2.147   1.636   0.368  0.00  0.00    +0.004 A 
ATOM     26  C   UNL     1       1.988   0.264   0.423  0.00  0.00    -0.041 A 
ATOM     27  C   UNL     1       0.743  -0.277   0.683  0.00  0.00    +0.004 A 
ATOM     28  C   UNL     1      -0.343   0.554   0.886  0.00  0.00    +0.000 A 
ENDBRANCH  22  26
ENDBRANCH   1  22
BRANCH  18  29
ATOM     29  C   UNL     1       6.537  -6.643   8.957  0.00  0.00    +0.209 C 
BRANCH  29  30
ATOM     30  C   UNL     1       8.014  -6.928   8.876  0.00  0.00    +0.228 C 
ATOM     31  O   UNL     1       8.606  -6.766   7.830  0.00  0.00    -0.274 OA
ATOM     32  N   UNL     1       8.678  -7.362   9.966  0.00  0.00    -0.328 N 
ATOM     33  H   UNL     1       8.204  -7.491  10.803  0.00  0.00    +0.145 HD
ATOM     34  H   UNL     1       9.629  -7.545   9.914  0.00  0.00    +0.145 HD
ENDBRANCH  29  30
ENDBRANCH  18  29
TORSDOF 4
