REMARK  Name = ZINC39273780
REMARK  12 active torsions:
REMARK  status: ('A' for Active; 'I' for Inactive)
REMARK    1  A    between atoms: C_1  and  C_2
REMARK    2  A    between atoms: N_16  and  N_17
REMARK    3  A    between atoms: C_18  and  C_19
REMARK    4  A    between atoms: C_21  and  C_30
REMARK    5  A    between atoms: C_22  and  O_29
REMARK    6  A    between atoms: C_23  and  C_25
REMARK    7  A    between atoms: C_25  and  C_26
REMARK    8  A    between atoms: C_25  and  C_27
REMARK    9  A    between atoms: C_25  and  C_28
REMARK   10  A    between atoms: C_30  and  C_31
REMARK   11  A    between atoms: C_30  and  C_32
REMARK   12  A    between atoms: C_30  and  C_33
REMARK                            x       y       z     vdW  Elec       q    Type
REMARK                         _______ _______ _______ _____ _____    ______ ____
ROOT
ATOM      1  C   UNL     1       5.726  -9.979  14.718  0.00  0.00    +0.046 C 
ATOM      2  C   UNL     1       5.749 -10.402  13.271  0.00  0.00    -0.027 A 
ATOM      3  C   UNL     1       5.509 -11.689  12.932  0.00  0.00    +0.005 A 
ATOM      4  C   UNL     1       5.525 -12.114  11.596  0.00  0.00    +0.001 A 
ATOM      5  C   UNL     1       5.750 -11.265  10.568  0.00  0.00    +0.012 A 
ATOM      6  C   UNL     1       5.981  -9.892  10.806  0.00  0.00    +0.025 A 
ATOM      7  C   UNL     1       6.117  -8.793   9.997  0.00  0.00    +0.115 C 
ATOM      8  C   UNL     1       6.600  -7.674  10.914  0.00  0.00    +0.229 C 
ATOM      9  N   UNL     1       6.323  -8.145  12.265  0.00  0.00    -0.359 N 
ATOM     10  C   UNL     1       6.025  -9.421  12.215  0.00  0.00    +0.049 A 
ATOM     11  N   UNL     1       5.847  -6.480  10.527  0.00  0.00    -0.330 N 
ATOM     12  C   UNL     1       5.420  -6.391   9.291  0.00  0.00    +0.230 C 
ATOM     13  N   UNL     1       5.585  -7.367   8.366  0.00  0.00    -0.113 NA
ATOM     14  N   UNL     1       5.903  -8.575   8.699  0.00  0.00    -0.146 NA
ATOM     15  N   UNL     1       4.763  -5.238   8.911  0.00  0.00    -0.206 N 
ATOM     16  H   UNL     1       4.630  -4.522   9.552  0.00  0.00    +0.177 HD
ATOM     17  H   UNL     1       6.351  -7.602  13.068  0.00  0.00    +0.162 HD
ATOM     18  H   UNL     1       5.669  -5.773  11.167  0.00  0.00    +0.165 HD
ENDROOT
BRANCH  15  19
ATOM     19  N   UNL     1       4.290  -5.102   7.599  0.00  0.00    -0.188 NA
ATOM     20  C   UNL     1       3.779  -3.974   7.208  0.00  0.00    +0.138 C 
BRANCH  20  21
ATOM     21  C   UNL     1       4.107  -2.728   7.924  0.00  0.00    -0.005 A 
ATOM     22  C   UNL     1       3.353  -1.573   7.700  0.00  0.00    +0.017 A 
ATOM     23  C   UNL     1       3.663  -0.410   8.372  0.00  0.00    +0.000 A 
ATOM     24  C   UNL     1       4.723  -0.386   9.270  0.00  0.00    +0.124 A 
ATOM     25  C   UNL     1       5.475  -1.532   9.495  0.00  0.00    +0.000 A 
ATOM     26  C   UNL     1       5.169  -2.700   8.832  0.00  0.00    +0.017 A 
BRANCH  25  27
ATOM     27  C   UNL     1       6.624  -1.498  10.470  0.00  0.00    -0.009 C 
ATOM     28  C   UNL     1       7.280  -2.879  10.532  0.00  0.00    +0.015 C 
ATOM     29  C   UNL     1       7.653  -0.465  10.010  0.00  0.00    +0.015 C 
ATOM     30  C   UNL     1       6.104  -1.118  11.858  0.00  0.00    +0.015 C 
ENDBRANCH  25  27
BRANCH  23  31
ATOM     31  C   UNL     1       2.852   0.837   8.133  0.00  0.00    -0.009 C 
ATOM     32  C   UNL     1       1.755   0.542   7.108  0.00  0.00    +0.015 C 
ATOM     33  C   UNL     1       2.213   1.290   9.447  0.00  0.00    +0.015 C 
ATOM     34  C   UNL     1       3.763   1.944   7.600  0.00  0.00    +0.015 C 
ENDBRANCH  23  31
BRANCH  24  35
ATOM     35  O   UNL     1       5.026   0.763   9.929  0.00  0.00    -0.506 OA
ATOM     36  H   UNL     1       4.565   0.865  10.774  0.00  0.00    +0.292 HD
ENDBRANCH  24  35
ENDBRANCH  20  21
ENDBRANCH  15  19
TORSDOF 5
