REMARK  Name = ZINC24964642
REMARK  5 active torsions:
REMARK  status: ('A' for Active; 'I' for Inactive)
REMARK    1  A    between atoms: C_1  and  C_2
REMARK    2  A    between atoms: C_5  and  S_8
REMARK    3  A    between atoms: N_6  and  N_7
REMARK    4  A    between atoms: S_8  and  C_9
REMARK    5  A    between atoms: C_9  and  C_10
REMARK                            x       y       z     vdW  Elec       q    Type
REMARK                         _______ _______ _______ _____ _____    ______ ____
ROOT
ATOM      1  C   UNL     1       0.398   5.717   0.033  0.00  0.00    +0.143 A 
ATOM      2  N   UNL     1       0.453   6.365  -1.117  0.00  0.00    -0.216 NA
ATOM      3  C   UNL     1       0.440   7.687  -1.182  0.00  0.00    +0.128 A 
ATOM      4  C   UNL     1       0.365   8.438   0.024  0.00  0.00    +0.051 A 
ATOM      5  C   UNL     1       0.335   9.895   0.192  0.00  0.00    -0.025 A 
ATOM      6  C   UNL     1       0.269  10.358   1.456  0.00  0.00    -0.004 A 
ATOM      7  S   UNL     1       0.227   8.909   2.481  0.00  0.00    -0.073 S 
ATOM      8  C   UNL     1       0.310   7.678   1.208  0.00  0.00    +0.114 A 
ATOM      9  N   UNL     1       0.321   6.359   1.183  0.00  0.00    -0.224 NA
ATOM     10  C   UNL     1       0.241  11.784   1.912  0.00  0.00    +0.043 C 
ATOM     11  C   UNL     1      -0.815  12.553   1.108  0.00  0.00    +0.005 C 
ATOM     12  C   UNL     1      -0.148  13.121  -0.141  0.00  0.00    +0.001 C 
ATOM     13  C   UNL     1       0.952  12.176  -0.621  0.00  0.00    +0.005 C 
ATOM     14  C   UNL     1       0.363  10.828  -1.016  0.00  0.00    +0.037 C 
ATOM     15  N   UNL     1       0.498   8.329  -2.406  0.00  0.00    -0.343 N 
ATOM     16  H   UNL     1       0.486   9.428  -2.451  0.00  0.00    +0.144 HD
ATOM     17  H   UNL     1       0.555   7.741  -3.333  0.00  0.00    +0.144 HD
ENDROOT
BRANCH   1  18
ATOM     18  C   UNL     1       0.417   4.210   0.031  0.00  0.00    +0.153 C 
BRANCH  18  19
ATOM     19  S   UNL     1       2.128   3.628   0.124  0.00  0.00    -0.077 S 
BRANCH  19  24
ATOM     20  C   UNL     1       2.763  -1.648   0.147  0.00  0.00    +0.090 C 
ATOM     21  C   UNL     1       2.148  -0.273   0.116  0.00  0.00    +0.148 A 
ATOM     22  N   UNL     1       0.876   0.003   0.047  0.00  0.00    -0.132 NA
ATOM     23  N   UNL     1       0.700   1.276   0.040  0.00  0.00    -0.121 NA
ATOM     24  C   UNL     1       1.860   1.887   0.106  0.00  0.00    +0.209 A 
ATOM     25  N   UNL     1       2.820   0.917   0.156  0.00  0.00    -0.228 N 
BRANCH  25  26
ATOM     26  N   UNL     1       4.172   1.099   0.231  0.00  0.00    -0.295 N 
ATOM     27  H   UNL     1       4.590   2.116   0.256  0.00  0.00    +0.163 HD
ATOM     28  H   UNL     1       4.843   0.227   0.265  0.00  0.00    +0.163 HD
ENDBRANCH  25  26
ENDBRANCH  19  24
ENDBRANCH  18  19
ENDBRANCH   1  18
TORSDOF 4
