REMARK  Name = ZINC20072589
REMARK  10 active torsions:
REMARK  status: ('A' for Active; 'I' for Inactive)
REMARK    1  A    between atoms: C_1  and  C_2
REMARK    2  A    between atoms: C_2  and  C_3
REMARK    3  A    between atoms: C_3  and  O_4
REMARK    4  A    between atoms: O_4  and  C_5
REMARK    5  A    between atoms: C_8  and  C_11
REMARK    6  A    between atoms: C_12  and  C_13
REMARK    7  A    between atoms: C_12  and  N_26
REMARK    8  A    between atoms: N_15  and  N_16
REMARK    9  A    between atoms: C_17  and  C_18
REMARK   10  A    between atoms: C_27  and  C_29
REMARK                            x       y       z     vdW  Elec       q    Type
REMARK                         _______ _______ _______ _____ _____    ______ ____
ROOT
ATOM      1  C   UNL     1       8.290   3.527  -0.344  0.00  0.00    +0.036 C 
ATOM      2  C   UNL     1       7.164   4.269  -0.215  0.00  0.00    +0.098 C 
ENDROOT
BRANCH   1   6
ATOM      3  C   UNL     1      12.002   5.422  -1.129  0.00  0.00    +0.121 A 
ATOM      4  C   UNL     1      11.978   4.165  -0.536  0.00  0.00    +0.046 A 
ATOM      5  C   UNL     1      10.775   3.545  -0.279  0.00  0.00    +0.011 A 
ATOM      6  C   UNL     1       9.576   4.184  -0.616  0.00  0.00    -0.023 A 
ATOM      7  C   UNL     1       9.606   5.447  -1.217  0.00  0.00    +0.011 A 
ATOM      8  C   UNL     1      10.814   6.060  -1.466  0.00  0.00    +0.046 A 
BRANCH   3   9
ATOM      9  O   UNL     1      13.191   6.028  -1.381  0.00  0.00    -0.492 OA
BRANCH   9  10
ATOM     10  C   UNL     1      13.144   7.319  -1.992  0.00  0.00    +0.229 C 
BRANCH  10  12
ATOM     11  C   UNL     1      14.518   9.221  -2.850  0.00  0.00    +0.007 C 
ATOM     12  C   UNL     1      14.568   7.839  -2.196  0.00  0.00    +0.038 C 
ENDBRANCH  10  12
ENDBRANCH   9  10
ENDBRANCH   3   9
ENDBRANCH   1   6
BRANCH   2  13
ATOM     13  C   UNL     1       5.859   3.608  -0.094  0.00  0.00    +0.277 C 
ATOM     14  O   UNL     1       5.788   2.393  -0.110  0.00  0.00    -0.267 OA
ATOM     15  N   UNL     1       4.739   4.347   0.037  0.00  0.00    -0.202 N 
ATOM     16  H   UNL     1       4.809   5.441   0.128  0.00  0.00    +0.178 HD
BRANCH  15  17
ATOM     17  N   UNL     1       3.486   3.721   0.056  0.00  0.00    -0.187 NA
ATOM     18  C   UNL     1       2.407   4.433   0.181  0.00  0.00    +0.139 C 
BRANCH  18  19
ATOM     19  C   UNL     1       1.088   3.775   0.202  0.00  0.00    +0.013 A 
ATOM     20  C   UNL     1      -0.075   4.537   0.337  0.00  0.00    +0.012 A 
ATOM     21  C   UNL     1      -1.305   3.915   0.356  0.00  0.00    +0.021 A 
ATOM     22  C   UNL     1      -1.391   2.538   0.236  0.00  0.00    +0.042 A 
ATOM     23  C   UNL     1      -0.243   1.775   0.107  0.00  0.00    +0.040 A 
ATOM     24  C   UNL     1       0.995   2.384   0.086  0.00  0.00    +0.051 A 
ATOM     25 CL   UNL     1       2.434   1.427  -0.082  0.00  0.00    -0.083 Cl
ATOM     26 CL   UNL     1      -2.945   1.764   0.253  0.00  0.00    -0.083 Cl
ENDBRANCH  18  19
ENDBRANCH  15  17
ENDBRANCH   2  13
BRANCH   2  27
ATOM     27  N   UNL     1       7.245   5.665  -0.198  0.00  0.00    -0.277 N 
ATOM     28  C   UNL     1       6.571   6.391  -1.112  0.00  0.00    +0.248 C 
ATOM     29  O   UNL     1       5.819   5.839  -1.891  0.00  0.00    -0.270 OA
ATOM     30  H   UNL     1       7.859   6.171   0.562  0.00  0.00    +0.155 HD
BRANCH  28  31
ATOM     31  C   UNL     1       6.747   7.858  -1.168  0.00  0.00    +0.037 A 
ATOM     32  C   UNL     1       7.606   8.495  -0.271  0.00  0.00    +0.013 A 
ATOM     33  C   UNL     1       7.771   9.863  -0.332  0.00  0.00    +0.001 A 
ATOM     34  C   UNL     1       7.077  10.605  -1.272  0.00  0.00    +0.000 A 
ATOM     35  C   UNL     1       6.220   9.980  -2.160  0.00  0.00    +0.001 A 
ATOM     36  C   UNL     1       6.051   8.612  -2.113  0.00  0.00    +0.013 A 
ENDBRANCH  28  31
ENDBRANCH   2  27
TORSDOF 9
