REMARK  Name = ZINC39632016
REMARK  12 active torsions:
REMARK  status: ('A' for Active; 'I' for Inactive)
REMARK    1  A    between atoms: C_1  and  C_2
REMARK    2  A    between atoms: C_2  and  C_4
REMARK    3  A    between atoms: C_2  and  N_11
REMARK    4  A    between atoms: C_4  and  C_5
REMARK    5  A    between atoms: C_5  and  C_6
REMARK    6  A    between atoms: C_6  and  C_7
REMARK    7  A    between atoms: C_7  and  C_8
REMARK    8  A    between atoms: C_7  and  C_9
REMARK    9  A    between atoms: C_7  and  O_10
REMARK   10  A    between atoms: C_12  and  C_14
REMARK   11  A    between atoms: C_25  and  C_27
REMARK   12  A    between atoms: C_30  and  C_32
REMARK                            x       y       z     vdW  Elec       q    Type
REMARK                         _______ _______ _______ _____ _____    ______ ____
ROOT
ATOM      1  C   UNL     1       2.624  -0.728   2.348  0.00  0.00    +0.100 C 
ATOM      2  C   UNL     1       2.506  -2.262   2.208  0.00  0.00    +0.121 C 
ATOM      3  N   UNL     1       3.845  -2.701   1.749  0.00  0.00    -0.294 N 
ATOM      4  C   UNL     1       4.792  -1.855   2.514  0.00  0.00    +0.115 C 
ATOM      5  C   UNL     1       4.126  -0.465   2.551  0.00  0.00    -0.004 C 
ATOM      6  C   UNL     1       4.667   0.409   1.424  0.00  0.00    -0.010 C 
ATOM      7  C   UNL     1       6.148   0.704   1.679  0.00  0.00    -0.082 C 
ATOM      8  N   UNL     1       6.298   1.387   2.969  0.00  0.00    +0.379 N 
ATOM      9  C   UNL     1       5.861   0.503   4.057  0.00  0.00    -0.082 C 
ATOM     10  C   UNL     1       4.368   0.200   3.903  0.00  0.00    -0.010 C 
ATOM     11  C   UNL     1       4.135  -3.654   0.842  0.00  0.00    +0.282 C 
ATOM     12  O   UNL     1       5.294  -3.962   0.632  0.00  0.00    -0.267 OA
ATOM     13  H   UNL     1       7.266   1.634   3.107  0.00  0.00    -0.086 HD
ATOM     14  H   UNL     1       5.736   2.225   2.972  0.00  0.00    -0.086 HD
ENDROOT
BRANCH  11  15
ATOM     15  C   UNL     1       3.056  -4.321   0.108  0.00  0.00    +0.190 A 
ATOM     16  C   UNL     1       3.204  -5.375  -0.766  0.00  0.00    +0.055 A 
ATOM     17  C   UNL     1       1.925  -5.693  -1.234  0.00  0.00    +0.050 A 
ATOM     18  C   UNL     1       1.052  -4.831  -0.635  0.00  0.00    +0.136 A 
ATOM     19  O   UNL     1       1.744  -4.013   0.176  0.00  0.00    -0.450 OA
BRANCH  18  20
ATOM     20  C   UNL     1      -0.410  -4.805  -0.839  0.00  0.00    +0.017 A 
ATOM     21  C   UNL     1      -1.001  -5.647  -1.784  0.00  0.00    +0.011 A 
ATOM     22  C   UNL     1      -2.368  -5.618  -1.970  0.00  0.00    +0.001 A 
ATOM     23  C   UNL     1      -3.153  -4.758  -1.222  0.00  0.00    +0.000 A 
ATOM     24  C   UNL     1      -2.574  -3.921  -0.285  0.00  0.00    +0.001 A 
ATOM     25  C   UNL     1      -1.209  -3.943  -0.085  0.00  0.00    +0.011 A 
ENDBRANCH  18  20
ENDBRANCH  11  15
BRANCH   1  27
ATOM     26  N   UNL     1       1.720   1.233   1.141  0.00  0.00    -0.312 N 
ATOM     27  C   UNL     1       2.138  -0.048   1.095  0.00  0.00    +0.218 C 
ATOM     28  O   UNL     1       2.122  -0.653   0.044  0.00  0.00    -0.275 OA
ATOM     29  H   UNL     1       1.801   1.740   1.965  0.00  0.00    +0.149 HD
BRANCH  26  31
ATOM     30  C   UNL     1       2.270   2.359  -0.959  0.00  0.00    +0.028 C 
ATOM     31  C   UNL     1       1.144   1.860  -0.051  0.00  0.00    +0.070 C 
BRANCH  31  32
ATOM     32  C   UNL     1       0.265   3.040   0.368  0.00  0.00    +0.022 C 
BRANCH  32  33
ATOM     33  C   UNL     1      -0.918   2.527   1.191  0.00  0.00    +0.005 C 
BRANCH  33  34
ATOM     34  C   UNL     1      -1.863   3.689   1.504  0.00  0.00    +0.034 C 
BRANCH  34  35
ATOM     35  C   UNL     1      -3.110   3.156   2.213  0.00  0.00    +0.061 C 
ATOM     36  C   UNL     1      -2.697   2.452   3.508  0.00  0.00    +0.041 C 
ATOM     37  C   UNL     1      -4.046   4.321   2.542  0.00  0.00    +0.041 C 
BRANCH  35  38
ATOM     38  O   UNL     1      -3.783   2.229   1.360  0.00  0.00    -0.389 OA
ATOM     39  H   UNL     1      -4.074   2.608   0.519  0.00  0.00    +0.210 HD
ENDBRANCH  35  38
ENDBRANCH  34  35
ENDBRANCH  33  34
ENDBRANCH  32  33
ENDBRANCH  31  32
ENDBRANCH  26  31
ENDBRANCH   1  27
TORSDOF 9
