REMARK  Name = ZINC12945671
REMARK  6 active torsions:
REMARK  status: ('A' for Active; 'I' for Inactive)
REMARK    1  A    between atoms: C_3  and  O_27
REMARK    2  A    between atoms: C_6  and  C_7
REMARK    3  A    between atoms: N_10  and  C_13
REMARK    4  A    between atoms: C_13  and  C_14
REMARK    5  A    between atoms: N_16  and  N_17
REMARK    6  A    between atoms: C_18  and  C_20
REMARK                            x       y       z     vdW  Elec       q    Type
REMARK                         _______ _______ _______ _____ _____    ______ ____
ROOT
ATOM      1  C   UNL     1      -4.760  -3.107  -0.123  0.00  0.00    +0.182 C 
ENDROOT
BRANCH   1   5
ATOM      2  C   UNL     1      -1.266  -0.762   0.011  0.00  0.00    -0.042 C 
ATOM      3  C   UNL     1      -2.066  -0.666  -1.029  0.00  0.00    -0.008 C 
ATOM      4  C   UNL     1      -3.380  -1.386  -1.121  0.00  0.00    +0.112 C 
ATOM      5  N   UNL     1      -3.434  -2.473  -0.135  0.00  0.00    -0.290 NA
ATOM      6  C   UNL     1      -3.079  -1.967   1.201  0.00  0.00    +0.090 C 
ATOM      7  C   UNL     1      -1.587  -1.617   1.205  0.00  0.00    +0.051 C 
BRANCH   2  13
ATOM      8  C   UNL     1      -0.017   1.392   0.010  0.00  0.00    +0.012 A 
ATOM      9  C   UNL     1       1.169   2.095   0.002  0.00  0.00    +0.046 A 
ATOM     10  C   UNL     1       2.380   1.417  -0.013  0.00  0.00    +0.117 A 
ATOM     11  C   UNL     1       2.403   0.029  -0.021  0.00  0.00    +0.046 A 
ATOM     12  C   UNL     1       1.222  -0.682  -0.014  0.00  0.00    +0.012 A 
ATOM     13  C   UNL     1       0.002  -0.004   0.002  0.00  0.00    -0.022 A 
BRANCH  10  14
ATOM     14  O   UNL     1       3.547   2.114  -0.022  0.00  0.00    -0.507 OA
ATOM     15  H   UNL     1       3.893   2.312   0.859  0.00  0.00    +0.292 HD
ENDBRANCH  10  14
ENDBRANCH   2  13
ENDBRANCH   1   5
BRANCH   1  16
ATOM     16  C   UNL     1      -4.995  -3.804  -1.438  0.00  0.00    +0.243 C 
ATOM     17  O   UNL     1      -4.143  -3.776  -2.300  0.00  0.00    -0.273 OA
ATOM     18  N   UNL     1      -6.152  -4.459  -1.655  0.00  0.00    -0.233 N 
ATOM     19  H   UNL     1      -6.834  -4.482  -0.965  0.00  0.00    +0.173 HD
BRANCH  18  20
ATOM     20  N   UNL     1      -6.372  -5.108  -2.878  0.00  0.00    -0.230 N 
ATOM     21  C   UNL     1      -7.529  -5.763  -3.095  0.00  0.00    +0.260 C 
ATOM     22  O   UNL     1      -8.383  -5.791  -2.231  0.00  0.00    -0.269 OA
ATOM     23  H   UNL     1      -5.690  -5.085  -3.568  0.00  0.00    +0.173 HD
BRANCH  21  24
ATOM     24  C   UNL     1      -7.760  -6.447  -4.385  0.00  0.00    +0.038 A 
ATOM     25  C   UNL     1      -6.779  -6.421  -5.378  0.00  0.00    +0.014 A 
ATOM     26  C   UNL     1      -7.000  -7.061  -6.579  0.00  0.00    +0.021 A 
ATOM     27  C   UNL     1      -8.193  -7.728  -6.802  0.00  0.00    +0.041 A 
ATOM     28  C   UNL     1      -9.170  -7.757  -5.821  0.00  0.00    +0.021 A 
ATOM     29  C   UNL     1      -8.958  -7.126  -4.613  0.00  0.00    +0.014 A 
ATOM     30 CL   UNL     1      -8.464  -8.531  -8.317  0.00  0.00    -0.084 Cl
ENDBRANCH  21  24
ENDBRANCH  18  20
ENDBRANCH   1  16
TORSDOF 6
