REMARK  Name = ZINC39670449
REMARK  6 active torsions:
REMARK  status: ('A' for Active; 'I' for Inactive)
REMARK    1  A    between atoms: C_1  and  C_2
REMARK    2  A    between atoms: C_7  and  C_11
REMARK    3  A    between atoms: C_11  and  N_12
REMARK    4  A    between atoms: C_13  and  C_15
REMARK    5  A    between atoms: C_26  and  C_28
REMARK    6  A    between atoms: C_31  and  C_35
REMARK                            x       y       z     vdW  Elec       q    Type
REMARK                         _______ _______ _______ _____ _____    ______ ____
ROOT
ATOM      1  C   UNL     1       3.845  -7.610   3.169  0.00  0.00    +0.100 C 
ATOM      2  C   UNL     1       4.379  -6.436   4.019  0.00  0.00    +0.121 C 
ATOM      3  N   UNL     1       4.283  -6.913   5.419  0.00  0.00    -0.296 N 
ATOM      4  C   UNL     1       4.684  -8.339   5.351  0.00  0.00    +0.115 C 
ATOM      5  C   UNL     1       4.050  -8.857   4.045  0.00  0.00    -0.004 C 
ATOM      6  C   UNL     1       4.992  -9.839   3.354  0.00  0.00    -0.010 C 
ATOM      7  C   UNL     1       5.135 -11.096   4.216  0.00  0.00    -0.082 C 
ATOM      8  N   UNL     1       3.815 -11.709   4.413  0.00  0.00    +0.379 N 
ATOM      9  C   UNL     1       2.945 -10.794   5.161  0.00  0.00    -0.082 C 
ATOM     10  C   UNL     1       2.709  -9.524   4.338  0.00  0.00    -0.010 C 
ATOM     11  C   UNL     1       3.915  -6.210   6.508  0.00  0.00    +0.247 C 
ATOM     12  O   UNL     1       3.491  -5.077   6.386  0.00  0.00    -0.270 OA
ATOM     13  H   UNL     1       3.401 -11.907   3.515  0.00  0.00    -0.086 HD
ATOM     14  H   UNL     1       3.920 -12.569   4.930  0.00  0.00    -0.086 HD
ENDROOT
BRANCH  11  15
ATOM     15  C   UNL     1       4.026  -6.816   7.852  0.00  0.00    +0.040 A 
ATOM     16  C   UNL     1       4.884  -7.897   8.065  0.00  0.00    +0.014 A 
ATOM     17  C   UNL     1       4.985  -8.458   9.320  0.00  0.00    +0.016 A 
ATOM     18  C   UNL     1       4.238  -7.954  10.370  0.00  0.00    +0.090 A 
ATOM     19  C   UNL     1       3.384  -6.882  10.167  0.00  0.00    +0.136 A 
ATOM     20  C   UNL     1       3.279  -6.307   8.915  0.00  0.00    +0.052 A 
ATOM     21  F   UNL     1       2.657  -6.395  11.196  0.00  0.00    -0.205 F 
BRANCH  18  22
ATOM     22  C   UNL     1       4.354  -8.573  11.739  0.00  0.00    +0.420 C 
ATOM     23  F   UNL     1       5.269  -9.630  11.697  0.00  0.00    -0.166 F 
ATOM     24  F   UNL     1       4.797  -7.608  12.651  0.00  0.00    -0.166 F 
ATOM     25  F   UNL     1       3.103  -9.054  12.140  0.00  0.00    -0.166 F 
ENDBRANCH  18  22
ENDBRANCH  11  15
BRANCH   1  27
ATOM     26  N   UNL     1       1.829  -8.015   1.794  0.00  0.00    -0.309 N 
ATOM     27  C   UNL     1       2.381  -7.416   2.868  0.00  0.00    +0.219 C 
ATOM     28  O   UNL     1       1.700  -6.721   3.591  0.00  0.00    -0.275 OA
ATOM     29  H   UNL     1       2.374  -8.570   1.215  0.00  0.00    +0.149 HD
BRANCH  26  30
ATOM     30  C   UNL     1       0.406  -7.826   1.500  0.00  0.00    +0.159 C 
BRANCH  30  37
ATOM     31  C   UNL     1      -1.152 -10.393  -5.253  0.00  0.00    +0.045 C 
ATOM     32  C   UNL     1      -0.940 -10.339  -3.762  0.00  0.00    -0.034 A 
ATOM     33  C   UNL     1      -1.133 -11.494  -2.986  0.00  0.00    +0.008 A 
ATOM     34  C   UNL     1      -0.940 -11.441  -1.640  0.00  0.00    +0.045 A 
ATOM     35  C   UNL     1      -0.548 -10.225  -1.046  0.00  0.00    +0.115 A 
ATOM     36  N   UNL     1      -0.294  -9.887   0.210  0.00  0.00    -0.342 N 
ATOM     37  C   UNL     1       0.043  -8.596   0.257  0.00  0.00    +0.051 A 
ATOM     38  C   UNL     1       0.005  -8.095  -0.998  0.00  0.00    +0.115 A 
ATOM     39  N   UNL     1      -0.367  -9.115  -1.829  0.00  0.00    -0.308 N 
ATOM     40  C   UNL     1      -0.559  -9.183  -3.179  0.00  0.00    +0.096 A 
ATOM     41  H   UNL     1      -0.346 -10.482   0.974  0.00  0.00    +0.167 HD
ENDBRANCH  30  37
ENDBRANCH  26  30
ENDBRANCH   1  27
TORSDOF 5
