REMARK  Name = ZINC35790628
REMARK  5 active torsions:
REMARK  status: ('A' for Active; 'I' for Inactive)
REMARK    1  A    between atoms: N_9  and  C_21
REMARK    2  A    between atoms: C_10  and  C_12
REMARK    3  A    between atoms: C_15  and  N_18
REMARK    4  A    between atoms: C_21  and  C_22
REMARK    5  A    between atoms: C_25  and  O_28
REMARK                            x       y       z     vdW  Elec       q    Type
REMARK                         _______ _______ _______ _____ _____    ______ ____
ROOT
ATOM      1  C   UNL     1       0.094   1.364   0.054  0.00  0.00    +0.019 A 
ATOM      2  C   UNL     1       1.436   1.778  -0.068  0.00  0.00    +0.024 A 
ATOM      3  C   UNL     1       2.202   0.670  -0.060  0.00  0.00    +0.040 A 
ATOM      4  N   UNL     1       1.384  -0.414   0.081  0.00  0.00    -0.349 N 
ATOM      5  C   UNL     1       0.093   0.018   0.137  0.00  0.00    +0.086 A 
ATOM      6  C   UNL     1       1.835  -1.808   0.176  0.00  0.00    +0.123 C 
ATOM      7  C   UNL     1       2.865  -2.082  -0.923  0.00  0.00    +0.037 C 
ATOM      8  C   UNL     1       4.260  -1.722  -0.423  0.00  0.00    +0.087 C 
ATOM      9  N   UNL     1       4.212  -0.578   0.489  0.00  0.00    -0.286 NA
ATOM     10  C   UNL     1       3.704   0.624  -0.189  0.00  0.00    +0.134 C 
ENDROOT
BRANCH  10  11
ATOM     11  C   UNL     1       4.303   1.851   0.447  0.00  0.00    -0.024 A 
ATOM     12  C   UNL     1       5.067   2.720  -0.310  0.00  0.00    +0.008 A 
ATOM     13  C   UNL     1       5.615   3.846   0.274  0.00  0.00    +0.033 A 
ATOM     14  C   UNL     1       5.400   4.104   1.615  0.00  0.00    +0.126 A 
ATOM     15  C   UNL     1       4.636   3.236   2.372  0.00  0.00    +0.033 A 
ATOM     16  C   UNL     1       4.083   2.112   1.787  0.00  0.00    +0.008 A 
BRANCH  14  17
ATOM     17  N   UNL     1       5.989   5.310   2.240  0.00  0.00    +0.056 N 
ATOM     18  O   UNL     1       6.658   6.069   1.578  0.00  0.00    -0.126 OA
ATOM     19  O   UNL     1       5.801   5.536   3.413  0.00  0.00    -0.126 OA
ENDBRANCH  14  17
ENDBRANCH  10  11
BRANCH   9  20
ATOM     20  C   UNL     1       5.529  -0.327   1.089  0.00  0.00    +0.120 C 
BRANCH  20  21
ATOM     21  C   UNL     1       5.921  -1.500   1.948  0.00  0.00    -0.033 A 
ATOM     22  C   UNL     1       5.568  -1.526   3.285  0.00  0.00    +0.008 A 
ATOM     23  C   UNL     1       5.927  -2.600   4.075  0.00  0.00    +0.046 A 
ATOM     24  C   UNL     1       6.642  -3.655   3.527  0.00  0.00    +0.117 A 
ATOM     25  C   UNL     1       6.995  -3.628   2.185  0.00  0.00    +0.046 A 
ATOM     26  C   UNL     1       6.629  -2.553   1.398  0.00  0.00    +0.008 A 
BRANCH  24  27
ATOM     27  O   UNL     1       6.996  -4.713   4.302  0.00  0.00    -0.507 OA
ATOM     28  H   UNL     1       6.342  -5.425   4.320  0.00  0.00    +0.292 HD
ENDBRANCH  24  27
ENDBRANCH  20  21
ENDBRANCH   9  20
TORSDOF 5
