REMARK  Name = ZINC11371929
REMARK  8 active torsions:
REMARK  status: ('A' for Active; 'I' for Inactive)
REMARK    1  A    between atoms: C_1  and  C_2
REMARK    2  A    between atoms: C_2  and  C_4
REMARK    3  A    between atoms: C_2  and  O_15
REMARK    4  A    between atoms: N_9  and  C_10
REMARK    5  A    between atoms: O_15  and  C_16
REMARK    6  A    between atoms: C_16  and  C_18
REMARK    7  A    between atoms: C_20  and  C_30
REMARK    8  A    between atoms: N_21  and  C_23
REMARK                            x       y       z     vdW  Elec       q    Type
REMARK                         _______ _______ _______ _____ _____    ______ ____
ROOT
ATOM      1  C   UNL     1      -0.014   1.211   0.009  0.00  0.00    +0.379 C 
ATOM      2  O   UNL     1       0.002  -0.004   0.002  0.00  0.00    -0.241 OA
ENDROOT
BRANCH   1   3
ATOM      3  C   UNL     1       1.255   1.967   0.001  0.00  0.00    +0.260 A 
ATOM      4  N   UNL     1       1.363   3.302   0.001  0.00  0.00    -0.200 NA
ATOM      5  C   UNL     1       2.635   3.645  -0.005  0.00  0.00    +0.171 A 
ATOM      6  N   UNL     1       3.378   2.498  -0.018  0.00  0.00    -0.211 N 
ATOM      7  N   UNL     1       2.461   1.435  -0.014  0.00  0.00    -0.137 NA
BRANCH   6   8
ATOM      8  C   UNL     1       4.775   2.402  -0.033  0.00  0.00    +0.068 A 
ATOM      9  C   UNL     1       5.529   3.337  -0.730  0.00  0.00    +0.030 A 
ATOM     10  C   UNL     1       6.906   3.245  -0.739  0.00  0.00    +0.040 A 
ATOM     11  C   UNL     1       7.536   2.213  -0.062  0.00  0.00    +0.124 A 
ATOM     12  C   UNL     1       6.786   1.277   0.630  0.00  0.00    +0.040 A 
ATOM     13  C   UNL     1       5.408   1.369   0.646  0.00  0.00    +0.030 A 
ATOM     14  F   UNL     1       8.884   2.121  -0.076  0.00  0.00    -0.205 F 
ENDBRANCH   6   8
BRANCH   5  15
ATOM     15  C   UNL     1       3.162   5.019  -0.004  0.00  0.00    +0.056 A 
ATOM     16  C   UNL     1       2.508   6.196  -0.268  0.00  0.00    +0.019 A 
ATOM     17  C   UNL     1       3.216   7.374  -0.206  0.00  0.00    +0.008 A 
ATOM     18  C   UNL     1       4.537   7.337   0.114  0.00  0.00    +0.046 A 
ATOM     19  S   UNL     1       4.817   5.590   0.348  0.00  0.00    -0.094 S 
ENDBRANCH   5  15
ENDBRANCH   1   3
BRANCH   1  20
ATOM     20  O   UNL     1      -1.190   1.868   0.018  0.00  0.00    -0.446 OA
BRANCH  20  22
ATOM     21  C   UNL     1      -2.814   0.770   1.462  0.00  0.00    +0.062 C 
ATOM     22  C   UNL     1      -2.397   1.061   0.019  0.00  0.00    +0.259 C 
BRANCH  22  23
ATOM     23  C   UNL     1      -3.502   1.808  -0.682  0.00  0.00    +0.261 C 
ATOM     24  O   UNL     1      -3.293   2.912  -1.138  0.00  0.00    -0.271 OA
ATOM     25  N   UNL     1      -4.723   1.250  -0.802  0.00  0.00    -0.237 N 
ATOM     26  C   UNL     1      -5.711   1.918  -1.429  0.00  0.00    +0.306 C 
ATOM     27  O   UNL     1      -5.501   3.025  -1.886  0.00  0.00    -0.252 OA
ATOM     28  N   UNL     1      -6.931   1.359  -1.550  0.00  0.00    -0.296 N 
ATOM     29  H   UNL     1      -4.890   0.366  -0.438  0.00  0.00    +0.159 HD
ATOM     30  H   UNL     1      -7.099   0.476  -1.185  0.00  0.00    +0.151 HD
BRANCH  28  31
ATOM     31  C   UNL     1      -8.006   2.086  -2.231  0.00  0.00    +0.074 C 
ATOM     32  C   UNL     1      -8.756   2.985  -1.227  0.00  0.00    +0.022 C 
ATOM     33  C   UNL     1     -10.236   2.905  -1.677  0.00  0.00    +0.002 C 
ATOM     34  C   UNL     1     -10.383   1.425  -2.107  0.00  0.00    +0.002 C 
ATOM     35  C   UNL     1      -9.040   1.094  -2.791  0.00  0.00    +0.022 C 
ENDBRANCH  28  31
ENDBRANCH  22  23
ENDBRANCH  20  22
ENDBRANCH   1  20
TORSDOF 7
