REMARK  Name = ZINC58404256
REMARK  7 active torsions:
REMARK  status: ('A' for Active; 'I' for Inactive)
REMARK    1  A    between atoms: C_3  and  S_6
REMARK    2  A    between atoms: S_6  and  N_9
REMARK    3  A    between atoms: N_9  and  C_10
REMARK    4  A    between atoms: N_13  and  C_16
REMARK    5  A    between atoms: C_16  and  C_17
REMARK    6  A    between atoms: C_17  and  C_19
REMARK    7  A    between atoms: C_17  and  O_28
REMARK                            x       y       z     vdW  Elec       q    Type
REMARK                         _______ _______ _______ _____ _____    ______ ____
ROOT
ATOM      1  C   UNL     1       4.596   0.903   2.403  0.00  0.00    +0.073 C 
ATOM      2  C   UNL     1       3.304   0.715   3.204  0.00  0.00    +0.002 C 
ATOM      3  C   UNL     1       3.464  -0.478   4.148  0.00  0.00    -0.077 C 
ATOM      4  N   UNL     1       4.580  -0.231   5.069  0.00  0.00    +0.382 N 
ATOM      5  C   UNL     1       5.834  -0.122   4.313  0.00  0.00    -0.077 C 
ATOM      6  C   UNL     1       5.765   1.085   3.375  0.00  0.00    +0.002 C 
ATOM      7  H   UNL     1       4.416   0.627   5.572  0.00  0.00    -0.082 HD
ENDROOT
BRANCH   1   8
ATOM      8  N   UNL     1       4.477   2.089   1.552  0.00  0.00    -0.187 NA
ATOM      9  H   UNL     1       4.677   2.967   1.913  0.00  0.00    +0.148 HD
BRANCH   8  10
ATOM     10  S   UNL     1       4.001   1.932  -0.026  0.00  0.00    +0.065 S 
ATOM     11  O   UNL     1       4.799   0.900  -0.590  0.00  0.00    -0.153 OA
ATOM     12  O   UNL     1       3.957   3.244  -0.570  0.00  0.00    -0.153 OA
BRANCH  10  15
ATOM     13  C   UNL     1      -0.016   1.351   0.009  0.00  0.00    +0.010 A 
ATOM     14  C   UNL     1       1.183   2.038   0.002  0.00  0.00    +0.036 A 
ATOM     15  C   UNL     1       2.343   1.336  -0.013  0.00  0.00    +0.142 A 
ATOM     16  S   UNL     1       1.754  -0.349  -0.017  0.00  0.00    -0.077 S 
ATOM     17  C   UNL     1       0.002  -0.004   0.002  0.00  0.00    +0.047 A 
ENDBRANCH  10  15
ENDBRANCH   8  10
ENDBRANCH   1   8
BRANCH   4  18
ATOM     18  C   UNL     1       4.681  -1.344   6.023  0.00  0.00    -0.042 C 
BRANCH  18  19
ATOM     19  C   UNL     1       5.762  -1.030   7.059  0.00  0.00    +0.128 C 
BRANCH  19  20
ATOM     20  C   UNL     1       5.951  -2.221   7.964  0.00  0.00    -0.017 A 
ATOM     21  C   UNL     1       5.064  -2.448   9.000  0.00  0.00    +0.010 A 
ATOM     22  C   UNL     1       5.233  -3.538   9.832  0.00  0.00    +0.050 A 
ATOM     23  C   UNL     1       6.293  -4.407   9.629  0.00  0.00    +0.166 A 
ATOM     24  C   UNL     1       7.187  -4.179   8.586  0.00  0.00    +0.167 A 
ATOM     25  C   UNL     1       7.008  -3.087   7.752  0.00  0.00    +0.055 A 
ATOM     26  O   UNL     1       8.131  -5.164   8.597  0.00  0.00    -0.453 OA
ATOM     27  C   UNL     1       8.044  -5.766   9.902  0.00  0.00    +0.466 C 
ATOM     28  O   UNL     1       6.678  -5.536  10.294  0.00  0.00    -0.453 OA
ENDBRANCH  19  20
BRANCH  19  29
ATOM     29  O   UNL     1       5.363   0.100   7.837  0.00  0.00    -0.389 OA
ATOM     30  H   UNL     1       4.535  -0.026   8.319  0.00  0.00    +0.210 HD
ENDBRANCH  19  29
ENDBRANCH  18  19
ENDBRANCH   4  18
TORSDOF 7
