REMARK  Name = ZINC40687792
REMARK  5 active torsions:
REMARK  status: ('A' for Active; 'I' for Inactive)
REMARK    1  A    between atoms: C_1  and  C_2
REMARK    2  A    between atoms: C_9  and  N_12
REMARK    3  A    between atoms: C_14  and  N_30
REMARK    4  A    between atoms: C_15  and  O_19
REMARK    5  A    between atoms: O_19  and  C_20
REMARK                            x       y       z     vdW  Elec       q    Type
REMARK                         _______ _______ _______ _____ _____    ______ ____
ROOT
ATOM      1  N   UNL     1       0.027  -1.965   3.620  0.00  0.00    -0.296 N 
ATOM      2  C   UNL     1      -0.064  -2.645   4.829  0.00  0.00    +0.151 A 
ATOM      3  C   UNL     1      -0.170  -1.942   6.032  0.00  0.00    +0.128 A 
ATOM      4  C   UNL     1      -0.259  -2.672   7.216  0.00  0.00    +0.246 A 
ATOM      5  N   UNL     1      -0.239  -4.001   7.157  0.00  0.00    -0.199 NA
ATOM      6  C   UNL     1      -0.137  -4.626   6.002  0.00  0.00    +0.227 A 
ATOM      7  N   UNL     1      -0.056  -3.975   4.859  0.00  0.00    -0.218 NA
ATOM      8  H   UNL     1       0.106  -0.999   3.612  0.00  0.00    +0.154 HD
ENDROOT
BRANCH   1  17
ATOM      9  C   UNL     1       2.385   0.944   0.299  0.00  0.00    +0.065 C 
ATOM     10  C   UNL     1       1.734  -0.413   0.212  0.00  0.00    +0.039 A 
ATOM     11  C   UNL     1       1.732  -1.088  -1.007  0.00  0.00    +0.023 A 
ATOM     12  C   UNL     1       1.147  -2.318  -1.103  0.00  0.00    +0.012 A 
ATOM     13  C   UNL     1       0.558  -2.866   0.052  0.00  0.00    +0.002 A 
ATOM     14  C   UNL     1      -0.062  -4.126   0.028  0.00  0.00    +0.010 A 
ATOM     15  C   UNL     1      -0.622  -4.630   1.162  0.00  0.00    +0.003 A 
ATOM     16  C   UNL     1      -0.593  -3.913   2.354  0.00  0.00    +0.025 A 
ATOM     17  C   UNL     1       0.005  -2.674   2.419  0.00  0.00    +0.059 A 
ATOM     18  C   UNL     1       0.596  -2.125   1.258  0.00  0.00    +0.092 A 
ATOM     19  N   UNL     1       1.189  -0.929   1.287  0.00  0.00    -0.250 NA
ENDBRANCH   1  17
BRANCH   3  20
ATOM     20  N   UNL     1      -0.187  -0.539   6.048  0.00  0.00    -0.351 N 
ATOM     21  H   UNL     1      -0.124  -0.043   5.217  0.00  0.00    +0.143 HD
ATOM     22  H   UNL     1      -0.262  -0.064   6.891  0.00  0.00    +0.143 HD
ENDBRANCH   3  20
BRANCH   4  23
ATOM     23  O   UNL     1      -0.364  -2.038   8.411  0.00  0.00    -0.436 OA
BRANCH  23  24
ATOM     24  C   UNL     1      -0.341  -2.795   9.539  0.00  0.00    +0.131 A 
ATOM     25  C   UNL     1       0.822  -3.493   9.879  0.00  0.00    +0.047 A 
ATOM     26  C   UNL     1       0.875  -4.259  11.001  0.00  0.00    +0.012 A 
ATOM     27  C   UNL     1      -0.253  -4.352  11.836  0.00  0.00    -0.018 A 
ATOM     28  C   UNL     1      -0.233  -5.133  13.003  0.00  0.00    +0.008 A 
ATOM     29  C   UNL     1      -1.342  -5.201  13.788  0.00  0.00    +0.001 A 
ATOM     30  C   UNL     1      -2.503  -4.506  13.452  0.00  0.00    +0.001 A 
ATOM     31  C   UNL     1      -2.560  -3.740  12.329  0.00  0.00    +0.008 A 
ATOM     32  C   UNL     1      -1.433  -3.645  11.494  0.00  0.00    -0.014 A 
ATOM     33  C   UNL     1      -1.453  -2.859  10.330  0.00  0.00    +0.054 A 
ENDBRANCH  23  24
ENDBRANCH   4  23
TORSDOF 4
