REMARK  Name = ZINC37056149
REMARK  4 active torsions:
REMARK  status: ('A' for Active; 'I' for Inactive)
REMARK    1  A    between atoms: C_1  and  C_2
REMARK    2  A    between atoms: C_5  and  N_9
REMARK    3  A    between atoms: N_9  and  C_10
REMARK    4  A    between atoms: C_19  and  O_20
REMARK                            x       y       z     vdW  Elec       q    Type
REMARK                         _______ _______ _______ _____ _____    ______ ____
ROOT
ATOM      1  C   UNL     1       0.074  -4.907   1.243  0.00  0.00    +0.101 C 
ATOM      2  C   UNL     1       0.672  -6.315   1.032  0.00  0.00    +0.032 C 
ATOM      3  C   UNL     1      -0.583  -7.170   0.755  0.00  0.00    +0.041 C 
ATOM      4  C   UNL     1      -1.716  -6.446   1.450  0.00  0.00    -0.001 A 
ATOM      5  C   UNL     1      -1.339  -5.144   1.731  0.00  0.00    -0.021 A 
ATOM      6  C   UNL     1      -2.223  -4.289   2.369  0.00  0.00    +0.006 A 
ATOM      7  C   UNL     1      -3.482  -4.729   2.729  0.00  0.00    +0.004 A 
ATOM      8  C   UNL     1      -3.866  -6.026   2.451  0.00  0.00    +0.046 A 
ATOM      9  C   UNL     1      -2.983  -6.890   1.810  0.00  0.00    +0.120 A 
ENDROOT
BRANCH   1  10
ATOM     10  N   UNL     1       0.058  -4.168  -0.021  0.00  0.00    -0.337 N 
ATOM     11  H   UNL     1       0.060  -4.648  -0.864  0.00  0.00    +0.147 HD
BRANCH  10  16
ATOM     12  C   UNL     1      -0.018   1.503   0.010  0.00  0.00    +0.045 C 
ATOM     13  C   UNL     1       0.002  -0.004   0.002  0.00  0.00    -0.037 A 
ATOM     14  C   UNL     1       0.006  -0.687  -1.200  0.00  0.00    +0.006 A 
ATOM     15  C   UNL     1       0.024  -2.068  -1.212  0.00  0.00    +0.023 A 
ATOM     16  C   UNL     1       0.040  -2.771  -0.013  0.00  0.00    +0.029 A 
ATOM     17  C   UNL     1       0.036  -2.082   1.193  0.00  0.00    +0.037 A 
ATOM     18  C   UNL     1       0.023  -0.701   1.197  0.00  0.00    +0.018 A 
ATOM     19  I   UNL     1       0.027   0.340   3.015  0.00  0.00    -0.043 I 
ENDBRANCH  10  16
ENDBRANCH   1  10
BRANCH   9  20
ATOM     20  O   UNL     1      -3.356  -8.168   1.535  0.00  0.00    -0.506 OA
ATOM     21  H   UNL     1      -3.150  -8.798   2.240  0.00  0.00    +0.292 HD
ENDBRANCH   9  20
TORSDOF 3
