REMARK  Name = ZINC25503741
REMARK  9 active torsions:
REMARK  status: ('A' for Active; 'I' for Inactive)
REMARK    1  A    between atoms: C_3  and  O_30
REMARK    2  A    between atoms: C_4  and  C_10
REMARK    3  A    between atoms: C_6  and  N_7
REMARK    4  A    between atoms: C_10  and  C_11
REMARK    5  A    between atoms: C_15  and  C_18
REMARK    6  A    between atoms: C_16  and  O_17
REMARK    7  A    between atoms: C_18  and  C_19
REMARK    8  A    between atoms: C_21  and  N_26
REMARK    9  A    between atoms: C_24  and  O_25
REMARK                            x       y       z     vdW  Elec       q    Type
REMARK                         _______ _______ _______ _____ _____    ______ ____
ROOT
ATOM      1  C   UNL     1       1.919   2.338   0.974  0.00  0.00    +0.000 A 
ATOM      2  C   UNL     1       3.120   2.837   0.508  0.00  0.00    +0.027 A 
ATOM      3  C   UNL     1       3.548   2.528  -0.772  0.00  0.00    +0.042 A 
ATOM      4  C   UNL     1       2.777   1.717  -1.585  0.00  0.00    +0.027 A 
ATOM      5  C   UNL     1       1.577   1.213  -1.120  0.00  0.00    +0.000 A 
ATOM      6  C   UNL     1       1.147   1.521   0.162  0.00  0.00    +0.124 A 
ATOM      7 CL   UNL     1       5.055   3.161  -1.357  0.00  0.00    -0.084 Cl
ENDROOT
BRANCH   6   8
ATOM      8  O   UNL     1      -0.034   1.026   0.621  0.00  0.00    -0.506 OA
ATOM      9  H   UNL     1      -0.645   0.378  -0.024  0.00  0.00    +0.292 HD
ENDBRANCH   6   8
BRANCH   1  10
ATOM     10  C   UNL     1       1.451   2.679   2.365  0.00  0.00    +0.077 C 
BRANCH  10  14
ATOM     11  C   UNL     1      -1.299   5.947   2.184  0.00  0.00    +0.036 A 
ATOM     12  C   UNL     1       0.059   6.194   2.243  0.00  0.00    +0.048 A 
ATOM     13  C   UNL     1       0.954   5.136   2.302  0.00  0.00    +0.120 A 
ATOM     14  C   UNL     1       0.482   3.831   2.301  0.00  0.00    +0.001 A 
ATOM     15  C   UNL     1      -0.877   3.589   2.236  0.00  0.00    +0.040 A 
ATOM     16  C   UNL     1      -1.767   4.646   2.183  0.00  0.00    +0.127 A 
BRANCH  16  17
ATOM     17  N   UNL     1      -3.222   4.384   2.119  0.00  0.00    +0.056 N 
ATOM     18  O   UNL     1      -4.006   5.314   2.067  0.00  0.00    -0.126 OA
ATOM     19  O   UNL     1      -3.635   3.238   2.119  0.00  0.00    -0.126 OA
ENDBRANCH  16  17
BRANCH  13  20
ATOM     20  O   UNL     1       2.290   5.376   2.360  0.00  0.00    -0.506 OA
ATOM     21  H   UNL     1       2.998   4.536   2.406  0.00  0.00    +0.292 HD
ENDBRANCH  13  20
ENDBRANCH  10  14
ENDBRANCH   1  10
BRANCH   5  22
ATOM     22  C   UNL     1       0.737   0.330  -2.006  0.00  0.00    +0.077 C 
BRANCH  22  23
ATOM     23  C   UNL     1      -0.309   1.164  -2.700  0.00  0.00    +0.001 A 
ATOM     24  C   UNL     1      -1.582   1.256  -2.171  0.00  0.00    +0.040 A 
ATOM     25  C   UNL     1      -2.541   2.025  -2.804  0.00  0.00    +0.127 A 
ATOM     26  C   UNL     1      -2.232   2.696  -3.973  0.00  0.00    +0.036 A 
ATOM     27  C   UNL     1      -0.962   2.603  -4.509  0.00  0.00    +0.048 A 
ATOM     28  C   UNL     1       0.004   1.836  -3.873  0.00  0.00    +0.120 A 
BRANCH  25  29
ATOM     29  N   UNL     1      -3.902   2.127  -2.232  0.00  0.00    +0.056 N 
ATOM     30  O   UNL     1      -4.749   2.800  -2.792  0.00  0.00    -0.126 OA
ATOM     31  O   UNL     1      -4.176   1.536  -1.202  0.00  0.00    -0.126 OA
ENDBRANCH  25  29
BRANCH  28  32
ATOM     32  O   UNL     1       1.253   1.742  -4.398  0.00  0.00    -0.506 OA
ATOM     33  H   UNL     1       1.500   2.275  -5.328  0.00  0.00    +0.292 HD
ENDBRANCH  28  32
ENDBRANCH  22  23
ENDBRANCH   5  22
TORSDOF 9
