REMARK  Name = ZINC09465814
REMARK  8 active torsions:
REMARK  status: ('A' for Active; 'I' for Inactive)
REMARK    1  A    between atoms: C_6  and  S_11
REMARK    2  A    between atoms: S_11  and  N_14
REMARK    3  A    between atoms: C_16  and  O_33
REMARK    4  A    between atoms: C_19  and  C_21
REMARK    5  A    between atoms: C_21  and  O_23
REMARK    6  A    between atoms: O_23  and  C_24
REMARK    7  A    between atoms: C_24  and  C_25
REMARK    8  A    between atoms: C_25  and  C_27
REMARK                            x       y       z     vdW  Elec       q    Type
REMARK                         _______ _______ _______ _____ _____    ______ ____
ROOT
ATOM      1  N   UNL     1       2.800   5.401  -0.003  0.00  0.00    -0.160 NA
ATOM      2  C   UNL     1       3.426   5.909  -1.241  0.00  0.00    +0.141 C 
ATOM      3  C   UNL     1       4.416   4.797  -1.670  0.00  0.00    +0.132 C 
ATOM      4  C   UNL     1       3.628   3.515  -1.292  0.00  0.00    +0.064 C 
ATOM      5  C   UNL     1       2.886   3.933  -0.004  0.00  0.00    +0.191 C 
ENDROOT
BRANCH   1   6
ATOM      6  S   UNL     1       2.113   6.326   1.186  0.00  0.00    +0.062 S 
ATOM      7  O   UNL     1       1.739   7.556   0.579  0.00  0.00    -0.153 OA
ATOM      8  O   UNL     1       1.179   5.494   1.859  0.00  0.00    -0.153 OA
BRANCH   6  14
ATOM      9  C   UNL     1       6.612   6.800   6.141  0.00  0.00    +0.001 A 
ATOM     10  C   UNL     1       5.845   5.649   6.311  0.00  0.00    +0.001 A 
ATOM     11  C   UNL     1       4.859   5.327   5.430  0.00  0.00    +0.008 A 
ATOM     12  C   UNL     1       4.607   6.167   4.332  0.00  0.00    -0.016 A 
ATOM     13  C   UNL     1       3.593   5.871   3.404  0.00  0.00    +0.037 A 
ATOM     14  C   UNL     1       3.381   6.704   2.349  0.00  0.00    +0.106 A 
ATOM     15  C   UNL     1       4.148   7.856   2.179  0.00  0.00    +0.029 A 
ATOM     16  C   UNL     1       5.135   8.177   3.060  0.00  0.00    +0.010 A 
ATOM     17  C   UNL     1       5.386   7.337   4.159  0.00  0.00    -0.018 A 
ATOM     18  C   UNL     1       6.396   7.637   5.089  0.00  0.00    +0.008 A 
ENDBRANCH   6  14
ENDBRANCH   1   6
BRANCH   5  19
ATOM     19  C   UNL     1       1.502   3.338   0.006  0.00  0.00    +0.327 C 
ATOM     20  O   UNL     1       0.534   4.061   0.019  0.00  0.00    -0.249 OA
BRANCH  19  21
ATOM     21  O   UNL     1       1.344   2.005   0.000  0.00  0.00    -0.455 OA
BRANCH  21  22
ATOM     22  C   UNL     1      -0.018   1.503   0.010  0.00  0.00    +0.313 C 
BRANCH  22  23
ATOM     23  C   UNL     1       0.002  -0.004   0.002  0.00  0.00    +0.216 C 
ATOM     24  O   UNL     1       1.062  -0.597  -0.011  0.00  0.00    -0.287 OA
BRANCH  23  25
ATOM     25  C   UNL     1      -1.212  -0.727   0.010  0.00  0.00    +0.086 A 
ATOM     26  C   UNL     1      -2.487  -0.188   0.031  0.00  0.00    +0.030 A 
ATOM     27  C   UNL     1      -3.382  -1.260   0.028  0.00  0.00    +0.020 A 
ATOM     28  C   UNL     1      -2.658  -2.407   0.015  0.00  0.00    +0.083 A 
ATOM     29  N   UNL     1      -1.345  -2.100   0.004  0.00  0.00    -0.358 N 
ATOM     30  H   UNL     1      -0.615  -2.738  -0.007  0.00  0.00    +0.165 HD
ENDBRANCH  23  25
ENDBRANCH  22  23
ENDBRANCH  21  22
ENDBRANCH  19  21
ENDBRANCH   5  19
BRANCH   3  31
ATOM     31  O   UNL     1       5.636   4.885  -0.932  0.00  0.00    -0.390 OA
ATOM     32  H   UNL     1       6.163   5.670  -1.135  0.00  0.00    +0.210 HD
ENDBRANCH   3  31
TORSDOF 8
