REMARK  Name = ZINC38994774
REMARK  7 active torsions:
REMARK  status: ('A' for Active; 'I' for Inactive)
REMARK    1  A    between atoms: C_4  and  O_37
REMARK    2  A    between atoms: C_5  and  C_7
REMARK    3  A    between atoms: C_10  and  C_12
REMARK    4  A    between atoms: N_14  and  C_15
REMARK    5  A    between atoms: C_17  and  C_28
REMARK    6  A    between atoms: N_30  and  C_31
REMARK    7  A    between atoms: C_31  and  C_32
REMARK                            x       y       z     vdW  Elec       q    Type
REMARK                         _______ _______ _______ _____ _____    ______ ____
ROOT
ATOM      1  C   UNL     1       0.281  -8.210  -0.053  0.00  0.00    +0.144 C 
ATOM      2  C   UNL     1       0.906  -9.116  -1.137  0.00  0.00    +0.109 C 
ATOM      3  C   UNL     1      -0.118  -9.956  -1.910  0.00  0.00    +0.016 C 
ATOM      4  C   UNL     1       0.081  -9.697  -3.392  0.00  0.00    +0.005 C 
ATOM      5  C   UNL     1      -1.098 -10.151  -4.240  0.00  0.00    +0.000 C 
ATOM      6  C   UNL     1      -2.345  -9.394  -3.763  0.00  0.00    +0.001 C 
ATOM      7  C   UNL     1      -2.678  -9.895  -2.362  0.00  0.00    +0.014 C 
ATOM      8  C   UNL     1      -1.540  -9.770  -1.413  0.00  0.00    +0.052 C 
ATOM      9  S   UNL     1      -1.473  -8.113  -0.626  0.00  0.00    -0.134 S 
ENDROOT
BRANCH   1  12
ATOM     10  C   UNL     1       0.140  -5.778  -0.038  0.00  0.00    +0.261 C 
ATOM     11  O   UNL     1      -1.073  -5.878  -0.034  0.00  0.00    -0.269 OA
ATOM     12  N   UNL     1       0.907  -6.886  -0.048  0.00  0.00    -0.298 N 
ATOM     13  H   UNL     1       1.874  -6.806  -0.051  0.00  0.00    +0.150 HD
BRANCH  10  17
ATOM     14  C   UNL     1       1.257  -2.150  -0.022  0.00  0.00    +0.080 C 
ATOM     15  N   UNL     1       2.314  -2.930  -0.032  0.00  0.00    -0.153 NA
ATOM     16  N   UNL     1       2.044  -4.176  -0.038  0.00  0.00    -0.148 NA
ATOM     17  C   UNL     1       0.766  -4.453  -0.034  0.00  0.00    +0.131 C 
ATOM     18  C   UNL     1       0.071  -3.101  -0.016  0.00  0.00    +0.120 C 
BRANCH  14  23
ATOM     19  C   UNL     1      -0.017   1.372   0.010  0.00  0.00    +0.001 A 
ATOM     20  C   UNL     1       1.170   2.089   0.002  0.00  0.00    +0.004 A 
ATOM     21  C   UNL     1       2.385   1.433  -0.013  0.00  0.00    +0.046 A 
ATOM     22  C   UNL     1       2.428   0.047  -0.022  0.00  0.00    +0.126 A 
ATOM     23  C   UNL     1       1.227  -0.685  -0.014  0.00  0.00    +0.040 A 
ATOM     24  C   UNL     1       0.002  -0.004   0.002  0.00  0.00    +0.013 A 
BRANCH  22  25
ATOM     25  O   UNL     1       3.621  -0.598  -0.038  0.00  0.00    -0.506 OA
ATOM     26  H   UNL     1       3.976  -0.790   0.841  0.00  0.00    +0.292 HD
ENDBRANCH  22  25
ENDBRANCH  14  23
ENDBRANCH  10  17
ENDBRANCH   1  12
BRANCH   2  27
ATOM     27  C   UNL     1       1.888 -10.050  -0.477  0.00  0.00    +0.219 C 
ATOM     28  O   UNL     1       1.714 -11.249  -0.529  0.00  0.00    -0.275 OA
ATOM     29  N   UNL     1       2.960  -9.552   0.172  0.00  0.00    -0.308 N 
ATOM     30  H   UNL     1       3.099  -8.593   0.214  0.00  0.00    +0.149 HD
BRANCH  29  31
ATOM     31  C   UNL     1       3.914 -10.459   0.814  0.00  0.00    +0.178 C 
BRANCH  31  32
ATOM     32  C   UNL     1       5.011  -9.656   1.464  0.00  0.00    +0.122 A 
ATOM     33  C   UNL     1       5.006  -9.198   2.729  0.00  0.00    +0.046 A 
ATOM     34  C   UNL     1       6.223  -8.502   2.917  0.00  0.00    +0.041 A 
ATOM     35  C   UNL     1       6.898  -8.576   1.756  0.00  0.00    +0.195 A 
ATOM     36  O   UNL     1       6.162  -9.281   0.881  0.00  0.00    -0.466 OA
ENDBRANCH  31  32
ENDBRANCH  29  31
ENDBRANCH   2  27
TORSDOF 7
