REMARK  Name = ZINC40169850
REMARK  9 active torsions:
REMARK  status: ('A' for Active; 'I' for Inactive)
REMARK    1  A    between atoms: C_1  and  C_2
REMARK    2  A    between atoms: C_2  and  C_3
REMARK    3  A    between atoms: C_3  and  C_5
REMARK    4  A    between atoms: C_3  and  S_18
REMARK    5  A    between atoms: N_7  and  C_8
REMARK    6  A    between atoms: C_9  and  C_15
REMARK    7  A    between atoms: C_10  and  C_14
REMARK    8  A    between atoms: C_11  and  C_13
REMARK    9  A    between atoms: S_18  and  C_19
REMARK                            x       y       z     vdW  Elec       q    Type
REMARK                         _______ _______ _______ _____ _____    ______ ____
ROOT
ATOM      1  C   UNL     1       0.612  -0.523  -1.307  0.00  0.00    +0.140 C 
ENDROOT
BRANCH   1   2
ATOM      2  C   UNL     1       0.428  -2.010  -1.475  0.00  0.00    +0.231 C 
ATOM      3  O   UNL     1       1.319  -2.770  -1.159  0.00  0.00    -0.274 OA
ATOM      4  N   UNL     1      -0.726  -2.494  -1.975  0.00  0.00    -0.278 N 
ATOM      5  H   UNL     1      -1.438  -1.886  -2.227  0.00  0.00    +0.155 HD
BRANCH   4   6
ATOM      6  C   UNL     1      -0.894  -3.862  -2.130  0.00  0.00    +0.084 A 
ATOM      7  C   UNL     1      -2.000  -4.534  -2.629  0.00  0.00    +0.068 A 
ATOM      8  C   UNL     1      -1.911  -5.975  -2.681  0.00  0.00    -0.027 A 
ATOM      9  C   UNL     1      -0.758  -6.508  -2.237  0.00  0.00    -0.008 A 
ATOM     10  S   UNL     1       0.196  -5.084  -1.763  0.00  0.00    -0.078 S 
ATOM     11  C   UNL     1      -0.367  -7.962  -2.166  0.00  0.00    +0.052 C 
ATOM     12  C   UNL     1      -3.040  -6.828  -3.200  0.00  0.00    +0.045 C 
BRANCH   7  13
ATOM     13  C   UNL     1      -3.198  -3.818  -3.079  0.00  0.00    +0.244 C 
ATOM     14  O   UNL     1      -3.294  -3.461  -4.239  0.00  0.00    -0.270 OA
ATOM     15  N   UNL     1      -4.194  -3.556  -2.209  0.00  0.00    -0.325 N 
ATOM     16  H   UNL     1      -4.117  -3.841  -1.285  0.00  0.00    +0.145 HD
ATOM     17  H   UNL     1      -4.986  -3.083  -2.507  0.00  0.00    +0.145 HD
ENDBRANCH   7  13
ENDBRANCH   4   6
ENDBRANCH   1   2
BRANCH   1  19
ATOM     18  C   UNL     1       0.077   1.441   0.142  0.00  0.00    +0.005 C 
ATOM     19  C   UNL     1       0.017  -0.084   0.033  0.00  0.00    +0.020 C 
ENDBRANCH   1  19
BRANCH   1  20
ATOM     20  S   UNL     1       2.381  -0.124  -1.343  0.00  0.00    -0.073 S 
BRANCH  20  21
ATOM     21  C   UNL     1       2.863  -0.474  -3.001  0.00  0.00    +0.197 A 
ATOM     22  N   UNL     1       2.102  -0.987  -3.943  0.00  0.00    -0.122 NA
ATOM     23  N   UNL     1       2.769  -1.109  -5.035  0.00  0.00    -0.129 NA
ATOM     24  C   UNL     1       4.005  -0.680  -4.856  0.00  0.00    +0.162 A 
ATOM     25  N   UNL     1       4.093  -0.257  -3.549  0.00  0.00    -0.270 N 
ATOM     26  C   UNL     1       5.276   0.259  -3.049  0.00  0.00    +0.058 A 
ATOM     27  C   UNL     1       5.370   0.683  -1.730  0.00  0.00    +0.027 A 
ATOM     28  C   UNL     1       6.559   1.194  -1.254  0.00  0.00    +0.002 A 
ATOM     29  C   UNL     1       7.669   1.290  -2.080  0.00  0.00    +0.001 A 
ATOM     30  C   UNL     1       7.598   0.875  -3.391  0.00  0.00    +0.010 A 
ATOM     31  C   UNL     1       6.400   0.355  -3.889  0.00  0.00    -0.001 A 
ATOM     32  C   UNL     1       6.294  -0.095  -5.281  0.00  0.00    +0.013 A 
ATOM     33  C   UNL     1       5.120  -0.599  -5.723  0.00  0.00    +0.049 A 
ENDBRANCH  20  21
ENDBRANCH   1  20
TORSDOF 6
