REMARK  Name = ZINC40734754
REMARK  8 active torsions:
REMARK  status: ('A' for Active; 'I' for Inactive)
REMARK    1  A    between atoms: C_1  and  C_2
REMARK    2  A    between atoms: C_5  and  N_9
REMARK    3  A    between atoms: C_6  and  C_8
REMARK    4  A    between atoms: C_11  and  N_28
REMARK    5  A    between atoms: C_12  and  N_16
REMARK    6  A    between atoms: C_18  and  C_27
REMARK    7  A    between atoms: C_23  and  C_25
REMARK    8  A    between atoms: C_23  and  C_26
REMARK                            x       y       z     vdW  Elec       q    Type
REMARK                         _______ _______ _______ _____ _____    ______ ____
ROOT
ATOM      1  N   UNL     1       0.904  -4.037  -0.345  0.00  0.00    -0.298 N 
ATOM      2  C   UNL     1       0.374  -4.793  -1.384  0.00  0.00    +0.149 A 
ATOM      3  C   UNL     1      -0.192  -6.044  -1.133  0.00  0.00    +0.106 A 
ATOM      4  C   UNL     1      -0.710  -6.762  -2.213  0.00  0.00    +0.147 A 
ATOM      5  N   UNL     1      -0.645  -6.230  -3.431  0.00  0.00    -0.219 NA
ATOM      6  C   UNL     1      -0.101  -5.046  -3.625  0.00  0.00    +0.225 A 
ATOM      7  N   UNL     1       0.395  -4.334  -2.633  0.00  0.00    -0.219 NA
ATOM      8  H   UNL     1       0.801  -4.334   0.573  0.00  0.00    +0.154 HD
ENDROOT
BRANCH   4   9
ATOM      9  N   UNL     1      -1.286  -8.012  -2.018  0.00  0.00    -0.310 N 
ATOM     10  C   UNL     1      -1.270  -8.782  -0.765  0.00  0.00    +0.113 C 
ATOM     11  C   UNL     1      -1.986 -10.119  -1.065  0.00  0.00    -0.014 C 
ATOM     12  C   UNL     1      -2.957  -9.723  -2.209  0.00  0.00    +0.030 C 
ATOM     13  C   UNL     1      -2.027  -8.793  -3.029  0.00  0.00    +0.076 C 
ATOM     14  C   UNL     1      -1.049  -9.686  -3.787  0.00  0.00    +0.029 C 
ATOM     15  C   UNL     1      -0.271 -10.642  -2.901  0.00  0.00    -0.033 C 
ATOM     16  C   UNL     1      -0.973 -11.106  -1.641  0.00  0.00    +0.014 C 
ATOM     17  C   UNL     1       1.090 -10.023  -2.545  0.00  0.00    +0.011 C 
ATOM     18  C   UNL     1       0.032 -11.904  -3.748  0.00  0.00    +0.011 C 
ATOM     19  C   UNL     1      -2.724 -10.674   0.163  0.00  0.00    +0.013 C 
ENDBRANCH   4   9
BRANCH   1  24
ATOM     20  C   UNL     1       3.667   0.787  -1.471  0.00  0.00    +0.044 C 
ATOM     21  C   UNL     1       2.933  -0.495  -1.172  0.00  0.00    -0.050 A 
ATOM     22  C   UNL     1       2.740  -1.430  -2.173  0.00  0.00    +0.005 A 
ATOM     23  C   UNL     1       2.068  -2.605  -1.902  0.00  0.00    +0.024 A 
ATOM     24  C   UNL     1       1.586  -2.849  -0.622  0.00  0.00    +0.035 A 
ATOM     25  C   UNL     1       1.781  -1.908   0.381  0.00  0.00    -0.029 A 
ATOM     26  C   UNL     1       2.459  -0.737   0.104  0.00  0.00    +0.008 A 
ATOM     27  C   UNL     1       1.260  -2.167   1.771  0.00  0.00    +0.045 C 
ENDBRANCH   1  24
BRANCH   3  28
ATOM     28  N   UNL     1      -0.240  -6.566   0.170  0.00  0.00    -0.353 N 
ATOM     29  H   UNL     1      -0.289  -5.967   0.931  0.00  0.00    +0.143 HD
ATOM     30  H   UNL     1      -0.224  -7.526   0.308  0.00  0.00    +0.143 HD
ENDBRANCH   3  28
TORSDOF 3
