REMARK  Name = ZINC64600182
REMARK  8 active torsions:
REMARK  status: ('A' for Active; 'I' for Inactive)
REMARK    1  A    between atoms: C_1  and  O_2
REMARK    2  A    between atoms: O_2  and  C_3
REMARK    3  A    between atoms: C_6  and  C_11
REMARK    4  A    between atoms: C_8  and  O_9
REMARK    5  A    between atoms: O_9  and  C_10
REMARK    6  A    between atoms: C_11  and  C_12
REMARK    7  A    between atoms: C_12  and  N_13
REMARK    8  A    between atoms: C_16  and  C_22
REMARK                            x       y       z     vdW  Elec       q    Type
REMARK                         _______ _______ _______ _____ _____    ______ ____
ROOT
ATOM      1  N   UNL     1       2.253  -3.463   6.558  0.00  0.00    -0.260 N 
ATOM      2  C   UNL     1       2.316  -4.809   6.604  0.00  0.00    +0.265 A 
ATOM      3  O   UNL     1       1.815  -5.477   5.716  0.00  0.00    -0.267 OA
ATOM      4  C   UNL     1       2.964  -5.436   7.683  0.00  0.00    +0.100 A 
ATOM      5  C   UNL     1       3.516  -4.666   8.663  0.00  0.00    +0.263 A 
ATOM      6  N   UNL     1       3.430  -3.300   8.577  0.00  0.00    -0.274 N 
ATOM      7  C   UNL     1       2.809  -2.720   7.533  0.00  0.00    +0.332 A 
ATOM      8  O   UNL     1       2.747  -1.508   7.471  0.00  0.00    -0.246 OA
ATOM      9  O   UNL     1       4.143  -5.244   9.709  0.00  0.00    -0.267 OA
ATOM     10  H   UNL     1       3.821  -2.748   9.272  0.00  0.00    +0.173 HD
ENDROOT
BRANCH   4  11
ATOM     11  C   UNL     1       3.045  -6.939   7.755  0.00  0.00    +0.121 C 
ATOM     12  C   UNL     1       1.639  -7.526   7.900  0.00  0.00    +0.128 C 
ATOM     13  C   UNL     1       1.796  -9.039   7.793  0.00  0.00    -0.035 C 
ATOM     14  C   UNL     1       1.227  -9.552   8.875  0.00  0.00    -0.001 A 
ATOM     15  C   UNL     1       0.987 -10.943   9.293  0.00  0.00    +0.010 A 
ATOM     16  C   UNL     1       0.378 -11.112  10.496  0.00  0.00    +0.001 A 
ATOM     17  C   UNL     1      -0.013 -10.049  11.316  0.00  0.00    +0.002 A 
ATOM     18  C   UNL     1       0.162  -8.739  11.009  0.00  0.00    +0.026 A 
ATOM     19  C   UNL     1       0.788  -8.434   9.766  0.00  0.00    +0.043 A 
ATOM     20  N   UNL     1       1.054  -7.265   9.214  0.00  0.00    -0.376 N 
ATOM     21  C   UNL     1       2.566  -9.677   6.664  0.00  0.00    +0.048 C 
ATOM     22  C   UNL     1       3.895  -8.906   6.561  0.00  0.00    +0.086 C 
ATOM     23  N   UNL     1       3.640  -7.464   6.515  0.00  0.00    -0.307 NA
ATOM     24  H   UNL     1       3.078  -7.221   5.714  0.00  0.00    +0.123 HD
ATOM     25  H   UNL     1       0.898  -6.390   9.603  0.00  0.00    +0.160 HD
ENDBRANCH   4  11
BRANCH   1  26
ATOM     26  C   UNL     1       1.580  -2.804   5.436  0.00  0.00    +0.134 C 
BRANCH  26  27
ATOM     27  C   UNL     1       2.590  -2.548   4.315  0.00  0.00    +0.057 C 
BRANCH  27  31
ATOM     28  C   UNL     1       0.626  -0.619   1.042  0.00  0.00    +0.161 A 
ATOM     29  C   UNL     1       1.202   0.137   2.051  0.00  0.00    +0.049 A 
ATOM     30  C   UNL     1       1.836  -0.490   3.108  0.00  0.00    +0.007 A 
ATOM     31  C   UNL     1       1.897  -1.870   3.161  0.00  0.00    -0.042 A 
ATOM     32  C   UNL     1       1.325  -2.630   2.158  0.00  0.00    +0.053 A 
ATOM     33  C   UNL     1       0.683  -2.008   1.099  0.00  0.00    +0.162 A 
BRANCH  28  35
ATOM     34  C   UNL     1      -0.017   1.425   0.010  0.00  0.00    +0.277 C 
ATOM     35  O   UNL     1       0.002  -0.004   0.002  0.00  0.00    -0.491 OA
ENDBRANCH  28  35
BRANCH  33  36
ATOM     36  O   UNL     1       0.115  -2.754   0.114  0.00  0.00    -0.491 OA
ATOM     37  C   UNL     1       0.211  -4.174   0.238  0.00  0.00    +0.277 C 
ENDBRANCH  33  36
ENDBRANCH  27  31
ENDBRANCH  26  27
ENDBRANCH   1  26
TORSDOF 6
