REMARK  Name = ZINC22957060
REMARK  4 active torsions:
REMARK  status: ('A' for Active; 'I' for Inactive)
REMARK    1  A    between atoms: C_4  and  C_7
REMARK    2  A    between atoms: C_11  and  S_13
REMARK    3  A    between atoms: S_13  and  C_14
REMARK    4  A    between atoms: C_20  and  C_23
REMARK                            x       y       z     vdW  Elec       q    Type
REMARK                         _______ _______ _______ _____ _____    ______ ____
ROOT
ATOM      1  S   UNL     1       1.253   3.608   0.357  0.00  0.00    -0.030 S 
ENDROOT
BRANCH   1   2
ATOM      2  C   UNL     1       1.228   1.848   0.271  0.00  0.00    +0.125 A 
ATOM      3  C   UNL     1       1.787   1.198  -0.847  0.00  0.00    +0.040 A 
ATOM      4  C   UNL     1       1.774  -0.159  -0.923  0.00  0.00    +0.053 A 
ATOM      5  C   UNL     1       1.195  -0.899   0.126  0.00  0.00    +0.178 A 
ATOM      6  N   UNL     1       1.027  -2.193   0.349  0.00  0.00    -0.128 NA
ATOM      7  N   UNL     1       0.429  -2.354   1.478  0.00  0.00    -0.123 NA
ATOM      8  C   UNL     1       0.185  -1.191   2.030  0.00  0.00    +0.258 A 
ATOM      9  N   UNL     1       0.658  -0.236   1.201  0.00  0.00    -0.188 N 
ATOM     10  N   UNL     1       0.688   1.159   1.250  0.00  0.00    -0.156 NA
BRANCH   8  11
ATOM     11  C   UNL     1      -0.498  -0.961   3.353  0.00  0.00    +0.454 C 
ATOM     12  F   UNL     1      -0.550  -2.163   4.067  0.00  0.00    -0.163 F 
ATOM     13  F   UNL     1       0.219  -0.012   4.090  0.00  0.00    -0.163 F 
ATOM     14  F   UNL     1      -1.798  -0.494   3.132  0.00  0.00    -0.163 F 
ENDBRANCH   8  11
ENDBRANCH   1   2
BRANCH   1  19
ATOM     15  C   UNL     1      -2.593   3.632   0.908  0.00  0.00    +0.090 A 
ATOM     16  C   UNL     1      -2.387   4.971   0.848  0.00  0.00    +0.113 A 
ATOM     17  N   UNL     1      -1.041   5.159   0.650  0.00  0.00    -0.339 N 
ATOM     18  H   UNL     1      -0.633   6.177   0.568  0.00  0.00    +0.167 HD
ATOM     19  C   UNL     1      -0.463   3.927   0.596  0.00  0.00    +0.173 A 
ATOM     20  N   UNL     1      -1.395   3.018   0.746  0.00  0.00    -0.222 NA
BRANCH  15  24
ATOM     21  C   UNL     1      -6.337   1.702   1.493  0.00  0.00    +0.000 A 
ATOM     22  C   UNL     1      -5.206   0.949   1.231  0.00  0.00    +0.001 A 
ATOM     23  C   UNL     1      -3.989   1.570   1.040  0.00  0.00    +0.010 A 
ATOM     24  C   UNL     1      -3.899   2.959   1.112  0.00  0.00    +0.002 A 
ATOM     25  C   UNL     1      -5.040   3.712   1.381  0.00  0.00    +0.010 A 
ATOM     26  C   UNL     1      -6.253   3.081   1.565  0.00  0.00    +0.001 A 
ENDBRANCH  15  24
ENDBRANCH   1  19
TORSDOF 4
