REMARK  Name = ZINC19916048
REMARK  3 active torsions:
REMARK  status: ('A' for Active; 'I' for Inactive)
REMARK    1  A    between atoms: C_1  and  C_2
REMARK    2  A    between atoms: C_8  and  N_10
REMARK    3  A    between atoms: N_10  and  C_11
REMARK                            x       y       z     vdW  Elec       q    Type
REMARK                         _______ _______ _______ _____ _____    ______ ____
ROOT
ATOM      1  C   UNL     1       1.072   1.809   2.957  0.00  0.00    +0.031 A 
ATOM      2  C   UNL     1       1.485   2.978   2.333  0.00  0.00    +0.027 A 
ATOM      3  C   UNL     1       2.564   3.684   2.829  0.00  0.00    +0.051 A 
ATOM      4  C   UNL     1       3.237   3.228   3.953  0.00  0.00    +0.162 A 
ATOM      5  C   UNL     1       2.825   2.058   4.581  0.00  0.00    +0.164 A 
ATOM      6  C   UNL     1       1.740   1.353   4.085  0.00  0.00    +0.072 A 
ATOM      7  O   UNL     1       3.471   1.598   5.688  0.00  0.00    -0.485 OA
ATOM      8  C   UNL     1       4.777   2.127   5.938  0.00  0.00    +0.270 C 
ATOM      9  C   UNL     1       4.719   3.651   5.766  0.00  0.00    +0.270 C 
ATOM     10  O   UNL     1       4.301   3.935   4.426  0.00  0.00    -0.485 OA
ENDROOT
BRANCH   1  11
ATOM     11  N   UNL     1      -0.020   1.094   2.454  0.00  0.00    -0.341 N 
ATOM     12  H   UNL     1      -0.347   0.168   2.949  0.00  0.00    +0.146 HD
BRANCH  11  19
ATOM     13  C   UNL     1      -2.880   1.543   2.537  0.00  0.00    +0.009 C 
ATOM     14  C   UNL     1      -2.164   1.050   1.278  0.00  0.00    +0.006 C 
ATOM     15  C   UNL     1      -2.904   1.556   0.038  0.00  0.00    +0.005 C 
ATOM     16  C   UNL     1      -2.188   1.063  -1.221  0.00  0.00    +0.000 C 
ATOM     17  C   UNL     1      -0.753   1.593  -1.232  0.00  0.00    +0.002 C 
ATOM     18  C   UNL     1      -0.013   1.086   0.008  0.00  0.00    +0.022 C 
ATOM     19  C   UNL     1      -0.729   1.579   1.267  0.00  0.00    +0.073 C 
ENDBRANCH  11  19
ENDBRANCH   1  11
TORSDOF 2
