REMARK  Name = ZINC39969296
REMARK  8 active torsions:
REMARK  status: ('A' for Active; 'I' for Inactive)
REMARK    1  A    between atoms: C_1  and  C_2
REMARK    2  A    between atoms: C_2  and  N_3
REMARK    3  A    between atoms: C_4  and  C_24
REMARK    4  A    between atoms: C_8  and  S_10
REMARK    5  A    between atoms: S_10  and  C_11
REMARK    6  A    between atoms: C_11  and  C_12
REMARK    7  A    between atoms: C_30  and  O_33
REMARK    8  A    between atoms: O_33  and  C_34
REMARK                            x       y       z     vdW  Elec       q    Type
REMARK                         _______ _______ _______ _____ _____    ______ ____
ROOT
ATOM      1  N   UNL     1       0.593  -0.712   1.163  0.00  0.00    +0.412 N 
ATOM      2  C   UNL     1       0.650  -2.191   1.101  0.00  0.00    +0.086 C 
ATOM      3  N   UNL     1       0.452  -2.624   2.509  0.00  0.00    -0.264 NA
ATOM      4  N   UNL     1      -0.542  -1.664   3.015  0.00  0.00    -0.261 NA
ATOM      5  C   UNL     1      -0.167  -0.377   2.386  0.00  0.00    +0.077 C 
ATOM      6  H   UNL     1       0.098  -3.567   2.551  0.00  0.00    +0.139 HD
ATOM      7  H   UNL     1      -1.476  -1.938   2.750  0.00  0.00    +0.140 HD
ATOM      8  H   UNL     1       1.525  -0.330   1.220  0.00  0.00    -0.075 HD
ENDROOT
BRANCH   2   9
ATOM      9  C   UNL     1       1.994  -2.645   0.591  0.00  0.00    +0.108 A 
ATOM     10  C   UNL     1       2.589  -3.800   0.919  0.00  0.00    +0.053 A 
ATOM     11  C   UNL     1       3.866  -3.822   0.196  0.00  0.00    +0.024 A 
ATOM     12  C   UNL     1       4.924  -4.728   0.114  0.00  0.00    +0.012 A 
ATOM     13  C   UNL     1       6.004  -4.443  -0.675  0.00  0.00    +0.004 A 
ATOM     14  C   UNL     1       6.056  -3.257  -1.393  0.00  0.00    +0.049 A 
ATOM     15  C   UNL     1       5.018  -2.346  -1.325  0.00  0.00    +0.163 A 
ATOM     16  C   UNL     1       3.908  -2.621  -0.527  0.00  0.00    +0.177 A 
ATOM     17  O   UNL     1       2.766  -1.953  -0.265  0.00  0.00    -0.456 OA
BRANCH  15  18
ATOM     18  O   UNL     1       5.079  -1.187  -2.034  0.00  0.00    -0.491 OA
ATOM     19  C   UNL     1       6.247  -0.975  -2.830  0.00  0.00    +0.277 C 
ENDBRANCH  15  18
ENDBRANCH   2   9
BRANCH   1  21
ATOM     20  C   UNL     1       0.760  -0.428  -1.263  0.00  0.00    -0.017 C 
ATOM     21  C   UNL     1      -0.099  -0.184  -0.021  0.00  0.00    -0.076 C 
ENDBRANCH   1  21
BRANCH   5  22
ATOM     22  S   UNL     1      -1.659   0.561   1.953  0.00  0.00    -0.152 S 
BRANCH  22  23
ATOM     23  C   UNL     1      -2.206   1.266   3.532  0.00  0.00    +0.143 C 
BRANCH  23  24
ATOM     24  C   UNL     1      -3.387   2.172   3.295  0.00  0.00    +0.120 A 
ATOM     25  N   UNL     1      -3.940   2.803   4.363  0.00  0.00    -0.310 N 
ATOM     26  H   UNL     1      -3.571   2.662   5.249  0.00  0.00    +0.170 HD
ATOM     27  C   UNL     1      -5.002   3.627   4.203  0.00  0.00    +0.259 A 
ATOM     28  O   UNL     1      -5.507   4.200   5.151  0.00  0.00    -0.267 OA
ATOM     29  C   UNL     1      -5.521   3.805   2.839  0.00  0.00    +0.065 A 
ATOM     30  C   UNL     1      -6.609   4.631   2.566  0.00  0.00    +0.015 A 
ATOM     31  C   UNL     1      -7.054   4.761   1.269  0.00  0.00    +0.001 A 
ATOM     32  C   UNL     1      -6.428   4.077   0.235  0.00  0.00    +0.002 A 
ATOM     33  C   UNL     1      -5.351   3.256   0.483  0.00  0.00    +0.028 A 
ATOM     34  C   UNL     1      -4.881   3.108   1.790  0.00  0.00    +0.078 A 
ATOM     35  N   UNL     1      -3.820   2.314   2.079  0.00  0.00    -0.233 NA
ENDBRANCH  23  24
ENDBRANCH  22  23
ENDBRANCH   5  22
TORSDOF 6
