REMARK  Name = ZINC09605508
REMARK  12 active torsions:
REMARK  status: ('A' for Active; 'I' for Inactive)
REMARK    1  A    between atoms: C_1  and  C_2
REMARK    2  A    between atoms: C_3  and  C_32
REMARK    3  A    between atoms: N_4  and  C_26
REMARK    4  A    between atoms: C_5  and  N_9
REMARK    5  A    between atoms: C_6  and  C_7
REMARK    6  A    between atoms: C_10  and  C_12
REMARK    7  A    between atoms: C_12  and  N_57
REMARK    8  A    between atoms: C_13  and  N_57
REMARK    9  A    between atoms: C_14  and  C_16
REMARK   10  A    between atoms: C_14  and  C_17
REMARK   11  A    between atoms: C_14  and  N_57
REMARK   12  A    between atoms: C_26  and  C_27
REMARK                            x       y       z     vdW  Elec       q    Type
REMARK                         _______ _______ _______ _____ _____    ______ ____
ROOT
ATOM      1  N   UNL     1      -1.286   6.141   1.811  0.00  0.00    -0.272 N 
ATOM      2  C   UNL     1      -0.973   6.140   0.500  0.00  0.00    +0.202 C 
ATOM      3  O   UNL     1      -1.673   5.542  -0.290  0.00  0.00    -0.278 OA
ATOM      4  H   UNL     1      -0.727   6.619   2.443  0.00  0.00    +0.156 HD
ENDROOT
BRANCH   1   9
ATOM      5  C   UNL     1      -4.693   2.537   2.786  0.00  0.00    +0.047 C 
ATOM      6  C   UNL     1      -3.966   3.856   2.713  0.00  0.00    -0.011 A 
ATOM      7  C   UNL     1      -4.375   5.026   3.229  0.00  0.00    +0.022 A 
ATOM      8  N   UNL     1      -3.445   5.992   2.952  0.00  0.00    -0.327 N 
ATOM      9  C   UNL     1      -2.409   5.458   2.257  0.00  0.00    +0.124 A 
ATOM     10  C   UNL     1      -2.671   4.108   2.069  0.00  0.00    +0.095 A 
ATOM     11  C   UNL     1      -5.659   5.243   3.989  0.00  0.00    +0.064 C 
BRANCH  10  12
ATOM     12  C   UNL     1      -1.848   3.156   1.387  0.00  0.00    +0.103 C 
ATOM     13  N   UNL     1      -1.194   2.401   0.845  0.00  0.00    -0.191 NA
ENDBRANCH  10  12
BRANCH   8  14
ATOM     14  C   UNL     1      -3.550   7.397   3.354  0.00  0.00    +0.165 C 
BRANCH  14  15
ATOM     15  C   UNL     1      -4.117   8.205   2.216  0.00  0.00    +0.009 A 
ATOM     16  C   UNL     1      -5.410   8.515   1.950  0.00  0.00    +0.013 A 
ATOM     17  C   UNL     1      -5.700   9.275   0.832  0.00  0.00    +0.008 A 
ATOM     18  C   UNL     1      -4.683   9.697   0.041  0.00  0.00    +0.045 A 
ATOM     19  S   UNL     1      -3.260   9.008   0.871  0.00  0.00    -0.100 S 
ENDBRANCH  14  15
ENDBRANCH   8  14
ENDBRANCH   1   9
BRANCH   2  20
ATOM     20  C   UNL     1       0.246   6.881   0.017  0.00  0.00    +0.019 C 
BRANCH  20  22
ATOM     21  C   UNL     1       0.931   5.249  -1.635  0.00  0.00    -0.095 C 
ATOM     22  N   UNL     1       0.419   6.620  -1.428  0.00  0.00    +0.389 N 
ATOM     23  H   UNL     1      -0.491   6.710  -1.894  0.00  0.00    -0.081 HD
BRANCH  22  24
ATOM     24  C   UNL     1       1.356   7.602  -2.011  0.00  0.00    -0.014 C 
ATOM     25  C   UNL     1       0.768   9.005  -1.848  0.00  0.00    -0.006 C 
BRANCH  24  26
ATOM     26  C   UNL     1       1.535   7.300  -3.476  0.00  0.00    +0.066 A 
ATOM     27  N   UNL     1       0.623   6.992  -4.355  0.00  0.00    -0.246 NA
ATOM     28  C   UNL     1       0.916   6.747  -5.649  0.00  0.00    +0.078 A 
ATOM     29  C   UNL     1       0.048   6.409  -6.711  0.00  0.00    +0.029 A 
ATOM     30  C   UNL     1       0.534   6.190  -7.962  0.00  0.00    +0.002 A 
ATOM     31  C   UNL     1       1.889   6.287  -8.245  0.00  0.00    +0.001 A 
ATOM     32  C   UNL     1       2.772   6.615  -7.233  0.00  0.00    +0.017 A 
ATOM     33  C   UNL     1       2.291   6.839  -5.965  0.00  0.00    +0.039 A 
ATOM     34  S   UNL     1       3.005   7.269  -4.399  0.00  0.00    -0.074 S 
ENDBRANCH  24  26
ENDBRANCH  22  24
ENDBRANCH  20  22
ENDBRANCH   2  20
TORSDOF 8
