REMARK  Name = ZINC39450935
REMARK  5 active torsions:
REMARK  status: ('A' for Active; 'I' for Inactive)
REMARK    1  A    between atoms: C_1  and  C_2
REMARK    2  A    between atoms: C_2  and  C_3
REMARK    3  A    between atoms: C_2  and  S_4
REMARK    4  A    between atoms: S_4  and  C_7
REMARK    5  A    between atoms: N_13  and  C_16
REMARK                            x       y       z     vdW  Elec       q    Type
REMARK                         _______ _______ _______ _____ _____    ______ ____
ROOT
ATOM      1  C   UNL     1      -2.433   0.018  -1.449  0.00  0.00    +0.107 A 
ATOM      2  C   UNL     1      -3.071   1.246  -1.422  0.00  0.00    +0.044 A 
ATOM      3  C   UNL     1      -3.636   1.717  -2.609  0.00  0.00    +0.069 A 
ATOM      4  C   UNL     1      -3.537   0.932  -3.778  0.00  0.00    +0.099 A 
ATOM      5  C   UNL     1      -4.139   1.450  -5.014  0.00  0.00    +0.082 A 
ATOM      6  C   UNL     1      -4.782   2.673  -5.004  0.00  0.00    +0.115 A 
ATOM      7  N   UNL     1      -4.863   3.427  -3.840  0.00  0.00    -0.268 N 
ATOM      8  C   UNL     1      -4.332   3.009  -2.677  0.00  0.00    +0.266 A 
ATOM      9  O   UNL     1      -4.428   3.701  -1.680  0.00  0.00    -0.267 OA
ATOM     10  C   UNL     1      -5.371   3.167  -6.191  0.00  0.00    +0.185 C 
ATOM     11  O   UNL     1      -5.893   4.264  -6.192  0.00  0.00    -0.290 OA
ATOM     12  C   UNL     1      -5.359   2.346  -7.454  0.00  0.00    +0.119 C 
ATOM     13  C   UNL     1      -4.115   1.449  -7.464  0.00  0.00    +0.171 C 
ATOM     14  N   UNL     1      -4.061   0.722  -6.187  0.00  0.00    -0.324 N 
ATOM     15 CL   UNL     1      -2.636   2.463  -7.650  0.00  0.00    -0.101 Cl
ATOM     16  N   UNL     1      -2.913  -0.239  -3.746  0.00  0.00    -0.251 NA
ATOM     17  C   UNL     1      -2.370  -0.696  -2.638  0.00  0.00    +0.138 A 
ATOM     18  H   UNL     1      -3.974  -0.244  -6.168  0.00  0.00    +0.148 HD
ENDROOT
BRANCH   7  19
ATOM     19  C   UNL     1      -5.519   4.663  -3.878  0.00  0.00    +0.097 A 
ATOM     20  C   UNL     1      -6.880   4.737  -3.614  0.00  0.00    +0.030 A 
ATOM     21  C   UNL     1      -7.525   5.959  -3.652  0.00  0.00    +0.002 A 
ATOM     22  C   UNL     1      -6.819   7.109  -3.953  0.00  0.00    +0.004 A 
ATOM     23  C   UNL     1      -5.464   7.043  -4.218  0.00  0.00    +0.053 A 
ATOM     24  C   UNL     1      -4.808   5.823  -4.177  0.00  0.00    +0.203 A 
ATOM     25  O   UNL     1      -3.474   5.758  -4.431  0.00  0.00    -0.286 OA
ENDBRANCH   7  19
BRANCH   1  26
ATOM     26  S   UNL     1      -1.700  -0.632   0.015  0.00  0.00    +0.001 S 
ATOM     27  O   UNL     1      -1.703  -2.041  -0.172  0.00  0.00    -0.169 OA
ATOM     28  O   UNL     1      -2.431  -0.041   1.080  0.00  0.00    -0.169 OA
BRANCH  26  30
ATOM     29  C   UNL     1      -0.019   1.526   0.010  0.00  0.00    +0.032 C 
ATOM     30  C   UNL     1       0.002  -0.004   0.002  0.00  0.00    +0.130 C 
ATOM     31  C   UNL     1       0.742  -0.511   1.242  0.00  0.00    +0.032 C 
ENDBRANCH  26  30
ENDBRANCH   1  26
TORSDOF 3
