REMARK  Name = ZINC43221379
REMARK  9 active torsions:
REMARK  status: ('A' for Active; 'I' for Inactive)
REMARK    1  A    between atoms: C_1  and  C_2
REMARK    2  A    between atoms: C_2  and  C_3
REMARK    3  A    between atoms: C_7  and  C_34
REMARK    4  A    between atoms: C_8  and  N_9
REMARK    5  A    between atoms: C_14  and  C_26
REMARK    6  A    between atoms: C_17  and  C_22
REMARK    7  A    between atoms: C_17  and  C_23
REMARK    8  A    between atoms: C_31  and  O_32
REMARK    9  A    between atoms: C_34  and  C_35
REMARK                            x       y       z     vdW  Elec       q    Type
REMARK                         _______ _______ _______ _____ _____    ______ ____
ROOT
ATOM      1  N   UNL     1      -1.226  -0.642  -2.385  0.00  0.00    -0.209 N 
ATOM      2  C   UNL     1      -1.347   0.652  -2.828  0.00  0.00    +0.229 C 
ATOM      3  O   UNL     1      -1.694   1.623  -2.191  0.00  0.00    -0.275 OA
ATOM      4  C   UNL     1      -0.967   0.598  -4.220  0.00  0.00    +0.077 C 
ATOM      5  C   UNL     1      -0.529   1.488  -5.305  0.00  0.00    -0.023 C 
ATOM      6  N   UNL     1       0.100   0.567  -6.308  0.00  0.00    +0.395 N 
ATOM      7  C   UNL     1       0.115  -0.808  -5.711  0.00  0.00    +0.045 C 
ATOM      8  C   UNL     1       0.168  -0.502  -4.199  0.00  0.00    +0.086 C 
ATOM      9  C   UNL     1      -0.542  -1.438  -3.259  0.00  0.00    +0.229 C 
ATOM     10  O   UNL     1      -0.513  -2.650  -3.276  0.00  0.00    -0.275 OA
ATOM     11  C   UNL     1      -1.151  -1.577  -6.090  0.00  0.00    +0.002 C 
ATOM     12  H   UNL     1      -0.442   0.565  -7.159  0.00  0.00    -0.083 HD
ATOM     13  H   UNL     1       1.044   0.867  -6.503  0.00  0.00    -0.083 HD
ENDROOT
BRANCH   5  14
ATOM     14  C   UNL     1       0.479   2.484  -4.795  0.00  0.00    -0.018 A 
ATOM     15  C   UNL     1       1.829   2.195  -4.855  0.00  0.00    +0.020 A 
ATOM     16  C   UNL     1       2.755   3.109  -4.387  0.00  0.00    +0.018 A 
ATOM     17  C   UNL     1       2.333   4.315  -3.857  0.00  0.00    +0.019 A 
ATOM     18  C   UNL     1       0.984   4.609  -3.795  0.00  0.00    +0.047 A 
ATOM     19  C   UNL     1       0.054   3.696  -4.269  0.00  0.00    +0.119 A 
ATOM     20 BR   UNL     1       4.602   2.709  -4.470  0.00  0.00    -0.050 Br
BRANCH  19  21
ATOM     21  O   UNL     1      -1.273   3.985  -4.214  0.00  0.00    -0.507 OA
ATOM     22  H   UNL     1      -1.703   3.704  -3.394  0.00  0.00    +0.292 HD
ENDBRANCH  19  21
ENDBRANCH   5  14
BRANCH   1  28
ATOM     23  C   UNL     1      -0.971  -1.034  -0.014  0.00  0.00    -0.026 A 
ATOM     24  C   UNL     1      -1.487  -1.478   1.188  0.00  0.00    +0.005 A 
ATOM     25  C   UNL     1      -2.771  -1.989   1.245  0.00  0.00    +0.001 A 
ATOM     26  C   UNL     1      -3.542  -2.057   0.099  0.00  0.00    +0.005 A 
ATOM     27  C   UNL     1      -3.032  -1.615  -1.106  0.00  0.00    -0.026 A 
ATOM     28  C   UNL     1      -1.745  -1.097  -1.165  0.00  0.00    +0.050 A 
BRANCH  23  30
ATOM     29  C   UNL     1       0.376   1.046   0.054  0.00  0.00    +0.009 C 
ATOM     30  C   UNL     1       0.428  -0.478  -0.075  0.00  0.00    +0.033 C 
ENDBRANCH  23  30
BRANCH  27  31
ATOM     31  C   UNL     1      -3.873  -1.690  -2.354  0.00  0.00    +0.033 C 
ATOM     32  C   UNL     1      -3.551  -2.981  -3.109  0.00  0.00    +0.009 C 
ENDBRANCH  27  31
ENDBRANCH   1  28
BRANCH   7  33
ATOM     33  C   UNL     1       1.348  -1.562  -6.139  0.00  0.00    +0.346 C 
ATOM     34  O   UNL     1       2.149  -1.041  -6.896  0.00  0.00    -0.248 OA
ATOM     35  O   UNL     1       1.544  -2.693  -5.728  0.00  0.00    -0.248 OA
ENDBRANCH   7  33
TORSDOF 6
