REMARK  Name = ZINC19996725
REMARK  5 active torsions:
REMARK  status: ('A' for Active; 'I' for Inactive)
REMARK    1  A    between atoms: C_1  and  C_2
REMARK    2  A    between atoms: N_4  and  N_5
REMARK    3  A    between atoms: C_6  and  C_8
REMARK    4  A    between atoms: C_8  and  N_9
REMARK    5  A    between atoms: C_18  and  C_19
REMARK                            x       y       z     vdW  Elec       q    Type
REMARK                         _______ _______ _______ _____ _____    ______ ____
ROOT
ATOM      1  N   UNL     1       1.247  -4.587  -0.396  0.00  0.00    -0.283 N 
ATOM      2  C   UNL     1       1.765  -3.343  -0.523  0.00  0.00    +0.263 A 
ATOM      3  O   UNL     1       2.919  -3.154  -0.867  0.00  0.00    -0.267 OA
ATOM      4  C   UNL     1       0.871  -2.259  -0.227  0.00  0.00    +0.076 A 
ATOM      5  C   UNL     1       1.177  -0.842  -0.287  0.00  0.00    -0.023 A 
ATOM      6  C   UNL     1       0.175   0.011   0.035  0.00  0.00    -0.004 A 
ATOM      7  S   UNL     1      -1.210  -1.028   0.429  0.00  0.00    -0.073 S 
ATOM      8  C   UNL     1      -0.446  -2.597   0.162  0.00  0.00    +0.116 A 
ATOM      9  N   UNL     1      -0.892  -3.841   0.268  0.00  0.00    -0.222 NA
ATOM     10  C   UNL     1      -0.042  -4.818  -0.012  0.00  0.00    +0.145 A 
ATOM     11  C   UNL     1       0.228   1.507   0.054  0.00  0.00    +0.043 C 
ATOM     12  C   UNL     1       1.699   1.942   0.013  0.00  0.00    +0.005 C 
ATOM     13  C   UNL     1       2.410   1.159  -1.096  0.00  0.00    +0.005 C 
ATOM     14  C   UNL     1       2.549  -0.307  -0.688  0.00  0.00    +0.037 C 
ENDROOT
BRANCH  10  15
ATOM     15  C   UNL     1      -0.509  -6.215   0.097  0.00  0.00    +0.018 A 
ATOM     16  C   UNL     1      -1.622  -6.641  -0.631  0.00  0.00    +0.011 A 
ATOM     17  C   UNL     1      -2.049  -7.949  -0.529  0.00  0.00    +0.001 A 
ATOM     18  C   UNL     1      -1.385  -8.835   0.301  0.00  0.00    +0.000 A 
ATOM     19  C   UNL     1      -0.285  -8.418   1.029  0.00  0.00    +0.001 A 
ATOM     20  C   UNL     1       0.157  -7.114   0.932  0.00  0.00    +0.011 A 
ENDBRANCH  10  15
BRANCH   1  21
ATOM     21  C   UNL     1       2.108  -5.737  -0.684  0.00  0.00    +0.224 C 
BRANCH  21  23
ATOM     22  N   UNL     1       2.798  -7.053  -2.661  0.00  0.00    -0.233 N 
ATOM     23  C   UNL     1       2.076  -6.031  -2.161  0.00  0.00    +0.249 C 
ATOM     24  O   UNL     1       1.400  -5.348  -2.901  0.00  0.00    -0.272 OA
ATOM     25  H   UNL     1       3.410  -7.673  -1.990  0.00  0.00    +0.173 HD
BRANCH  22  29
ATOM     26  C   UNL     1       3.458  -8.644  -6.011  0.00  0.00    +0.110 C 
ATOM     27  C   UNL     1       3.490  -8.350  -4.534  0.00  0.00    +0.226 C 
ATOM     28  O   UNL     1       4.166  -9.033  -3.794  0.00  0.00    -0.275 OA
ATOM     29  N   UNL     1       2.768  -7.327  -4.034  0.00  0.00    -0.235 N 
ATOM     30  H   UNL     1       2.155  -6.707  -4.705  0.00  0.00    +0.173 HD
ENDBRANCH  22  29
ENDBRANCH  21  23
ENDBRANCH   1  21
TORSDOF 4
