REMARK  Name = ZINC04303939
REMARK  9 active torsions:
REMARK  status: ('A' for Active; 'I' for Inactive)
REMARK    1  A    between atoms: C_1  and  C_2
REMARK    2  A    between atoms: C_2  and  C_3
REMARK    3  A    between atoms: C_3  and  C_4
REMARK    4  A    between atoms: C_4  and  C_5
REMARK    5  A    between atoms: C_8  and  N_11
REMARK    6  A    between atoms: C_12  and  C_30
REMARK    7  A    between atoms: N_21  and  C_26
REMARK    8  A    between atoms: N_24  and  C_25
REMARK    9  A    between atoms: C_26  and  C_27
REMARK                            x       y       z     vdW  Elec       q    Type
REMARK                         _______ _______ _______ _____ _____    ______ ____
ROOT
ATOM      1  N   UNL     1      -6.335  -2.478   2.516  0.00  0.00    -0.283 N 
ATOM      2  C   UNL     1      -5.856  -2.069   3.748  0.00  0.00    +0.040 A 
ATOM      3  C   UNL     1      -4.871  -1.200   3.542  0.00  0.00    +0.116 A 
ATOM      4  N   UNL     1      -4.705  -1.043   2.177  0.00  0.00    -0.277 N 
ATOM      5  C   UNL     1      -5.609  -1.831   1.548  0.00  0.00    +0.223 A 
ATOM      6  N   UNL     1      -5.470  -1.696   0.238  0.00  0.00    -0.193 NA
ATOM      7  C   UNL     1      -4.492  -0.834  -0.029  0.00  0.00    +0.170 A 
ATOM      8  C   UNL     1      -3.978  -0.394   1.190  0.00  0.00    +0.157 A 
ATOM      9  C   UNL     1      -2.923   0.533   1.193  0.00  0.00    +0.283 A 
ATOM     10  O   UNL     1      -2.457   0.932   2.247  0.00  0.00    -0.265 OA
ATOM     11  N   UNL     1      -2.430   0.977   0.019  0.00  0.00    -0.250 N 
ATOM     12  C   UNL     1      -2.936   0.551  -1.151  0.00  0.00    +0.334 A 
ATOM     13  O   UNL     1      -2.469   0.979  -2.190  0.00  0.00    -0.246 OA
ATOM     14  N   UNL     1      -3.943  -0.341  -1.202  0.00  0.00    -0.279 N 
ATOM     15  C   UNL     1      -4.463  -0.785  -2.498  0.00  0.00    +0.155 C 
ATOM     16  C   UNL     1      -6.364  -2.528   5.091  0.00  0.00    +0.065 C 
ENDROOT
BRANCH   1  20
ATOM     17  C   UNL     1      -9.430  -5.191   1.861  0.00  0.00    -0.047 A 
ATOM     18  C   UNL     1      -9.692  -3.981   2.478  0.00  0.00    +0.005 A 
ATOM     19  C   UNL     1      -8.668  -3.080   2.697  0.00  0.00    +0.026 A 
ATOM     20  C   UNL     1      -7.375  -3.390   2.296  0.00  0.00    +0.050 A 
ATOM     21  C   UNL     1      -7.116  -4.603   1.673  0.00  0.00    +0.026 A 
ATOM     22  C   UNL     1      -8.143  -5.502   1.461  0.00  0.00    +0.005 A 
BRANCH  17  23
ATOM     23  C   UNL     1     -10.549  -6.172   1.624  0.00  0.00    +0.035 C 
BRANCH  23  24
ATOM     24  C   UNL     1     -11.182  -5.902   0.258  0.00  0.00    +0.004 C 
BRANCH  24  26
ATOM     25  C   UNL     1     -12.951  -6.629  -1.350  0.00  0.00    +0.004 C 
ATOM     26  C   UNL     1     -12.318  -6.899   0.017  0.00  0.00    -0.003 C 
ENDBRANCH  24  26
ENDBRANCH  23  24
ENDBRANCH  17  23
ENDBRANCH   1  20
BRANCH  11  27
ATOM     27  C   UNL     1      -1.330   1.944   0.019  0.00  0.00    +0.225 C 
BRANCH  27  28
ATOM     28  C   UNL     1      -0.014   1.209   0.009  0.00  0.00    +0.231 C 
ATOM     29  O   UNL     1       0.002  -0.004   0.002  0.00  0.00    -0.274 OA
ATOM     30  N   UNL     1       1.143   1.898   0.001  0.00  0.00    -0.328 N 
ATOM     31  H   UNL     1       1.990   1.425  -0.009  0.00  0.00    +0.145 HD
ATOM     32  H   UNL     1       1.130   2.868   0.007  0.00  0.00    +0.145 HD
ENDBRANCH  27  28
ENDBRANCH  11  27
TORSDOF 6
