REMARK  Name = ZINC39467113
REMARK  4 active torsions:
REMARK  status: ('A' for Active; 'I' for Inactive)
REMARK    1  A    between atoms: C_4  and  O_33
REMARK    2  A    between atoms: C_5  and  C_7
REMARK    3  A    between atoms: P_16  and  C_26
REMARK    4  A    between atoms: C_31  and  O_32
REMARK                            x       y       z     vdW  Elec       q    Type
REMARK                         _______ _______ _______ _____ _____    ______ ____
ROOT
ATOM      1  C   UNL     1       1.245  -2.165  -0.022  0.00  0.00    +0.017 C 
ATOM      2  C   UNL     1       0.951  -2.841  -1.144  0.00  0.00    -0.012 C 
ATOM      3  C   UNL     1       0.992  -4.346  -1.141  0.00  0.00    +0.016 C 
ATOM      4  C   UNL     1       1.235  -4.873  -2.547  0.00  0.00    -0.003 C 
ATOM      5  C   UNL     1       1.903  -6.254  -2.515  0.00  0.00    -0.020 C 
ATOM      6  C   UNL     1       1.443  -6.967  -3.796  0.00  0.00    +0.157 C 
ATOM      7  O   UNL     1       2.038  -8.271  -3.885  0.00  0.00    -0.316 OA
ATOM      8  P   UNL     1       1.905  -9.241  -2.584  0.00  0.00    +0.291 P 
ATOM      9  O   UNL     1       2.951 -10.287  -2.613  0.00  0.00    -0.269 OA
ATOM     10  N   UNL     1       2.127  -8.244  -1.291  0.00  0.00    -0.288 NA
ATOM     11  N   UNL     1       1.531  -7.000  -1.318  0.00  0.00    +0.398 N 
ATOM     12  C   UNL     1       2.011  -6.354  -0.087  0.00  0.00    -0.046 C 
ATOM     13  C   UNL     1       2.123  -4.831  -0.236  0.00  0.00    +0.007 C 
ATOM     14  C   UNL     1       2.016  -4.171   1.113  0.00  0.00    +0.014 C 
ATOM     15  C   UNL     1       1.601  -2.913   1.205  0.00  0.00    +0.127 C 
ATOM     16  F   UNL     1       1.500  -2.321   2.415  0.00  0.00    -0.205 F 
ATOM     17  H   UNL     1       2.657  -8.531  -0.530  0.00  0.00    +0.111 HD
ATOM     18  H   UNL     1       0.527  -7.096  -1.280  0.00  0.00    -0.055 HD
ENDROOT
BRANCH   1  23
ATOM     19  C   UNL     1      -0.017   1.376   0.010  0.00  0.00    +0.001 A 
ATOM     20  C   UNL     1       1.169   2.089   0.002  0.00  0.00    +0.004 A 
ATOM     21  C   UNL     1       2.382   1.426  -0.013  0.00  0.00    +0.046 A 
ATOM     22  C   UNL     1       2.416   0.041  -0.021  0.00  0.00    +0.125 A 
ATOM     23  C   UNL     1       1.219  -0.683  -0.013  0.00  0.00    +0.026 A 
ATOM     24  C   UNL     1       0.002  -0.004   0.002  0.00  0.00    +0.012 A 
BRANCH  22  25
ATOM     25  O   UNL     1       3.607  -0.612  -0.037  0.00  0.00    -0.506 OA
ATOM     26  H   UNL     1       3.961  -0.806   0.842  0.00  0.00    +0.292 HD
ENDBRANCH  22  25
ENDBRANCH   1  23
BRANCH   8  27
ATOM     27  C   UNL     1       0.258  -9.998  -2.527  0.00  0.00    +0.091 A 
ATOM     28  C   UNL     1      -0.773  -9.361  -1.863  0.00  0.00    +0.018 A 
ATOM     29  C   UNL     1      -2.029  -9.938  -1.819  0.00  0.00    +0.001 A 
ATOM     30  C   UNL     1      -2.256 -11.153  -2.439  0.00  0.00    +0.004 A 
ATOM     31  C   UNL     1      -1.229 -11.793  -3.104  0.00  0.00    +0.046 A 
ATOM     32  C   UNL     1       0.031 -11.214  -3.155  0.00  0.00    +0.131 A 
BRANCH  32  33
ATOM     33  O   UNL     1       1.042 -11.839  -3.813  0.00  0.00    -0.506 OA
ATOM     34  H   UNL     1       1.556 -12.445  -3.261  0.00  0.00    +0.292 HD
ENDBRANCH  32  33
ENDBRANCH   8  27
TORSDOF 4
