REMARK  Name = ZINC61882110
REMARK  7 active torsions:
REMARK  status: ('A' for Active; 'I' for Inactive)
REMARK    1  A    between atoms: C_1  and  C_2
REMARK    2  A    between atoms: C_2  and  C_4
REMARK    3  A    between atoms: C_2  and  N_9
REMARK    4  A    between atoms: N_9  and  C_10
REMARK    5  A    between atoms: N_9  and  S_11
REMARK    6  A    between atoms: S_11  and  C_14
REMARK    7  A    between atoms: C_18  and  N_21
REMARK                            x       y       z     vdW  Elec       q    Type
REMARK                         _______ _______ _______ _____ _____    ______ ____
ROOT
ATOM      1  S   UNL     1      -2.492  -1.174  -0.966  0.00  0.00    +0.062 S 
ATOM      2  O   UNL     1      -3.869  -0.832  -0.895  0.00  0.00    -0.153 OA
ATOM      3  O   UNL     1      -1.730  -1.028  -2.156  0.00  0.00    -0.153 OA
ENDROOT
BRANCH   1   4
ATOM      4  C   UNL     1      -2.370  -2.868  -0.495  0.00  0.00    +0.123 A 
ATOM      5  C   UNL     1      -3.492  -3.544  -0.052  0.00  0.00    +0.049 A 
ATOM      6  C   UNL     1      -3.400  -4.875   0.318  0.00  0.00    +0.045 A 
ATOM      7  C   UNL     1      -2.186  -5.532   0.245  0.00  0.00    +0.044 A 
ATOM      8  C   UNL     1      -1.058  -4.855  -0.199  0.00  0.00    +0.042 A 
ATOM      9  C   UNL     1      -1.155  -3.520  -0.575  0.00  0.00    +0.065 A 
ATOM     10 BR   UNL     1       0.377  -2.596  -1.189  0.00  0.00    -0.046 Br
ATOM     11 CL   UNL     1      -4.811  -5.719   0.874  0.00  0.00    -0.083 Cl
BRANCH   8  12
ATOM     12  N   UNL     1       0.171  -5.516  -0.274  0.00  0.00    -0.357 N 
ATOM     13  H   UNL     1       0.237  -6.449  -0.014  0.00  0.00    +0.142 HD
ATOM     14  H   UNL     1       0.958  -5.043  -0.584  0.00  0.00    +0.142 HD
ENDBRANCH   8  12
ENDBRANCH   1   4
BRANCH   1  15
ATOM     15  N   UNL     1      -1.723  -0.285   0.201  0.00  0.00    -0.172 NA
ATOM     16  C   UNL     1      -2.418   0.044   1.448  0.00  0.00    +0.132 C 
BRANCH  15  18
ATOM     17  C   UNL     1      -0.275   1.685   0.197  0.00  0.00    +0.031 C 
ATOM     18  C   UNL     1      -0.348   0.172  -0.014  0.00  0.00    +0.113 C 
BRANCH  18  19
ATOM     19  C   UNL     1       0.569  -0.516   0.964  0.00  0.00    +0.008 A 
ATOM     20  C   UNL     1       1.859  -0.901   0.800  0.00  0.00    +0.013 A 
ATOM     21  C   UNL     1       2.511  -1.523   1.847  0.00  0.00    +0.008 A 
ATOM     22  C   UNL     1       1.843  -1.730   3.008  0.00  0.00    +0.045 A 
ATOM     23  S   UNL     1       0.242  -1.029   2.642  0.00  0.00    -0.100 S 
ENDBRANCH  18  19
ENDBRANCH  15  18
ENDBRANCH   1  15
TORSDOF 5
