REMARK  Name = ZINC63594422
REMARK  6 active torsions:
REMARK  status: ('A' for Active; 'I' for Inactive)
REMARK    1  A    between atoms: C_1  and  C_2
REMARK    2  A    between atoms: C_4  and  O_10
REMARK    3  A    between atoms: C_6  and  C_9
REMARK    4  A    between atoms: O_10  and  C_11
REMARK    5  A    between atoms: C_11  and  C_13
REMARK    6  A    between atoms: C_16  and  N_19
REMARK                            x       y       z     vdW  Elec       q    Type
REMARK                         _______ _______ _______ _____ _____    ______ ____
ROOT
ATOM      1  C   UNL     1       0.271  -4.856  -3.602  0.00  0.00    +0.060 A 
ATOM      2  C   UNL     1      -0.034  -4.250  -4.824  0.00  0.00    +0.017 A 
ATOM      3  C   UNL     1       0.079  -4.968  -5.993  0.00  0.00    +0.026 A 
ATOM      4  C   UNL     1       0.495  -6.295  -5.959  0.00  0.00    +0.056 A 
ATOM      5  C   UNL     1       0.799  -6.902  -4.745  0.00  0.00    +0.026 A 
ATOM      6  C   UNL     1       0.695  -6.188  -3.572  0.00  0.00    +0.017 A 
ENDROOT
BRANCH   4   7
ATOM      7  N   UNL     1       0.609  -7.019  -7.146  0.00  0.00    -0.188 N 
ATOM      8  C   UNL     1       0.042  -8.237  -7.242  0.00  0.00    +0.237 C 
ATOM      9  O   UNL     1      -0.567  -8.696  -6.299  0.00  0.00    -0.274 OA
ATOM     10  C   UNL     1       0.161  -9.031  -8.517  0.00  0.00    +0.107 C 
ATOM     11  C   UNL     1       0.154  -8.081  -9.715  0.00  0.00    +0.106 C 
ATOM     12  C   UNL     1       1.125  -6.955  -9.472  0.00  0.00    +0.230 C 
ATOM     13  O   UNL     1       1.742  -6.478 -10.401  0.00  0.00    -0.274 OA
ATOM     14  N   UNL     1       1.305  -6.473  -8.229  0.00  0.00    -0.227 N 
ATOM     15  H   UNL     1       1.927  -5.742  -8.084  0.00  0.00    +0.173 HD
ENDBRANCH   4   7
BRANCH   1  16
ATOM     16  C   UNL     1       0.151  -4.091  -2.347  0.00  0.00    +0.344 C 
ATOM     17  O   UNL     1       0.421  -4.617  -1.286  0.00  0.00    -0.245 OA
BRANCH  16  18
ATOM     18  O   UNL     1      -0.258  -2.807  -2.378  0.00  0.00    -0.422 OA
BRANCH  18  22
ATOM     19  C   UNL     1       2.270  -0.604   1.169  0.00  0.00    +0.045 C 
ATOM     20  C   UNL     1       0.962  -1.016   0.545  0.00  0.00    -0.028 A 
ATOM     21  C   UNL     1       0.955  -1.728  -0.639  0.00  0.00    +0.051 A 
ATOM     22  C   UNL     1      -0.250  -2.107  -1.212  0.00  0.00    +0.133 A 
ATOM     23  C   UNL     1      -1.446  -1.770  -0.596  0.00  0.00    +0.051 A 
ATOM     24  C   UNL     1      -1.435  -1.058   0.588  0.00  0.00    -0.028 A 
ATOM     25  C   UNL     1      -0.232  -0.685   1.161  0.00  0.00    +0.047 A 
ATOM     26 CL   UNL     1      -0.221   0.203   2.652  0.00  0.00    -0.083 Cl
ATOM     27  C   UNL     1      -2.734  -0.693   1.258  0.00  0.00    +0.045 C 
ENDBRANCH  18  22
ENDBRANCH  16  18
ENDBRANCH   1  16
TORSDOF 4
