REMARK  Name = ZINC39710919
REMARK  14 active torsions:
REMARK  status: ('A' for Active; 'I' for Inactive)
REMARK    1  A    between atoms: C_1  and  C_2
REMARK    2  A    between atoms: C_8  and  C_14
REMARK    3  A    between atoms: C_14  and  C_16
REMARK    4  A    between atoms: C_14  and  N_26
REMARK    5  A    between atoms: N_21  and  C_22
REMARK    6  A    between atoms: C_22  and  C_23
REMARK    7  A    between atoms: C_22  and  C_24
REMARK    8  A    between atoms: C_22  and  C_25
REMARK    9  A    between atoms: N_26  and  C_27
REMARK   10  A    between atoms: N_26  and  C_36
REMARK   11  A    between atoms: C_27  and  C_28
REMARK   12  A    between atoms: C_31  and  O_34
REMARK   13  A    between atoms: O_34  and  C_35
REMARK   14  A    between atoms: C_36  and  C_37
REMARK                            x       y       z     vdW  Elec       q    Type
REMARK                         _______ _______ _______ _____ _____    ______ ____
ROOT
ATOM      1  C   UNL     1       1.194  -2.585   4.483  0.00  0.00    -0.009 C 
ENDROOT
BRANCH   1   9
ATOM      2  C   UNL     1      -0.243   1.098  -0.212  0.00  0.00    +0.045 C 
ATOM      3  C   UNL     1       0.138  -0.359  -0.168  0.00  0.00    -0.029 A 
ATOM      4  C   UNL     1       0.512  -0.993  -1.310  0.00  0.00    +0.005 A 
ATOM      5  C   UNL     1       0.877  -2.339  -1.339  0.00  0.00    +0.001 A 
ATOM      6  C   UNL     1       0.876  -3.097  -0.212  0.00  0.00    +0.009 A 
ATOM      7  C   UNL     1       0.483  -2.477   1.054  0.00  0.00    -0.007 A 
ATOM      8  C   UNL     1       0.468  -3.198   2.211  0.00  0.00    -0.006 C 
ATOM      9  C   UNL     1       0.048  -2.475   3.476  0.00  0.00    +0.088 C 
ATOM     10  C   UNL     1      -0.320  -1.014   3.351  0.00  0.00    +0.223 C 
ATOM     11  O   UNL     1      -0.665  -0.385   4.334  0.00  0.00    -0.275 OA
ATOM     12  N   UNL     1      -0.266  -0.422   2.170  0.00  0.00    -0.284 N 
ATOM     13  C   UNL     1       0.108  -1.052   1.056  0.00  0.00    +0.043 A 
ATOM     14  H   UNL     1      -0.506   0.516   2.111  0.00  0.00    +0.155 HD
ENDBRANCH   1   9
BRANCH   1  15
ATOM     15  C   UNL     1       1.359  -4.045   4.911  0.00  0.00    +0.205 C 
ATOM     16  N   UNL     1       2.605  -4.220   5.669  0.00  0.00    -0.152 NA
ATOM     17  N   UNL     1       3.331  -5.012   5.065  0.00  0.00    -0.070 NA
ATOM     18  N   UNL     1       2.758  -5.481   3.884  0.00  0.00    -0.179 N 
ATOM     19  N   UNL     1       1.517  -4.915   3.727  0.00  0.00    -0.183 NA
ATOM     20  H   UNL     1       3.170  -6.110   3.271  0.00  0.00    +0.191 HD
BRANCH  19  21
ATOM     21  C   UNL     1       0.468  -5.942   3.684  0.00  0.00    +0.035 C 
ATOM     22  C   UNL     1      -0.904  -5.275   3.788  0.00  0.00    +0.029 C 
ATOM     23  C   UNL     1       0.562  -6.712   2.365  0.00  0.00    +0.029 C 
ATOM     24  C   UNL     1       0.655  -6.911   4.854  0.00  0.00    +0.029 C 
ENDBRANCH  19  21
ENDBRANCH   1  15
BRANCH   1  25
ATOM     25  N   UNL     1       0.892  -1.761   5.660  0.00  0.00    +0.390 N 
ATOM     26  H   UNL     1       0.691  -0.816   5.367  0.00  0.00    -0.080 HD
BRANCH  25  27
ATOM     27  C   UNL     1      -0.274  -2.315   6.361  0.00  0.00    -0.042 C 
BRANCH  27  28
ATOM     28  C   UNL     1      -0.674  -1.390   7.481  0.00  0.00    -0.064 A 
ATOM     29  C   UNL     1      -0.125  -1.552   8.739  0.00  0.00    +0.005 A 
ATOM     30  C   UNL     1      -0.490  -0.705   9.768  0.00  0.00    +0.046 A 
ATOM     31  C   UNL     1      -1.409   0.308   9.537  0.00  0.00    +0.120 A 
ATOM     32  C   UNL     1      -1.959   0.469   8.274  0.00  0.00    +0.046 A 
ATOM     33  C   UNL     1      -1.586  -0.377   7.247  0.00  0.00    +0.005 A 
BRANCH  31  34
ATOM     34  O   UNL     1      -1.771   1.142  10.548  0.00  0.00    -0.495 OA
ATOM     35  C   UNL     1      -2.722   2.163  10.238  0.00  0.00    +0.277 C 
ENDBRANCH  31  34
ENDBRANCH  27  28
ENDBRANCH  25  27
BRANCH  25  36
ATOM     36  C   UNL     1       2.050  -1.756   6.565  0.00  0.00    -0.040 C 
BRANCH  36  37
ATOM     37  C   UNL     1       3.204  -1.051   5.900  0.00  0.00    -0.046 A 
ATOM     38  C   UNL     1       4.059  -1.744   5.056  0.00  0.00    +0.005 A 
ATOM     39  C   UNL     1       5.107  -1.055   4.467  0.00  0.00    +0.020 A 
ATOM     40  C   UNL     1       5.264   0.291   4.738  0.00  0.00    +0.111 A 
ATOM     41  N   UNL     1       4.432   0.918   5.546  0.00  0.00    -0.263 NA
ATOM     42  C   UNL     1       3.421   0.296   6.120  0.00  0.00    +0.112 A 
ENDBRANCH  36  37
ENDBRANCH  25  36
ENDBRANCH   1  25
TORSDOF 9
