REMARK  Name = ZINC41231895
REMARK  3 active torsions:
REMARK  status: ('A' for Active; 'I' for Inactive)
REMARK    1  A    between atoms: C_4  and  N_8
REMARK    2  A    between atoms: N_8  and  S_9
REMARK    3  A    between atoms: S_9  and  C_12
REMARK                            x       y       z     vdW  Elec       q    Type
REMARK                         _______ _______ _______ _____ _____    ______ ____
ROOT
ATOM      1  S   UNL     1       3.651  -2.302   0.079  0.00  0.00    +0.092 S 
ATOM      2  O   UNL     1       3.065  -2.631   1.330  0.00  0.00    -0.148 OA
ATOM      3  O   UNL     1       3.151  -2.804  -1.153  0.00  0.00    -0.148 OA
ENDROOT
BRANCH   1   4
ATOM      4  C   UNL     1       5.342  -2.788   0.171  0.00  0.00    +0.111 A 
ATOM      5  C   UNL     1       6.051  -3.057  -0.986  0.00  0.00    +0.032 A 
ATOM      6  C   UNL     1       7.376  -3.434  -0.919  0.00  0.00    +0.048 A 
ATOM      7  C   UNL     1       8.012  -3.549   0.315  0.00  0.00    +0.124 A 
ATOM      8  C   UNL     1       7.287  -3.283   1.470  0.00  0.00    -0.001 A 
ATOM      9  C   UNL     1       5.967  -2.897   1.401  0.00  0.00    +0.036 A 
ATOM     10  C   UNL     1       8.222  -3.511   2.643  0.00  0.00    +0.080 C 
ATOM     11  C   UNL     1       9.377  -4.300   1.983  0.00  0.00    +0.234 C 
ATOM     12  O   UNL     1       9.297  -3.890   0.607  0.00  0.00    -0.491 OA
ENDBRANCH   1   4
BRANCH   1  13
ATOM     13  N   UNL     1       3.622  -0.650  -0.037  0.00  0.00    -0.095 NA
BRANCH  13  17
ATOM     14  C   UNL     1      -0.020   1.361  -0.259  0.00  0.00    +0.003 A 
ATOM     15  C   UNL     1       0.346   0.723   0.912  0.00  0.00    +0.022 A 
ATOM     16  C   UNL     1       1.553   0.055   0.990  0.00  0.00    +0.067 A 
ATOM     17  C   UNL     1       2.400   0.024  -0.112  0.00  0.00    +0.111 A 
ATOM     18  C   UNL     1       2.029   0.665  -1.288  0.00  0.00    +0.067 A 
ATOM     19  C   UNL     1       0.820   1.332  -1.357  0.00  0.00    +0.022 A 
ATOM     20 CL   UNL     1       3.083   0.630  -2.667  0.00  0.00    -0.081 Cl
ATOM     21 CL   UNL     1       2.012  -0.743   2.461  0.00  0.00    -0.081 Cl
ENDBRANCH  13  17
ENDBRANCH   1  13
TORSDOF 3
