REMARK  Name = ZINC64538246
REMARK  6 active torsions:
REMARK  status: ('A' for Active; 'I' for Inactive)
REMARK    1  A    between atoms: C_3  and  C_8
REMARK    2  A    between atoms: N_18  and  C_19
REMARK    3  A    between atoms: C_19  and  C_20
REMARK    4  A    between atoms: N_22  and  C_23
REMARK    5  A    between atoms: C_23  and  C_24
REMARK    6  A    between atoms: C_24  and  C_25
REMARK                            x       y       z     vdW  Elec       q    Type
REMARK                         _______ _______ _______ _____ _____    ______ ____
ROOT
ATOM      1  C   UNL     1       3.658   2.164  -0.022  0.00  0.00    +0.048 C 
ATOM      2  C   UNL     1       4.884   1.611  -0.042  0.00  0.00    +0.037 C 
ATOM      3  C   UNL     1       5.846   2.768  -0.067  0.00  0.00    +0.190 C 
ATOM      4  N   UNL     1       4.965   3.874  -0.549  0.00  0.00    -0.204 NA
ATOM      5  N   UNL     1       3.764   3.567  -0.016  0.00  0.00    -0.275 N 
ATOM      6  C   UNL     1       5.593   5.145  -0.261  0.00  0.00    +0.117 C 
ATOM      7  C   UNL     1       7.026   5.149  -0.800  0.00  0.00    +0.113 C 
ATOM      8  C   UNL     1       7.403   3.868  -1.484  0.00  0.00    +0.219 C 
ATOM      9  O   UNL     1       8.185   3.901  -2.410  0.00  0.00    -0.275 OA
ATOM     10  N   UNL     1       6.897   2.663  -1.083  0.00  0.00    -0.272 N 
ATOM     11  H   UNL     1       3.101   4.195   0.310  0.00  0.00    +0.167 HD
ENDROOT
BRANCH   1  14
ATOM     12  C   UNL     1      -0.017   1.379   0.010  0.00  0.00    +0.002 A 
ATOM     13  C   UNL     1       1.167   2.088   0.002  0.00  0.00    +0.010 A 
ATOM     14  C   UNL     1       2.385   1.408  -0.013  0.00  0.00    -0.002 A 
ATOM     15  C   UNL     1       2.398   0.014  -0.021  0.00  0.00    +0.029 A 
ATOM     16  C   UNL     1       1.208  -0.685  -0.013  0.00  0.00    +0.042 A 
ATOM     17  C   UNL     1       0.002  -0.004   0.002  0.00  0.00    +0.020 A 
ATOM     18 CL   UNL     1       1.222  -2.421  -0.023  0.00  0.00    -0.084 Cl
ENDBRANCH   1  14
BRANCH  10  19
ATOM     19  C   UNL     1       7.354   1.381  -1.625  0.00  0.00    +0.205 C 
BRANCH  19  20
ATOM     20  C   UNL     1       6.530   1.025  -2.835  0.00  0.00    +0.230 C 
ATOM     21  O   UNL     1       5.648   1.768  -3.208  0.00  0.00    -0.274 OA
ATOM     22  N   UNL     1       6.773  -0.120  -3.502  0.00  0.00    -0.314 N 
ATOM     23  H   UNL     1       7.479  -0.715  -3.204  0.00  0.00    +0.149 HD
BRANCH  22  24
ATOM     24  C   UNL     1       5.972  -0.467  -4.679  0.00  0.00    +0.108 C 
BRANCH  24  25
ATOM     25  C   UNL     1       6.449  -1.806  -5.245  0.00  0.00    +0.052 C 
BRANCH  25  26
ATOM     26  C   UNL     1       5.625  -2.162  -6.455  0.00  0.00    -0.040 C 
ATOM     27  C   UNL     1       5.934  -1.921  -7.750  0.00  0.00    +0.000 A 
ATOM     28  C   UNL     1       7.087  -1.280  -8.393  0.00  0.00    +0.030 A 
ATOM     29  C   UNL     1       7.115  -1.182  -9.743  0.00  0.00    +0.042 A 
ATOM     30  C   UNL     1       6.071  -1.677 -10.539  0.00  0.00    +0.022 A 
ATOM     31  C   UNL     1       4.980  -2.279 -10.020  0.00  0.00    +0.027 A 
ATOM     32  C   UNL     1       4.847  -2.436  -8.613  0.00  0.00    +0.043 A 
ATOM     33  N   UNL     1       3.902  -2.974  -7.880  0.00  0.00    -0.380 N 
ATOM     34  C   UNL     1       4.287  -2.867  -6.468  0.00  0.00    +0.144 C 
ATOM     35 CL   UNL     1       8.476  -0.424 -10.508  0.00  0.00    -0.084 Cl
ATOM     36  H   UNL     1       3.087  -3.378  -8.216  0.00  0.00    +0.160 HD
ENDBRANCH  25  26
ENDBRANCH  24  25
ENDBRANCH  22  24
ENDBRANCH  19  20
ENDBRANCH  10  19
TORSDOF 6
