REMARK  Name = ZINC01282940
REMARK  5 active torsions:
REMARK  status: ('A' for Active; 'I' for Inactive)
REMARK    1  A    between atoms: C_5  and  C_7
REMARK    2  A    between atoms: C_7  and  S_8
REMARK    3  A    between atoms: S_8  and  C_9
REMARK    4  A    between atoms: C_14  and  C_24
REMARK    5  A    between atoms: C_29  and  C_30
REMARK                            x       y       z     vdW  Elec       q    Type
REMARK                         _______ _______ _______ _____ _____    ______ ____
ROOT
ATOM      1  C   UNL     1       0.263  -5.149   2.103  0.00  0.00    +0.211 A 
ATOM      2  N   UNL     1       0.431  -5.581   0.845  0.00  0.00    -0.187 NA
ATOM      3  C   UNL     1       0.804  -6.832   0.860  0.00  0.00    +0.219 A 
ATOM      4  N   UNL     1       0.888  -7.231   2.153  0.00  0.00    -0.220 N 
ATOM      5  N   UNL     1       0.538  -6.131   2.934  0.00  0.00    -0.141 NA
ATOM      6  C   UNL     1       1.290  -8.574   2.553  0.00  0.00    +0.176 C 
ATOM      7  C   UNL     1       1.254  -9.503   1.359  0.00  0.00    +0.041 C 
ATOM      8  C   UNL     1       1.158  -9.042   0.094  0.00  0.00    +0.020 C 
ATOM      9  N   UNL     1       1.087  -7.697  -0.183  0.00  0.00    -0.287 N 
ATOM     10  C   UNL     1       1.117  -9.993  -1.078  0.00  0.00    +0.052 C 
ATOM     11  C   UNL     1       1.922 -11.252  -0.748  0.00  0.00    +0.014 C 
ATOM     12  C   UNL     1       1.321 -11.893   0.507  0.00  0.00    +0.080 C 
ATOM     13  C   UNL     1       1.326 -10.883   1.621  0.00  0.00    +0.163 C 
ATOM     14  O   UNL     1       1.394 -11.267   2.772  0.00  0.00    -0.292 OA
ATOM     15  H   UNL     1       1.230  -7.365  -1.083  0.00  0.00    +0.155 HD
ENDROOT
BRANCH   6  16
ATOM     16  C   UNL     1       2.690  -8.533   3.109  0.00  0.00    -0.004 A 
ATOM     17  C   UNL     1       3.774  -8.635   2.262  0.00  0.00    +0.007 A 
ATOM     18  C   UNL     1       5.060  -8.597   2.771  0.00  0.00    +0.000 A 
ATOM     19  C   UNL     1       5.269  -8.457   4.131  0.00  0.00    +0.001 A 
ATOM     20  C   UNL     1       4.195  -8.353   4.990  0.00  0.00    +0.015 A 
ATOM     21  C   UNL     1       2.893  -8.384   4.483  0.00  0.00    +0.069 A 
BRANCH  21  22
ATOM     22  C   UNL     1       1.740  -8.268   5.395  0.00  0.00    +0.387 C 
ATOM     23  O   UNL     1       1.912  -8.286   6.606  0.00  0.00    -0.241 OA
ATOM     24  O   UNL     1       0.610  -8.152   4.940  0.00  0.00    -0.241 OA
ENDBRANCH  21  22
ENDBRANCH   6  16
BRANCH   1  25
ATOM     25  S   UNL     1      -0.238  -3.525   2.569  0.00  0.00    -0.080 S 
BRANCH  25  26
ATOM     26  C   UNL     1      -0.458  -2.663   0.988  0.00  0.00    +0.114 C 
BRANCH  26  31
ATOM     27  C   UNL     1      -2.636   0.365   1.570  0.00  0.00    +0.000 A 
ATOM     28  C   UNL     1      -1.690   1.362   1.718  0.00  0.00    +0.001 A 
ATOM     29  C   UNL     1      -0.345   1.058   1.629  0.00  0.00    +0.020 A 
ATOM     30  C   UNL     1       0.055  -0.246   1.393  0.00  0.00    +0.045 A 
ATOM     31  C   UNL     1      -0.892  -1.243   1.246  0.00  0.00    -0.019 A 
ATOM     32  C   UNL     1      -2.238  -0.937   1.334  0.00  0.00    +0.006 A 
ATOM     33 CL   UNL     1       1.744  -0.629   1.282  0.00  0.00    -0.083 Cl
ENDBRANCH  26  31
ENDBRANCH  25  26
ENDBRANCH   1  25
TORSDOF 5
