REMARK  Name = ZINC55597528
REMARK  6 active torsions:
REMARK  status: ('A' for Active; 'I' for Inactive)
REMARK    1  A    between atoms: C_1  and  C_2
REMARK    2  A    between atoms: C_5  and  C_8
REMARK    3  A    between atoms: C_9  and  S_10
REMARK    4  A    between atoms: S_10  and  N_13
REMARK    5  A    between atoms: N_13  and  C_14
REMARK    6  A    between atoms: C_18  and  N_20
REMARK                            x       y       z     vdW  Elec       q    Type
REMARK                         _______ _______ _______ _____ _____    ______ ____
ROOT
ATOM      1  N   UNL     1      -1.093  -4.639   3.545  0.00  0.00    -0.098 NA
ENDROOT
BRANCH   1   2
ATOM      2  C   UNL     1      -1.356  -4.115   4.812  0.00  0.00    +0.076 A 
ATOM      3  C   UNL     1      -0.545  -3.115   5.334  0.00  0.00    +0.027 A 
ATOM      4  C   UNL     1      -0.805  -2.595   6.587  0.00  0.00    +0.004 A 
ATOM      5  C   UNL     1      -1.872  -3.069   7.327  0.00  0.00    +0.024 A 
ATOM      6  C   UNL     1      -2.687  -4.069   6.811  0.00  0.00    +0.040 A 
ATOM      7  C   UNL     1      -2.432  -4.588   5.550  0.00  0.00    +0.050 A 
BRANCH   6   8
ATOM      8  N   UNL     1      -3.767  -4.548   7.561  0.00  0.00    -0.254 N 
ATOM      9  C   UNL     1      -4.080  -4.163   8.945  0.00  0.00    +0.134 C 
ATOM     10  C   UNL     1      -5.349  -4.973   9.275  0.00  0.00    +0.125 C 
ATOM     11  N   UNL     1      -5.615  -5.729   8.042  0.00  0.00    -0.297 N 
ATOM     12  C   UNL     1      -4.682  -5.426   7.130  0.00  0.00    +0.307 C 
ATOM     13  O   UNL     1      -4.665  -5.907   6.014  0.00  0.00    -0.252 OA
ATOM     14  H   UNL     1      -6.352  -6.346   7.909  0.00  0.00    +0.150 HD
ENDBRANCH   6   8
ENDBRANCH   1   2
BRANCH   1  15
ATOM     15  S   UNL     1       0.191  -4.074   2.665  0.00  0.00    +0.085 S 
ATOM     16  O   UNL     1       1.365  -4.455   3.369  0.00  0.00    -0.149 OA
ATOM     17  O   UNL     1      -0.100  -2.720   2.346  0.00  0.00    -0.149 OA
BRANCH  15  19
ATOM     18  C   UNL     1       0.038  -4.309  -0.003  0.00  0.00    +0.028 C 
ATOM     19  C   UNL     1       0.207  -4.957   1.141  0.00  0.00    +0.159 C 
BRANCH  18  24
ATOM     20  C   UNL     1       0.837   1.385  -0.228  0.00  0.00    +0.044 C 
ATOM     21  C   UNL     1       0.628  -0.106  -0.169  0.00  0.00    -0.050 A 
ATOM     22  C   UNL     1      -0.448  -0.677  -0.825  0.00  0.00    +0.004 A 
ATOM     23  C   UNL     1      -0.646  -2.042  -0.775  0.00  0.00    +0.008 A 
ATOM     24  C   UNL     1       0.243  -2.846  -0.061  0.00  0.00    -0.024 A 
ATOM     25  C   UNL     1       1.327  -2.264   0.598  0.00  0.00    +0.008 A 
ATOM     26  C   UNL     1       1.516  -0.899   0.536  0.00  0.00    +0.004 A 
ENDBRANCH  18  24
ENDBRANCH  15  19
ENDBRANCH   1  15
TORSDOF 5
