REMARK  Name = ZINC05542264
REMARK  5 active torsions:
REMARK  status: ('A' for Active; 'I' for Inactive)
REMARK    1  A    between atoms: C_1  and  C_2
REMARK    2  A    between atoms: C_5  and  N_9
REMARK    3  A    between atoms: C_6  and  C_8
REMARK    4  A    between atoms: C_10  and  C_11
REMARK    5  A    between atoms: C_15  and  N_17
REMARK                            x       y       z     vdW  Elec       q    Type
REMARK                         _______ _______ _______ _____ _____    ______ ____
ROOT
ATOM      1  C   UNL     1      -3.666  -0.974  -0.197  0.00  0.00    +0.043 A 
ATOM      2  C   UNL     1      -3.661  -2.368  -0.310  0.00  0.00    +0.028 A 
ATOM      3  C   UNL     1      -4.853  -3.053  -0.412  0.00  0.00    +0.021 A 
ATOM      4  C   UNL     1      -6.057  -2.367  -0.403  0.00  0.00    +0.052 A 
ATOM      5  C   UNL     1      -6.076  -0.990  -0.291  0.00  0.00    +0.174 A 
ATOM      6  C   UNL     1      -4.889  -0.285  -0.181  0.00  0.00    +0.218 A 
ATOM      7 BR   UNL     1      -4.845  -4.938  -0.566  0.00  0.00    -0.050 Br
ATOM      8  O   UNL     1      -4.907   1.067  -0.066  0.00  0.00    -0.285 OA
ENDROOT
BRANCH   5   9
ATOM      9  N   UNL     1      -7.368  -0.268  -0.282  0.00  0.00    +0.060 N 
ATOM     10  O   UNL     1      -8.413  -0.887  -0.373  0.00  0.00    -0.126 OA
ATOM     11  O   UNL     1      -7.387   0.946  -0.183  0.00  0.00    -0.126 OA
ENDBRANCH   5   9
BRANCH   1  13
ATOM     12  N   UNL     1      -2.409   1.064   0.019  0.00  0.00    -0.255 NA
ATOM     13  C   UNL     1      -2.400  -0.236  -0.087  0.00  0.00    +0.123 C 
BRANCH  12  18
ATOM     14  C   UNL     1       2.445   3.945  -0.032  0.00  0.00    +0.044 C 
ATOM     15  C   UNL     1       1.150   3.174  -0.016  0.00  0.00    -0.050 A 
ATOM     16  C   UNL     1       0.915   2.204  -0.976  0.00  0.00    +0.005 A 
ATOM     17  C   UNL     1      -0.268   1.494  -0.967  0.00  0.00    +0.028 A 
ATOM     18  C   UNL     1      -1.231   1.760   0.008  0.00  0.00    +0.067 A 
ATOM     19  C   UNL     1      -0.985   2.736   0.976  0.00  0.00    -0.025 A 
ATOM     20  C   UNL     1       0.203   3.438   0.956  0.00  0.00    +0.008 A 
ATOM     21  C   UNL     1      -2.016   3.026   2.037  0.00  0.00    +0.046 C 
ENDBRANCH  12  18
ENDBRANCH   1  13
TORSDOF 3
