REMARK  Name = ZINC13417327
REMARK  8 active torsions:
REMARK  status: ('A' for Active; 'I' for Inactive)
REMARK    1  A    between atoms: C_1  and  C_2
REMARK    2  A    between atoms: C_2  and  N_3
REMARK    3  A    between atoms: C_12  and  S_13
REMARK    4  A    between atoms: S_13  and  C_14
REMARK    5  A    between atoms: C_14  and  C_15
REMARK    6  A    between atoms: C_21  and  C_27
REMARK    7  A    between atoms: C_22  and  C_26
REMARK    8  A    between atoms: C_31  and  C_35
REMARK                            x       y       z     vdW  Elec       q    Type
REMARK                         _______ _______ _______ _____ _____    ______ ____
ROOT
ATOM      1  N   UNL     1      -1.372  -0.511   0.012  0.00  0.00    -0.288 N 
ATOM      2  C   UNL     1      -1.982  -0.741   1.190  0.00  0.00    +0.263 A 
ATOM      3  O   UNL     1      -1.399  -0.529   2.239  0.00  0.00    -0.267 OA
ATOM      4  C   UNL     1      -3.325  -1.236   1.193  0.00  0.00    +0.076 A 
ATOM      5  C   UNL     1      -4.172  -1.555   2.344  0.00  0.00    -0.023 A 
ATOM      6  C   UNL     1      -5.413  -2.012   2.082  0.00  0.00    -0.004 A 
ATOM      7  S   UNL     1      -5.528  -2.045   0.314  0.00  0.00    -0.073 S 
ATOM      8  C   UNL     1      -3.903  -1.444  -0.071  0.00  0.00    +0.117 A 
ATOM      9  N   UNL     1      -3.246  -1.197  -1.198  0.00  0.00    -0.216 NA
ATOM     10  C   UNL     1      -2.012  -0.737  -1.172  0.00  0.00    +0.173 A 
ATOM     11  C   UNL     1      -6.463  -2.406   3.076  0.00  0.00    +0.046 C 
ATOM     12  C   UNL     1      -5.795  -2.569   4.448  0.00  0.00    -0.009 C 
ATOM     13  C   UNL     1      -4.906  -1.349   4.709  0.00  0.00    +0.008 C 
ATOM     14  C   UNL     1      -3.690  -1.385   3.782  0.00  0.00    +0.037 C 
ATOM     15  C   UNL     1      -6.869  -2.667   5.534  0.00  0.00    +0.008 C 
ENDROOT
BRANCH   1  17
ATOM     16  C   UNL     1      -0.019   1.526   0.010  0.00  0.00    +0.027 C 
ATOM     17  C   UNL     1       0.002  -0.004   0.002  0.00  0.00    +0.124 C 
ENDBRANCH   1  17
BRANCH  10  18
ATOM     18  S   UNL     1      -1.173  -0.414  -2.688  0.00  0.00    -0.080 S 
BRANCH  18  19
ATOM     19  C   UNL     1      -2.387  -0.850  -3.963  0.00  0.00    +0.151 C 
BRANCH  19  20
ATOM     20  C   UNL     1      -1.789  -0.618  -5.327  0.00  0.00    +0.124 A 
ATOM     21  N   UNL     1      -2.542  -0.880  -6.423  0.00  0.00    -0.309 N 
ATOM     22  H   UNL     1      -3.448  -1.211  -6.321  0.00  0.00    +0.170 HD
ATOM     23  C   UNL     1      -2.030  -0.680  -7.660  0.00  0.00    +0.263 A 
ATOM     24  O   UNL     1      -2.692  -0.909  -8.658  0.00  0.00    -0.267 OA
ATOM     25  C   UNL     1      -0.708  -0.197  -7.761  0.00  0.00    +0.118 A 
ATOM     26  C   UNL     1       0.194   0.144  -8.874  0.00  0.00    +0.118 A 
ATOM     27  C   UNL     1       1.354   0.560  -8.289  0.00  0.00    +0.119 A 
ATOM     28  O   UNL     1       1.231   0.500  -6.958  0.00  0.00    -0.441 OA
ATOM     29  C   UNL     1       0.016   0.054  -6.596  0.00  0.00    +0.235 A 
ATOM     30  N   UNL     1      -0.569  -0.167  -5.409  0.00  0.00    -0.198 NA
ATOM     31  C   UNL     1       2.585   1.016  -9.029  0.00  0.00    +0.087 C 
BRANCH  26  32
ATOM     32  C   UNL     1      -0.094   0.055 -10.311  0.00  0.00    +0.391 C 
ATOM     33  O   UNL     1      -1.188  -0.340 -10.692  0.00  0.00    -0.240 OA
ATOM     34  O   UNL     1       0.759   0.375 -11.127  0.00  0.00    -0.240 OA
ENDBRANCH  26  32
ENDBRANCH  19  20
ENDBRANCH  18  19
ENDBRANCH  10  18
TORSDOF 5
