REMARK  Name = ZINC39663587
REMARK  7 active torsions:
REMARK  status: ('A' for Active; 'I' for Inactive)
REMARK    1  A    between atoms: C_4  and  C_7
REMARK    2  A    between atoms: C_10  and  C_12
REMARK    3  A    between atoms: C_16  and  C_25
REMARK    4  A    between atoms: N_27  and  C_28
REMARK    5  A    between atoms: C_28  and  C_29
REMARK    6  A    between atoms: C_29  and  C_30
REMARK    7  A    between atoms: C_30  and  C_31
REMARK                            x       y       z     vdW  Elec       q    Type
REMARK                         _______ _______ _______ _____ _____    ______ ____
ROOT
ATOM      1  C   UNL     1       7.467  -0.860  -0.104  0.00  0.00    +0.282 C 
ATOM      2  O   UNL     1       8.251  -1.790  -0.064  0.00  0.00    -0.267 OA
ATOM      3  N   UNL     1       7.923   0.408  -0.060  0.00  0.00    -0.294 N 
ATOM      4  C   UNL     1       7.130   1.659  -0.091  0.00  0.00    +0.121 C 
ATOM      5  C   UNL     1       7.840   2.596   0.912  0.00  0.00    +0.100 C 
ATOM      6  C   UNL     1       9.283   2.070   0.986  0.00  0.00    -0.004 C 
ATOM      7  C   UNL     1       9.330   0.865   0.036  0.00  0.00    +0.115 C 
ATOM      8  C   UNL     1      10.262   3.146   0.524  0.00  0.00    -0.010 C 
ATOM      9  C   UNL     1      11.693   2.620   0.661  0.00  0.00    -0.082 C 
ATOM     10  N   UNL     1      11.954   2.263   2.061  0.00  0.00    +0.379 N 
ATOM     11  C   UNL     1      11.071   1.163   2.469  0.00  0.00    -0.082 C 
ATOM     12  C   UNL     1       9.613   1.627   2.408  0.00  0.00    -0.010 C 
ATOM     13  H   UNL     1      12.915   1.974   2.159  0.00  0.00    -0.086 HD
ATOM     14  H   UNL     1      11.783   3.065   2.649  0.00  0.00    -0.086 HD
ENDROOT
BRANCH   1  18
ATOM     15  C   UNL     1       3.860  -0.787  -0.336  0.00  0.00    +0.136 A 
ATOM     16  C   UNL     1       4.051  -2.139  -0.339  0.00  0.00    +0.050 A 
ATOM     17  C   UNL     1       5.430  -2.358  -0.253  0.00  0.00    +0.055 A 
ATOM     18  C   UNL     1       6.028  -1.118  -0.200  0.00  0.00    +0.190 A 
ATOM     19  O   UNL     1       5.057  -0.182  -0.258  0.00  0.00    -0.450 OA
BRANCH  15  23
ATOM     20  C   UNL     1       0.103   1.181  -0.556  0.00  0.00    +0.000 A 
ATOM     21  C   UNL     1       1.266   1.925  -0.477  0.00  0.00    +0.001 A 
ATOM     22  C   UNL     1       2.490   1.292  -0.406  0.00  0.00    +0.011 A 
ATOM     23  C   UNL     1       2.553  -0.102  -0.412  0.00  0.00    +0.017 A 
ATOM     24  C   UNL     1       1.375  -0.848  -0.490  0.00  0.00    +0.011 A 
ATOM     25  C   UNL     1       0.158  -0.202  -0.562  0.00  0.00    +0.001 A 
ENDBRANCH  15  23
ENDBRANCH   1  18
BRANCH   5  26
ATOM     26  C   UNL     1       7.821   4.016   0.409  0.00  0.00    +0.218 C 
ATOM     27  O   UNL     1       7.831   4.237  -0.784  0.00  0.00    -0.275 OA
ATOM     28  N   UNL     1       7.793   5.041   1.283  0.00  0.00    -0.315 N 
ATOM     29  H   UNL     1       7.785   4.864   2.237  0.00  0.00    +0.149 HD
BRANCH  28  30
ATOM     30  C   UNL     1       7.775   6.421   0.794  0.00  0.00    +0.104 C 
BRANCH  30  31
ATOM     31  C   UNL     1       7.744   7.384   1.983  0.00  0.00    +0.030 C 
BRANCH  31  32
ATOM     32  C   UNL     1       7.725   8.826   1.471  0.00  0.00    +0.126 C 
BRANCH  32  33
ATOM     33  C   UNL     1       7.695   9.774   2.642  0.00  0.00    +0.356 C 
ATOM     34  O   UNL     1       7.689   9.337   3.780  0.00  0.00    -0.246 OA
ATOM     35  O   UNL     1       7.676  10.978   2.452  0.00  0.00    -0.246 OA
ENDBRANCH  32  33
ENDBRANCH  31  32
ENDBRANCH  30  31
ENDBRANCH  28  30
ENDBRANCH   5  26
TORSDOF 7
