REMARK  Name = ZINC02782424
REMARK  11 active torsions:
REMARK  status: ('A' for Active; 'I' for Inactive)
REMARK    1  A    between atoms: C_1  and  C_2
REMARK    2  A    between atoms: C_3  and  C_21
REMARK    3  A    between atoms: C_4  and  N_10
REMARK    4  A    between atoms: C_6  and  C_7
REMARK    5  A    between atoms: C_11  and  C_13
REMARK    6  A    between atoms: C_15  and  C_19
REMARK    7  A    between atoms: N_16  and  C_18
REMARK    8  A    between atoms: C_21  and  O_23
REMARK    9  A    between atoms: O_23  and  C_24
REMARK   10  A    between atoms: C_24  and  C_25
REMARK   11  A    between atoms: C_24  and  C_26
REMARK                            x       y       z     vdW  Elec       q    Type
REMARK                         _______ _______ _______ _____ _____    ______ ____
ROOT
ATOM      1  C   UNL     1       8.651  -2.885  -0.100  0.00  0.00    +0.046 C 
ATOM      2  C   UNL     1       7.703  -1.714  -0.085  0.00  0.00    -0.015 A 
ATOM      3  C   UNL     1       6.329  -1.903  -0.071  0.00  0.00    +0.091 A 
ATOM      4  C   UNL     1       5.516  -0.764  -0.057  0.00  0.00    +0.087 A 
ATOM      5  S   UNL     1       6.666   0.533  -0.069  0.00  0.00    -0.068 S 
ATOM      6  C   UNL     1       8.168  -0.427  -0.082  0.00  0.00    +0.079 A 
ENDROOT
BRANCH   6   7
ATOM      7  C   UNL     1       9.554   0.044  -0.094  0.00  0.00    +0.248 C 
ATOM      8  O   UNL     1      10.470  -0.758  -0.107  0.00  0.00    -0.270 OA
ATOM      9  N   UNL     1       9.816   1.366  -0.089  0.00  0.00    -0.325 N 
ATOM     10  H   UNL     1       9.087   2.006  -0.078  0.00  0.00    +0.145 HD
ATOM     11  H   UNL     1      10.735   1.678  -0.097  0.00  0.00    +0.145 HD
ENDBRANCH   6   7
BRANCH   4  12
ATOM     12  N   UNL     1       4.138  -0.691  -0.043  0.00  0.00    -0.274 N 
ATOM     13  C   UNL     1       3.526   0.510  -0.030  0.00  0.00    +0.270 C 
ATOM     14  O   UNL     1       4.189   1.529  -0.031  0.00  0.00    -0.268 OA
ATOM     15  H   UNL     1       3.609  -1.504  -0.042  0.00  0.00    +0.156 HD
BRANCH  13  16
ATOM     16  C   UNL     1       2.052   0.588  -0.014  0.00  0.00    +0.161 A 
ATOM     17  C   UNL     1       1.272   1.769  -0.001  0.00  0.00    +0.071 A 
ATOM     18  C   UNL     1      -0.016   1.352   0.009  0.00  0.00    +0.051 A 
ATOM     19  N   UNL     1       0.002  -0.004   0.002  0.00  0.00    -0.270 N 
ATOM     20  N   UNL     1       1.214  -0.430  -0.012  0.00  0.00    -0.165 NA
ATOM     21  C   UNL     1      -1.187  -0.859   0.008  0.00  0.00    +0.172 C 
ATOM     22  C   UNL     1      -1.241   2.230   0.020  0.00  0.00    +0.066 C 
ATOM     23 BR   UNL     1       1.898   3.553   0.004  0.00  0.00    -0.046 Br
ENDBRANCH  13  16
ENDBRANCH   4  12
BRANCH   3  24
ATOM     24  C   UNL     1       5.748  -3.250  -0.072  0.00  0.00    +0.342 C 
ATOM     25  O   UNL     1       5.497  -3.803  -1.126  0.00  0.00    -0.245 OA
BRANCH  24  26
ATOM     26  O   UNL     1       5.493  -3.875   1.095  0.00  0.00    -0.458 OA
BRANCH  26  27
ATOM     27  C   UNL     1       4.918  -5.206   1.018  0.00  0.00    +0.171 C 
ATOM     28  C   UNL     1       5.365  -6.025   2.230  0.00  0.00    +0.052 C 
ATOM     29  C   UNL     1       3.391  -5.102   1.007  0.00  0.00    +0.052 C 
ENDBRANCH  26  27
ENDBRANCH  24  26
ENDBRANCH   3  24
TORSDOF 6
