REMARK  Name = ZINC67359043
REMARK  6 active torsions:
REMARK  status: ('A' for Active; 'I' for Inactive)
REMARK    1  A    between atoms: C_1  and  C_2
REMARK    2  A    between atoms: C_3  and  C_8
REMARK    3  A    between atoms: C_8  and  C_9
REMARK    4  A    between atoms: C_9  and  C_10
REMARK    5  A    between atoms: C_10  and  N_11
REMARK    6  A    between atoms: C_18  and  C_20
REMARK                            x       y       z     vdW  Elec       q    Type
REMARK                         _______ _______ _______ _____ _____    ______ ____
ROOT
ATOM      1  N   UNL     1       2.781   0.735  -4.867  0.00  0.00    -0.299 N 
ATOM      2  C   UNL     1       3.014   1.171  -6.121  0.00  0.00    +0.303 C 
ATOM      3  O   UNL     1       2.087   1.327  -6.892  0.00  0.00    -0.253 OA
ATOM      4  N   UNL     1       4.274   1.434  -6.519  0.00  0.00    -0.278 N 
ATOM      5  C   UNL     1       5.486   1.283  -5.693  0.00  0.00    +0.110 C 
ATOM      6  C   UNL     1       6.638   1.092  -6.711  0.00  0.00    +0.021 C 
ATOM      7  C   UNL     1       6.206   2.049  -7.854  0.00  0.00    +0.029 C 
ATOM      8  C   UNL     1       4.669   1.913  -7.852  0.00  0.00    +0.111 C 
ATOM      9  H   UNL     1       3.520   0.610  -4.252  0.00  0.00    +0.150 HD
ENDROOT
BRANCH   8  10
ATOM     10  C   UNL     1       4.039   3.256  -8.121  0.00  0.00    +0.018 A 
ATOM     11  C   UNL     1       3.657   4.063  -7.066  0.00  0.00    +0.009 A 
ATOM     12  C   UNL     1       3.078   5.295  -7.310  0.00  0.00    +0.004 A 
ATOM     13  C   UNL     1       2.878   5.722  -8.609  0.00  0.00    +0.049 A 
ATOM     14  C   UNL     1       3.259   4.917  -9.672  0.00  0.00    +0.162 A 
ATOM     15  C   UNL     1       3.848   3.682  -9.427  0.00  0.00    +0.167 A 
ATOM     16  O   UNL     1       4.240   2.881 -10.455  0.00  0.00    -0.485 OA
ATOM     17  C   UNL     1       3.694   3.177 -11.745  0.00  0.00    +0.270 C 
ATOM     18  C   UNL     1       3.801   4.690 -11.977  0.00  0.00    +0.270 C 
ATOM     19  O   UNL     1       3.052   5.350 -10.945  0.00  0.00    -0.485 OA
ENDBRANCH   8  10
BRANCH   1  20
ATOM     20  C   UNL     1       1.411   0.449  -4.434  0.00  0.00    +0.106 C 
BRANCH  20  21
ATOM     21  C   UNL     1       1.425  -0.028  -2.980  0.00  0.00    +0.023 C 
BRANCH  21  22
ATOM     22  C   UNL     1      -0.006  -0.327  -2.527  0.00  0.00    +0.040 C 
BRANCH  22  25
ATOM     23  C   UNL     1      -0.018   1.503   0.010  0.00  0.00    +0.065 C 
ATOM     24  C   UNL     1       0.002  -0.004   0.002  0.00  0.00    +0.036 A 
ATOM     25  C   UNL     1       0.008  -0.796  -1.095  0.00  0.00    -0.007 A 
ATOM     26  C   UNL     1       0.028  -2.127  -0.666  0.00  0.00    +0.138 A 
ATOM     27  N   UNL     1       0.035  -2.134   0.643  0.00  0.00    -0.182 NA
ATOM     28  N   UNL     1       0.024  -0.805   1.088  0.00  0.00    -0.282 N 
ATOM     29  H   UNL     1       0.029  -0.513   2.013  0.00  0.00    +0.189 HD
ENDBRANCH  22  25
ENDBRANCH  21  22
ENDBRANCH  20  21
ENDBRANCH   1  20
TORSDOF 5
