REMARK  Name = ZINC05244299
REMARK  5 active torsions:
REMARK  status: ('A' for Active; 'I' for Inactive)
REMARK    1  A    between atoms: C_1  and  C_2
REMARK    2  A    between atoms: C_5  and  C_8
REMARK    3  A    between atoms: C_11  and  C_13
REMARK    4  A    between atoms: C_11  and  O_17
REMARK    5  A    between atoms: C_20  and  C_23
REMARK                            x       y       z     vdW  Elec       q    Type
REMARK                         _______ _______ _______ _____ _____    ______ ____
ROOT
ATOM      1  C   UNK     1      -6.526   1.171   0.069  0.00  0.00    +0.071 C 
ATOM      2  N   UNK     1      -5.250   0.993   0.056  0.00  0.00    -0.179 NA
ATOM      3  N   UNK     1      -4.862  -0.345   0.046  0.00  0.00    -0.160 N 
ATOM      4  C   UNK     1      -6.066  -1.190   0.046  0.00  0.00    +0.256 C 
ATOM      5  C   UNK     1      -7.223  -0.172   0.068  0.00  0.00    +0.124 C 
ATOM      6  C   UNK     1      -3.556  -0.804   0.031  0.00  0.00    +0.184 A 
ATOM      7  N   UNK     1      -2.432  -0.115   0.030  0.00  0.00    -0.217 NA
ATOM      8  C   UNK     1      -1.261  -0.756   0.010  0.00  0.00    +0.161 A 
ATOM      9  C   UNK     1      -1.255  -2.127   0.003  0.00  0.00    +0.083 A 
ATOM     10  S   UNK     1      -2.954  -2.485   0.017  0.00  0.00    -0.058 S 
ENDROOT
BRANCH   1  15
ATOM     11  C   UNK     1      -9.166   6.280   0.120  0.00  0.00    +0.044 C 
ATOM     12  C   UNK     1      -8.474   4.941   0.106  0.00  0.00    -0.050 A 
ATOM     13  C   UNK     1      -7.092   4.880   0.093  0.00  0.00    +0.004 A 
ATOM     14  C   UNK     1      -6.452   3.659   0.081  0.00  0.00    +0.010 A 
ATOM     15  C   UNK     1      -7.203   2.481   0.082  0.00  0.00    -0.002 A 
ATOM     16  C   UNK     1      -8.598   2.550   0.090  0.00  0.00    +0.010 A 
ATOM     17  C   UNK     1      -9.225   3.778   0.107  0.00  0.00    +0.004 A 
ENDBRANCH   1  15
BRANCH   4  18
ATOM     18  C   UNK     1      -6.124  -2.047  -1.220  0.00  0.00    +0.438 C 
ATOM     19  F   UNK     1      -5.010  -2.892  -1.262  0.00  0.00    -0.166 F 
ATOM     20  F   UNK     1      -7.293  -2.815  -1.211  0.00  0.00    -0.166 F 
ATOM     21  F   UNK     1      -6.121  -1.216  -2.346  0.00  0.00    -0.166 F 
ENDBRANCH   4  18
BRANCH   8  22
ATOM     22  C   UNK     1       0.002  -0.004   0.002  0.00  0.00    +0.405 C 
ATOM     23  O   UNK     1       1.063  -0.598  -0.011  0.00  0.00    -0.239 OA
ATOM     24  O   UNK     1      -0.016   1.344   0.009  0.00  0.00    -0.239 OA
ENDBRANCH   8  22
BRANCH   4  25
ATOM     25  O   UNK     1      -6.102  -2.014   1.214  0.00  0.00    -0.363 OA
ATOM     26  H   UNK     1      -5.358  -2.627   1.285  0.00  0.00    +0.212 HD
ENDBRANCH   4  25
TORSDOF 4
