REMARK  Name = ZINC20764244
REMARK  8 active torsions:
REMARK  status: ('A' for Active; 'I' for Inactive)
REMARK    1  A    between atoms: C_1  and  C_2
REMARK    2  A    between atoms: C_2  and  O_3
REMARK    3  A    between atoms: O_3  and  C_4
REMARK    4  A    between atoms: C_8  and  C_11
REMARK    5  A    between atoms: C_9  and  O_10
REMARK    6  A    between atoms: C_14  and  C_29
REMARK    7  A    between atoms: C_16  and  C_19
REMARK    8  A    between atoms: C_22  and  C_25
REMARK                            x       y       z     vdW  Elec       q    Type
REMARK                         _______ _______ _______ _____ _____    ______ ____
ROOT
ATOM      1  C   UNL     1      -1.332   2.117   0.020  0.00  0.00    -0.028 C 
ATOM      2  C   UNL     1      -1.822   2.280   1.462  0.00  0.00    +0.044 C 
ATOM      3  C   UNL     1      -2.950   3.273   1.499  0.00  0.00    +0.040 C 
ATOM      4  N   UNL     1      -3.207   4.075   0.535  0.00  0.00    -0.299 NA
ATOM      5  C   UNL     1      -2.456   4.121  -0.713  0.00  0.00    +0.081 C 
ATOM      6  N   UNL     1      -1.155   3.460  -0.560  0.00  0.00    +0.401 N 
ATOM      7  H   UNL     1      -0.519   4.065   0.104  0.00  0.00    -0.081 HD
ATOM      8  H   UNL     1      -0.677   3.373  -1.547  0.00  0.00    -0.081 HD
ENDROOT
BRANCH   3   9
ATOM      9  C   UNL     1      -3.800   3.327   2.705  0.00  0.00    -0.004 A 
ATOM     10  C   UNL     1      -3.554   2.464   3.775  0.00  0.00    +0.011 A 
ATOM     11  C   UNL     1      -4.348   2.523   4.901  0.00  0.00    +0.020 A 
ATOM     12  C   UNL     1      -5.396   3.427   4.966  0.00  0.00    +0.041 A 
ATOM     13  C   UNL     1      -5.648   4.282   3.906  0.00  0.00    +0.020 A 
ATOM     14  C   UNL     1      -4.857   4.237   2.777  0.00  0.00    +0.011 A 
ATOM     15 CL   UNL     1      -6.396   3.490   6.384  0.00  0.00    -0.084 Cl
ENDBRANCH   3   9
BRANCH   1  20
ATOM     16  C   UNL     1       1.218  -0.680  -0.013  0.00  0.00    +0.162 A 
ATOM     17  C   UNL     1       2.405   0.035  -0.021  0.00  0.00    +0.049 A 
ATOM     18  C   UNL     1       2.379   1.417  -0.013  0.00  0.00    +0.004 A 
ATOM     19  C   UNL     1       1.171   2.089   0.002  0.00  0.00    +0.006 A 
ATOM     20  C   UNL     1      -0.017   1.381   0.010  0.00  0.00    -0.016 A 
ATOM     21  C   UNL     1       0.002  -0.004   0.002  0.00  0.00    +0.160 A 
BRANCH  21  22
ATOM     22  O   UNL     1      -1.165  -0.702   0.009  0.00  0.00    -0.503 OA
ATOM     23  H   UNL     1      -2.126  -0.166   0.021  0.00  0.00    +0.292 HD
ENDBRANCH  21  22
BRANCH  16  24
ATOM     24  O   UNL     1       1.242  -2.040  -0.020  0.00  0.00    -0.489 OA
BRANCH  24  26
ATOM     25  C   UNL     1       2.352  -4.186  -0.042  0.00  0.00    +0.048 C 
ATOM     26  C   UNL     1       2.526  -2.666  -0.036  0.00  0.00    +0.226 C 
ENDBRANCH  24  26
ENDBRANCH  16  24
ENDBRANCH   1  20
BRANCH   5  27
ATOM     27  C   UNL     1      -3.244   3.424  -1.792  0.00  0.00    -0.040 A 
ATOM     28  C   UNL     1      -2.585   2.815  -2.844  0.00  0.00    +0.004 A 
ATOM     29  C   UNL     1      -3.307   2.172  -3.832  0.00  0.00    +0.012 A 
ATOM     30  C   UNL     1      -4.688   2.146  -3.773  0.00  0.00    +0.055 A 
ATOM     31  C   UNL     1      -5.347   2.760  -2.724  0.00  0.00    +0.012 A 
ATOM     32  C   UNL     1      -4.625   3.399  -1.733  0.00  0.00    +0.004 A 
BRANCH  30  33
ATOM     33  C   UNL     1      -5.476   1.449  -4.852  0.00  0.00    +0.417 C 
ATOM     34  F   UNL     1      -5.769   2.357  -5.875  0.00  0.00    -0.166 F 
ATOM     35  F   UNL     1      -4.721   0.391  -5.370  0.00  0.00    -0.166 F 
ATOM     36  F   UNL     1      -6.667   0.952  -4.313  0.00  0.00    -0.166 F 
ENDBRANCH  30  33
ENDBRANCH   5  27
TORSDOF 7
