REMARK  Name = ZINC05607154
REMARK  5 active torsions:
REMARK  status: ('A' for Active; 'I' for Inactive)
REMARK    1  A    between atoms: C_1  and  C_2
REMARK    2  A    between atoms: N_13  and  C_16
REMARK    3  A    between atoms: C_16  and  C_18
REMARK    4  A    between atoms: C_16  and  C_19
REMARK    5  A    between atoms: N_21  and  C_22
REMARK                            x       y       z     vdW  Elec       q    Type
REMARK                         _______ _______ _______ _____ _____    ______ ____
ROOT
ATOM      1  C   UNL     1       1.428   3.566   0.267  0.00  0.00    +0.008 C 
ATOM      2  C   UNL     1       1.441   2.059   0.004  0.00  0.00    -0.009 C 
ATOM      3  C   UNL     1       0.007   1.522   0.024  0.00  0.00    +0.008 C 
ATOM      4  C   UNL     1       0.024  -0.006   0.012  0.00  0.00    +0.037 C 
ATOM      5  C   UNL     1       0.886  -0.483  -1.154  0.00  0.00    -0.023 A 
ATOM      6  C   UNL     1       1.775   0.356  -1.740  0.00  0.00    -0.004 A 
ATOM      7  S   UNL     1       2.539  -0.602  -3.024  0.00  0.00    -0.071 S 
ATOM      8  C   UNL     1       1.670  -2.118  -2.772  0.00  0.00    +0.138 A 
ATOM      9  C   UNL     1       0.808  -1.827  -1.692  0.00  0.00    +0.079 A 
ATOM     10  C   UNL     1      -0.054  -2.884  -1.236  0.00  0.00    +0.279 A 
ATOM     11  O   UNL     1      -0.833  -2.732  -0.311  0.00  0.00    -0.265 OA
ATOM     12  N   UNL     1       0.057  -4.059  -1.901  0.00  0.00    -0.199 N 
ATOM     13  N   UNL     1       0.947  -4.239  -2.961  0.00  0.00    -0.061 NA
ATOM     14  N   UNL     1       1.731  -3.296  -3.385  0.00  0.00    -0.123 NA
ATOM     15  C   UNL     1       2.050   1.782  -1.377  0.00  0.00    +0.046 C 
ENDROOT
BRANCH  12  16
ATOM     16  C   UNL     1      -0.788  -5.183  -1.492  0.00  0.00    +0.195 C 
ATOM     17  C   UNL     1      -1.668  -5.613  -2.667  0.00  0.00    +0.043 C 
BRANCH  16  18
ATOM     18  C   UNL     1       0.082  -6.338  -1.067  0.00  0.00    +0.242 C 
ATOM     19  O   UNL     1       1.290  -6.232  -1.102  0.00  0.00    -0.273 OA
ATOM     20  N   UNL     1      -0.482  -7.488  -0.647  0.00  0.00    -0.284 N 
ATOM     21  H   UNL     1      -1.446  -7.550  -0.555  0.00  0.00    +0.155 HD
BRANCH  20  22
ATOM     22  C   UNL     1       0.323  -8.593  -0.345  0.00  0.00    +0.034 A 
ATOM     23  C   UNL     1      -0.130  -9.878  -0.614  0.00  0.00    +0.026 A 
ATOM     24  C   UNL     1       0.669 -10.966  -0.321  0.00  0.00    +0.040 A 
ATOM     25  C   UNL     1       1.915 -10.777   0.252  0.00  0.00    +0.124 A 
ATOM     26  C   UNL     1       2.366  -9.497   0.526  0.00  0.00    +0.040 A 
ATOM     27  C   UNL     1       1.574  -8.406   0.229  0.00  0.00    +0.026 A 
ATOM     28  F   UNL     1       2.692 -11.843   0.543  0.00  0.00    -0.205 F 
ENDBRANCH  20  22
ENDBRANCH  16  18
ENDBRANCH  12  16
TORSDOF 3
