REMARK  Name = ZINC15989045
REMARK  4 active torsions:
REMARK  status: ('A' for Active; 'I' for Inactive)
REMARK    1  A    between atoms: C_1  and  C_2
REMARK    2  A    between atoms: C_2  and  C_4
REMARK    3  A    between atoms: C_7  and  N_10
REMARK    4  A    between atoms: C_26  and  C_32
REMARK                            x       y       z     vdW  Elec       q    Type
REMARK                         _______ _______ _______ _____ _____    ______ ____
ROOT
ATOM      1  N   UNL     1      -4.842  -2.889   0.034  0.00  0.00    -0.210 N 
ATOM      2  C   UNL     1      -4.894  -4.226  -0.059  0.00  0.00    +0.232 C 
ATOM      3  O   UNL     1      -3.953  -4.957  -0.282  0.00  0.00    -0.274 OA
ATOM      4  C   UNL     1      -6.326  -4.670   0.161  0.00  0.00    +0.115 C 
ATOM      5  C   UNL     1      -6.760  -5.610  -0.965  0.00  0.00    +0.117 C 
ATOM      6  C   UNL     1      -7.593  -6.748  -0.432  0.00  0.00    -0.019 A 
ATOM      7  C   UNL     1      -7.330  -7.303   0.799  0.00  0.00    +0.006 A 
ATOM      8  C   UNL     1      -8.113  -8.344   1.270  0.00  0.00    +0.000 A 
ATOM      9  C   UNL     1      -9.161  -8.829   0.507  0.00  0.00    +0.001 A 
ATOM     10  C   UNL     1      -9.433  -8.283  -0.730  0.00  0.00    +0.008 A 
ATOM     11  C   UNL     1      -8.648  -7.235  -1.214  0.00  0.00    -0.019 A 
ATOM     12  C   UNL     1      -8.924  -6.652  -2.543  0.00  0.00    +0.023 C 
ATOM     13  C   UNL     1      -8.406  -5.448  -2.856  0.00  0.00    +0.072 C 
ATOM     14  N   UNL     1      -7.598  -4.839  -1.901  0.00  0.00    -0.316 N 
ATOM     15  C   UNL     1      -7.486  -3.419  -1.578  0.00  0.00    +0.172 C 
ATOM     16  C   UNL     1      -7.117  -3.348  -0.064  0.00  0.00    +0.119 C 
ATOM     17  C   UNL     1      -6.041  -2.298   0.143  0.00  0.00    +0.232 C 
ATOM     18  O   UNL     1      -6.232  -1.122   0.366  0.00  0.00    -0.274 OA
ENDROOT
BRANCH   1  22
ATOM     19  C   UNL     1      -1.259  -0.757   0.009  0.00  0.00    +0.017 A 
ATOM     20  C   UNL     1      -2.044  -0.799   1.168  0.00  0.00    +0.013 A 
ATOM     21  C   UNL     1      -3.226  -1.503   1.171  0.00  0.00    +0.024 A 
ATOM     22  C   UNL     1      -3.641  -2.174   0.026  0.00  0.00    +0.044 A 
ATOM     23  C   UNL     1      -2.865  -2.136  -1.129  0.00  0.00    +0.024 A 
ATOM     24  C   UNL     1      -1.685  -1.429  -1.143  0.00  0.00    +0.013 A 
BRANCH  19  26
ATOM     25  C   UNL     1       0.459   0.716   1.242  0.00  0.00    +0.091 C 
ATOM     26  C   UNL     1       0.003  -0.006   0.000  0.00  0.00    +0.160 C 
ATOM     27  O   UNL     1       0.679   0.033  -1.006  0.00  0.00    -0.292 OA
ENDBRANCH  19  26
ENDBRANCH   1  22
BRANCH  15  28
ATOM     28  C   UNL     1      -6.402  -2.782  -2.409  0.00  0.00    +0.232 C 
ATOM     29  O   UNL     1      -5.561  -3.474  -2.942  0.00  0.00    -0.274 OA
ATOM     30  N   UNL     1      -6.368  -1.443  -2.560  0.00  0.00    -0.328 N 
ATOM     31  H   UNL     1      -7.040  -0.889  -2.134  0.00  0.00    +0.145 HD
ATOM     32  H   UNL     1      -5.670  -1.033  -3.095  0.00  0.00    +0.145 HD
ENDBRANCH  15  28
TORSDOF 3
