REMARK  Name = ZINC53495652
REMARK  4 active torsions:
REMARK  status: ('A' for Active; 'I' for Inactive)
REMARK    1  A    between atoms: C_6  and  C_10
REMARK    2  A    between atoms: C_10  and  N_11
REMARK    3  A    between atoms: N_19  and  C_20
REMARK    4  A    between atoms: C_20  and  C_21
REMARK                            x       y       z     vdW  Elec       q    Type
REMARK                         _______ _______ _______ _____ _____    ______ ____
ROOT
ATOM      1  N   UNL     1       3.804  -3.880   1.321  0.00  0.00    -0.294 NA
ATOM      2  C   UNL     1       4.652  -2.978   2.113  0.00  0.00    +0.104 C 
ATOM      3  C   UNL     1       4.643  -3.429   3.578  0.00  0.00    +0.124 C 
ATOM      4  N   UNL     1       5.023  -4.849   3.632  0.00  0.00    -0.283 N 
ATOM      5  C   UNL     1       4.308  -5.795   2.762  0.00  0.00    +0.124 C 
ATOM      6  C   UNL     1       4.330  -5.251   1.329  0.00  0.00    +0.104 C 
ATOM      7  C   UNL     1       6.000  -5.272   4.458  0.00  0.00    +0.303 C 
ATOM      8  O   UNL     1       6.645  -4.465   5.100  0.00  0.00    -0.253 OA
ATOM      9  N   UNL     1       6.263  -6.589   4.572  0.00  0.00    -0.295 N 
ATOM     10  H   UNL     1       5.799  -7.227   4.007  0.00  0.00    +0.151 HD
ENDROOT
BRANCH   1  11
ATOM     11  C   UNL     1       3.648  -3.384  -0.053  0.00  0.00    +0.139 C 
BRANCH  11  17
ATOM     12  C   UNL     1      -0.025   1.354   0.019  0.00  0.00    +0.005 A 
ATOM     13  C   UNL     1       1.184   2.070   0.015  0.00  0.00    +0.018 A 
ATOM     14  C   UNL     1       2.363   1.414   0.000  0.00  0.00    +0.092 A 
ATOM     15  N   UNL     1       2.399   0.049  -0.011  0.00  0.00    -0.308 N 
ATOM     16  C   UNL     1       3.431  -0.849  -0.028  0.00  0.00    +0.115 A 
ATOM     17  C   UNL     1       2.884  -2.085  -0.035  0.00  0.00    +0.048 A 
ATOM     18  N   UNL     1       1.555  -1.963  -0.022  0.00  0.00    -0.342 N 
ATOM     19  C   UNL     1       1.236  -0.676  -0.008  0.00  0.00    +0.115 A 
ATOM     20  C   UNL     1      -0.003  -0.006   0.007  0.00  0.00    +0.045 A 
ATOM     21  H   UNL     1       0.923  -2.699  -0.024  0.00  0.00    +0.167 HD
ENDBRANCH  11  17
ENDBRANCH   1  11
BRANCH   9  22
ATOM     22  C   UNL     1       7.250  -7.057   5.548  0.00  0.00    +0.141 C 
BRANCH  22  23
ATOM     23  C   UNL     1       7.356  -8.559   5.475  0.00  0.00    -0.030 A 
ATOM     24  C   UNL     1       6.537  -9.348   6.261  0.00  0.00    +0.006 A 
ATOM     25  C   UNL     1       6.633 -10.725   6.194  0.00  0.00    +0.020 A 
ATOM     26  C   UNL     1       7.550 -11.313   5.340  0.00  0.00    +0.041 A 
ATOM     27  C   UNL     1       8.369 -10.523   4.554  0.00  0.00    +0.020 A 
ATOM     28  C   UNL     1       8.267  -9.146   4.618  0.00  0.00    +0.006 A 
ATOM     29 CL   UNL     1       7.672 -13.043   5.256  0.00  0.00    -0.084 Cl
ENDBRANCH  22  23
ENDBRANCH   9  22
TORSDOF 4
