REMARK  Name = ZINC54201002
REMARK  7 active torsions:
REMARK  status: ('A' for Active; 'I' for Inactive)
REMARK    1  A    between atoms: C_4  and  C_7
REMARK    2  A    between atoms: C_7  and  C_8
REMARK    3  A    between atoms: C_8  and  C_10
REMARK    4  A    between atoms: C_8  and  N_19
REMARK    5  A    between atoms: N_12  and  C_13
REMARK    6  A    between atoms: N_19  and  S_20
REMARK    7  A    between atoms: S_20  and  C_23
REMARK                            x       y       z     vdW  Elec       q    Type
REMARK                         _______ _______ _______ _____ _____    ______ ____
ROOT
ATOM      1  C   UNL     1       4.285  -0.905   1.408  0.00  0.00    +0.166 C 
ENDROOT
BRANCH   1   2
ATOM      2  C   UNL     1       5.689  -1.449   1.472  0.00  0.00    +0.232 C 
ATOM      3  O   UNL     1       5.911  -2.487   2.058  0.00  0.00    -0.274 OA
ATOM      4  N   UNL     1       6.698  -0.782   0.877  0.00  0.00    -0.311 N 
ATOM      5  H   UNL     1       6.520   0.049   0.408  0.00  0.00    +0.149 HD
BRANCH   4   6
ATOM      6  C   UNL     1       8.062  -1.310   0.939  0.00  0.00    +0.073 C 
ATOM      7  C   UNL     1       8.726  -0.858   2.241  0.00  0.00    +0.022 C 
ATOM      8  C   UNL     1      10.151  -1.410   2.306  0.00  0.00    +0.002 C 
ATOM      9  C   UNL     1      10.956  -0.886   1.115  0.00  0.00    +0.000 C 
ATOM     10  C   UNL     1      10.292  -1.338  -0.187  0.00  0.00    +0.002 C 
ATOM     11  C   UNL     1       8.867  -0.786  -0.252  0.00  0.00    +0.022 C 
ENDBRANCH   4   6
ENDBRANCH   1   2
BRANCH   1  12
ATOM     12  N   UNL     1       3.379  -1.806   2.125  0.00  0.00    -0.178 NA
ATOM     13  H   UNL     1       3.008  -2.581   1.673  0.00  0.00    +0.149 HD
BRANCH  12  14
ATOM     14  S   UNL     1       2.988  -1.503   3.705  0.00  0.00    +0.059 S 
ATOM     15  O   UNL     1       2.062  -2.508   4.095  0.00  0.00    -0.153 OA
ATOM     16  O   UNL     1       4.213  -1.288   4.392  0.00  0.00    -0.153 OA
BRANCH  14  17
ATOM     17  C   UNL     1       2.116   0.027   3.742  0.00  0.00    +0.105 A 
ATOM     18  C   UNL     1       2.813   1.220   3.798  0.00  0.00    +0.029 A 
ATOM     19  C   UNL     1       2.129   2.420   3.826  0.00  0.00    +0.017 A 
ATOM     20  C   UNL     1       0.746   2.429   3.798  0.00  0.00    +0.018 A 
ATOM     21  C   UNL     1       0.049   1.236   3.742  0.00  0.00    +0.017 A 
ATOM     22  C   UNL     1       0.734   0.036   3.708  0.00  0.00    +0.029 A 
ATOM     23 BR   UNL     1      -0.190   4.071   3.837  0.00  0.00    -0.050 Br
ENDBRANCH  14  17
ENDBRANCH  12  14
ENDBRANCH   1  12
BRANCH   1  24
ATOM     24  C   UNL     1       3.846  -0.797  -0.053  0.00  0.00    +0.065 C 
BRANCH  24  28
ATOM     25  C   UNL     1      -0.038   0.970  -0.248  0.00  0.00    +0.000 A 
ATOM     26  C   UNL     1       1.084   1.774  -0.180  0.00  0.00    +0.000 A 
ATOM     27  C   UNL     1       2.341   1.202  -0.117  0.00  0.00    +0.004 A 
ATOM     28  C   UNL     1       2.475  -0.173  -0.121  0.00  0.00    -0.045 A 
ATOM     29  C   UNL     1       1.353  -0.977  -0.189  0.00  0.00    +0.004 A 
ATOM     30  C   UNL     1       0.096  -0.405  -0.254  0.00  0.00    +0.000 A 
ENDBRANCH  24  28
ENDBRANCH   1  24
TORSDOF 7
