REMARK  Name = ZINC39450936
REMARK  4 active torsions:
REMARK  status: ('A' for Active; 'I' for Inactive)
REMARK    1  A    between atoms: C_4  and  O_7
REMARK    2  A    between atoms: O_7  and  S_8
REMARK    3  A    between atoms: S_8  and  C_11
REMARK    4  A    between atoms: N_17  and  C_20
REMARK                            x       y       z     vdW  Elec       q    Type
REMARK                         _______ _______ _______ _____ _____    ______ ____
ROOT
ATOM      1  C   UNL     1       3.192  -2.273   2.002  0.00  0.00    +0.147 A 
ATOM      2  C   UNL     1       2.049  -2.018   2.738  0.00  0.00    +0.047 A 
ATOM      3  C   UNL     1       1.333  -3.108   3.236  0.00  0.00    +0.069 A 
ATOM      4  C   UNL     1       1.797  -4.415   2.973  0.00  0.00    +0.099 A 
ATOM      5  C   UNL     1       1.027  -5.546   3.509  0.00  0.00    +0.082 A 
ATOM      6  C   UNL     1      -0.119  -5.308   4.245  0.00  0.00    +0.115 A 
ATOM      7  N   UNL     1      -0.553  -4.011   4.491  0.00  0.00    -0.268 N 
ATOM      8  C   UNL     1       0.109  -2.934   4.029  0.00  0.00    +0.266 A 
ATOM      9  O   UNL     1      -0.308  -1.816   4.268  0.00  0.00    -0.267 OA
ATOM     10  C   UNL     1      -0.867  -6.396   4.751  0.00  0.00    +0.185 C 
ATOM     11  O   UNL     1      -1.847  -6.184   5.438  0.00  0.00    -0.290 OA
ATOM     12  C   UNL     1      -0.461  -7.814   4.447  0.00  0.00    +0.119 C 
ATOM     13  C   UNL     1       1.058  -7.878   4.257  0.00  0.00    +0.171 C 
ATOM     14  N   UNL     1       1.444  -6.844   3.285  0.00  0.00    -0.324 N 
ATOM     15 CL   UNL     1       1.882  -7.572   5.832  0.00  0.00    -0.101 Cl
ATOM     16  N   UNL     1       2.900  -4.601   2.260  0.00  0.00    -0.251 NA
ATOM     17  C   UNL     1       3.585  -3.586   1.778  0.00  0.00    +0.142 A 
ATOM     18  H   UNL     1       1.978  -7.067   2.507  0.00  0.00    +0.148 HD
ENDROOT
BRANCH   7  19
ATOM     19  C   UNL     1      -1.716  -3.818   5.246  0.00  0.00    +0.097 A 
ATOM     20  C   UNL     1      -1.638  -3.688   6.625  0.00  0.00    +0.030 A 
ATOM     21  C   UNL     1      -2.788  -3.498   7.367  0.00  0.00    +0.002 A 
ATOM     22  C   UNL     1      -4.018  -3.436   6.739  0.00  0.00    +0.004 A 
ATOM     23  C   UNL     1      -4.105  -3.564   5.366  0.00  0.00    +0.053 A 
ATOM     24  C   UNL     1      -2.956  -3.750   4.613  0.00  0.00    +0.203 A 
ATOM     25  O   UNL     1      -3.039  -3.871   3.262  0.00  0.00    -0.286 OA
ENDBRANCH   7  19
BRANCH   1  26
ATOM     26  S   UNL     1       4.140  -0.941   1.346  0.00  0.00    +0.152 S 
ATOM     27  O   UNL     1       5.458  -1.436   1.154  0.00  0.00    -0.131 OA
ATOM     28  O   UNL     1       3.863   0.192   2.158  0.00  0.00    -0.131 OA
BRANCH  26  29
ATOM     29  O   UNL     1       3.586  -0.632  -0.037  0.00  0.00    -0.342 OA
BRANCH  29  33
ATOM     30  C   UNL     1      -0.017   1.378   0.010  0.00  0.00    +0.000 A 
ATOM     31  C   UNL     1       1.170   2.088   0.002  0.00  0.00    +0.004 A 
ATOM     32  C   UNL     1       2.377   1.417  -0.013  0.00  0.00    +0.048 A 
ATOM     33  C   UNL     1       2.399   0.030  -0.021  0.00  0.00    +0.157 A 
ATOM     34  C   UNL     1       1.207  -0.680  -0.013  0.00  0.00    +0.048 A 
ATOM     35  C   UNL     1       0.002  -0.004   0.002  0.00  0.00    +0.004 A 
ENDBRANCH  29  33
ENDBRANCH  26  29
ENDBRANCH   1  26
TORSDOF 4
