REMARK  Name = ZINC38703360
REMARK  5 active torsions:
REMARK  status: ('A' for Active; 'I' for Inactive)
REMARK    1  A    between atoms: C_1  and  C_2
REMARK    2  A    between atoms: C_4  and  C_26
REMARK    3  A    between atoms: C_13  and  C_18
REMARK    4  A    between atoms: C_22  and  O_24
REMARK    5  A    between atoms: O_24  and  C_25
REMARK                            x       y       z     vdW  Elec       q    Type
REMARK                         _______ _______ _______ _____ _____    ______ ____
ROOT
ATOM      1  C   UNL     1      -0.523   1.450   0.038  0.00  0.00    +0.044 C 
ATOM      2  C   UNL     1      -0.237  -0.029   0.015  0.00  0.00    -0.047 A 
ATOM      3  C   UNL     1      -0.233  -0.708  -1.195  0.00  0.00    +0.007 A 
ATOM      4  C   UNL     1       0.027  -2.050  -1.231  0.00  0.00    -0.036 A 
ATOM      5  C   UNL     1       0.289  -2.735  -0.045  0.00  0.00    +0.067 A 
ATOM      6  C   UNL     1       0.282  -2.060   1.186  0.00  0.00    +0.140 A 
ATOM      7  C   UNL     1       0.022  -0.690   1.195  0.00  0.00    +0.050 A 
ATOM      8  O   UNL     1       0.518  -2.692   2.358  0.00  0.00    -0.450 OA
ATOM      9  C   UNL     1       1.001  -3.950   2.351  0.00  0.00    +0.199 A 
ATOM     10  C   UNL     1       1.051  -4.714   1.220  0.00  0.00    +0.072 A 
ATOM     11  C   UNL     1       0.581  -4.191  -0.067  0.00  0.00    +0.199 A 
ATOM     12  O   UNL     1       0.444  -4.884  -1.059  0.00  0.00    -0.287 OA
ATOM     13  C   UNL     1       1.631  -6.039   1.591  0.00  0.00    +0.142 C 
ATOM     14  N   UNL     1       1.915  -5.964   3.033  0.00  0.00    -0.298 N 
ATOM     15  C   UNL     1       1.545  -4.742   3.468  0.00  0.00    +0.281 C 
ATOM     16  O   UNL     1       1.646  -4.351   4.614  0.00  0.00    -0.267 OA
ATOM     17  C   UNL     1       0.031  -2.784  -2.547  0.00  0.00    +0.044 C 
ATOM     18  H   UNL     1       2.301  -6.669   3.576  0.00  0.00    +0.150 HD
ENDROOT
BRANCH  13  19
ATOM     19  C   UNL     1       0.638  -7.138   1.312  0.00  0.00    -0.019 A 
ATOM     20  C   UNL     1      -0.391  -7.382   2.203  0.00  0.00    +0.006 A 
ATOM     21  C   UNL     1      -1.304  -8.389   1.951  0.00  0.00    +0.004 A 
ATOM     22  C   UNL     1      -1.190  -9.155   0.806  0.00  0.00    +0.045 A 
ATOM     23  C   UNL     1      -0.159  -8.912  -0.089  0.00  0.00    +0.120 A 
ATOM     24  C   UNL     1       0.752  -7.897   0.164  0.00  0.00    +0.051 A 
BRANCH  23  25
ATOM     25  O   UNL     1      -0.044  -9.664  -1.215  0.00  0.00    -0.495 OA
ATOM     26  C   UNL     1      -1.021 -10.688  -1.414  0.00  0.00    +0.277 C 
ENDBRANCH  23  25
ENDBRANCH  13  19
TORSDOF 2
