REMARK  Name = ZINC56762330
REMARK  10 active torsions:
REMARK  status: ('A' for Active; 'I' for Inactive)
REMARK    1  A    between atoms: C_1  and  C_2
REMARK    2  A    between atoms: C_2  and  C_4
REMARK    3  A    between atoms: C_2  and  N_12
REMARK    4  A    between atoms: C_4  and  C_5
REMARK    5  A    between atoms: C_8  and  O_11
REMARK    6  A    between atoms: N_15  and  N_16
REMARK    7  A    between atoms: C_17  and  C_19
REMARK    8  A    between atoms: C_19  and  C_21
REMARK    9  A    between atoms: C_19  and  O_22
REMARK   10  A    between atoms: O_22  and  C_23
REMARK                            x       y       z     vdW  Elec       q    Type
REMARK                         _______ _______ _______ _____ _____    ______ ____
ROOT
ATOM      1  N   UNL     1       1.119  -1.121   0.840  0.00  0.00    -0.295 N 
ATOM      2  C   UNL     1       2.458  -1.057   0.981  0.00  0.00    +0.316 C 
ATOM      3  O   UNL     1       3.154  -0.738   0.036  0.00  0.00    -0.251 OA
ATOM      4  N   UNL     1       3.025  -1.347   2.168  0.00  0.00    -0.218 N 
ATOM      5  H   UNL     1       0.564  -1.375   1.593  0.00  0.00    +0.151 HD
ATOM      6  H   UNL     1       3.989  -1.301   2.270  0.00  0.00    +0.174 HD
ENDROOT
BRANCH   4   7
ATOM      7  N   UNL     1       2.223  -1.714   3.256  0.00  0.00    -0.230 N 
ATOM      8  C   UNL     1       2.790  -2.004   4.444  0.00  0.00    +0.270 C 
ATOM      9  O   UNL     1       3.995  -1.946   4.571  0.00  0.00    -0.270 OA
ATOM     10  H   UNL     1       1.260  -1.760   3.155  0.00  0.00    +0.173 HD
BRANCH   8  11
ATOM     11  C   UNL     1       1.927  -2.399   5.615  0.00  0.00    +0.257 C 
ATOM     12  C   UNL     1       1.040  -1.219   6.016  0.00  0.00    +0.062 C 
BRANCH  11  13
ATOM     13  O   UNL     1       2.759  -2.767   6.717  0.00  0.00    -0.480 OA
BRANCH  13  14
ATOM     14  C   UNL     1       2.226  -3.613   7.638  0.00  0.00    +0.122 A 
ATOM     15  C   UNL     1       0.895  -3.994   7.541  0.00  0.00    +0.048 A 
ATOM     16  C   UNL     1       0.354  -4.854   8.477  0.00  0.00    +0.042 A 
ATOM     17  C   UNL     1       1.139  -5.336   9.511  0.00  0.00    +0.124 A 
ATOM     18  C   UNL     1       2.467  -4.956   9.609  0.00  0.00    +0.042 A 
ATOM     19  C   UNL     1       3.013  -4.101   8.671  0.00  0.00    +0.048 A 
ATOM     20  F   UNL     1       0.609  -6.176  10.427  0.00  0.00    -0.205 F 
ENDBRANCH  13  14
ENDBRANCH  11  13
ENDBRANCH   8  11
ENDBRANCH   4   7
BRANCH   1  22
ATOM     21  C   UNL     1       0.295   0.706  -0.562  0.00  0.00    +0.028 C 
ATOM     22  C   UNL     1       0.503  -0.806  -0.452  0.00  0.00    +0.076 C 
BRANCH  22  23
ATOM     23  C   UNL     1      -0.849  -1.515  -0.558  0.00  0.00    +0.057 C 
BRANCH  23  24
ATOM     24  C   UNL     1      -0.633  -3.007  -0.572  0.00  0.00    -0.045 A 
ATOM     25  C   UNL     1      -0.447  -3.666  -1.774  0.00  0.00    +0.007 A 
ATOM     26  C   UNL     1      -0.250  -5.033  -1.790  0.00  0.00    +0.045 A 
ATOM     27  C   UNL     1      -0.238  -5.745  -0.599  0.00  0.00    +0.117 A 
ATOM     28  C   UNL     1      -0.425  -5.081   0.605  0.00  0.00    +0.045 A 
ATOM     29  C   UNL     1      -0.616  -3.713   0.616  0.00  0.00    +0.007 A 
BRANCH  27  30
ATOM     30  O   UNL     1      -0.045  -7.090  -0.612  0.00  0.00    -0.507 OA
ATOM     31  H   UNL     1       0.883  -7.354  -0.549  0.00  0.00    +0.292 HD
ENDBRANCH  27  30
ENDBRANCH  23  24
ENDBRANCH  22  23
ENDBRANCH   1  22
TORSDOF 8
