REMARK  Name = ZINC06662685
REMARK  5 active torsions:
REMARK  status: ('A' for Active; 'I' for Inactive)
REMARK    1  A    between atoms: C_1  and  C_2
REMARK    2  A    between atoms: C_9  and  N_14
REMARK    3  A    between atoms: C_10  and  C_11
REMARK    4  A    between atoms: C_15  and  C_17
REMARK    5  A    between atoms: C_17  and  N_18
REMARK                            x       y       z     vdW  Elec       q    Type
REMARK                         _______ _______ _______ _____ _____    ______ ____
ROOT
ATOM      1  C   UNL     1      -0.019   1.526   0.010  0.00  0.00    +0.008 C 
ATOM      2  C   UNL     1       0.002  -0.004   0.002  0.00  0.00    -0.009 C 
ATOM      3  C   UNL     1       0.742  -0.514   1.242  0.00  0.00    +0.008 C 
ATOM      4  C   UNL     1       0.557  -2.027   1.373  0.00  0.00    +0.037 C 
ATOM      5  C   UNL     1       0.941  -2.684   0.053  0.00  0.00    -0.023 A 
ATOM      6  C   UNL     1       1.008  -1.966  -1.089  0.00  0.00    -0.004 A 
ATOM      7  S   UNL     1       1.484  -3.133  -2.331  0.00  0.00    -0.077 S 
ATOM      8  C   UNL     1       1.592  -4.557  -1.350  0.00  0.00    +0.084 A 
ATOM      9  C   UNL     1       1.258  -4.096  -0.085  0.00  0.00    +0.068 A 
ATOM     10  C   UNL     1       0.736  -0.502  -1.252  0.00  0.00    +0.046 C 
ENDROOT
BRANCH   9  11
ATOM     11  C   UNL     1       1.226  -4.998   1.070  0.00  0.00    +0.244 C 
ATOM     12  O   UNL     1       0.198  -5.582   1.358  0.00  0.00    -0.270 OA
ATOM     13  N   UNL     1       2.336  -5.182   1.813  0.00  0.00    -0.325 N 
ATOM     14  H   UNL     1       3.156  -4.716   1.583  0.00  0.00    +0.145 HD
ATOM     15  H   UNL     1       2.315  -5.779   2.577  0.00  0.00    +0.145 HD
ENDBRANCH   9  11
BRANCH   8  16
ATOM     16  N   UNL     1       1.930  -5.846  -1.736  0.00  0.00    -0.278 N 
ATOM     17  C   UNL     1       2.227  -6.107  -3.024  0.00  0.00    +0.237 C 
ATOM     18  O   UNL     1       2.199  -5.216  -3.846  0.00  0.00    -0.273 OA
ATOM     19  H   UNL     1       1.952  -6.559  -1.078  0.00  0.00    +0.155 HD
BRANCH  17  20
ATOM     20  C   UNL     1       2.594  -7.508  -3.443  0.00  0.00    +0.222 C 
BRANCH  20  21
ATOM     21  N   UNL     1       2.870  -7.530  -4.882  0.00  0.00    -0.293 N 
ATOM     22  C   UNL     1       4.159  -7.302  -5.335  0.00  0.00    +0.060 A 
ATOM     23  C   UNL     1       5.305  -7.037  -4.569  0.00  0.00    +0.027 A 
ATOM     24  C   UNL     1       6.524  -6.830  -5.170  0.00  0.00    +0.002 A 
ATOM     25  C   UNL     1       6.663  -6.877  -6.546  0.00  0.00    +0.001 A 
ATOM     26  C   UNL     1       5.550  -7.137  -7.328  0.00  0.00    +0.017 A 
ATOM     27  C   UNL     1       4.332  -7.343  -6.727  0.00  0.00    +0.041 A 
ATOM     28  S   UNL     1       2.698  -7.695  -7.328  0.00  0.00    -0.027 S 
ATOM     29  C   UNL     1       1.869  -7.778  -5.749  0.00  0.00    +0.292 A 
ATOM     30  O   UNL     1       0.696  -8.001  -5.515  0.00  0.00    -0.259 OA
ENDBRANCH  20  21
ENDBRANCH  17  20
ENDBRANCH   8  16
TORSDOF 4
