REMARK  Name = ZINC65305819
REMARK  9 active torsions:
REMARK  status: ('A' for Active; 'I' for Inactive)
REMARK    1  A    between atoms: C_1  and  C_2
REMARK    2  A    between atoms: C_2  and  C_3
REMARK    3  A    between atoms: C_2  and  C_4
REMARK    4  A    between atoms: C_4  and  C_5
REMARK    5  A    between atoms: C_5  and  C_7
REMARK    6  A    between atoms: C_5  and  N_19
REMARK    7  A    between atoms: N_9  and  C_10
REMARK    8  A    between atoms: C_20  and  C_22
REMARK    9  A    between atoms: C_22  and  C_23
REMARK                            x       y       z     vdW  Elec       q    Type
REMARK                         _______ _______ _______ _____ _____    ______ ____
ROOT
ATOM      1  C   UNL     1      -1.416  -2.058  -0.121  0.00  0.00    +0.159 C 
ENDROOT
BRANCH   1   2
ATOM      2  C   UNL     1      -2.819  -2.590   0.013  0.00  0.00    +0.236 C 
ATOM      3  O   UNL     1      -3.320  -3.216  -0.898  0.00  0.00    -0.274 OA
ATOM      4  N   UNL     1      -3.518  -2.371   1.144  0.00  0.00    -0.277 N 
ATOM      5  H   UNL     1      -3.118  -1.870   1.872  0.00  0.00    +0.152 HD
BRANCH   4   6
ATOM      6  C   UNL     1      -4.882  -2.888   1.274  0.00  0.00    +0.269 C 
ATOM      7  N   UNL     1      -5.819  -2.032   0.535  0.00  0.00    -0.348 N 
ATOM      8  C   UNL     1      -6.673  -1.555   1.394  0.00  0.00    +0.061 A 
ATOM      9  C   UNL     1      -7.827  -0.655   1.261  0.00  0.00    +0.027 A 
ATOM     10  C   UNL     1      -8.545  -0.328   2.354  0.00  0.00    +0.002 A 
ATOM     11  C   UNL     1      -8.237  -0.816   3.637  0.00  0.00    +0.002 A 
ATOM     12  C   UNL     1      -7.201  -1.646   3.869  0.00  0.00    +0.027 A 
ATOM     13  C   UNL     1      -6.348  -2.072   2.752  0.00  0.00    +0.061 A 
ATOM     14  N   UNL     1      -5.305  -2.848   2.679  0.00  0.00    -0.348 N 
ATOM     15  H   UNL     1      -5.803  -1.854  -0.418  0.00  0.00    +0.163 HD
ATOM     16  H   UNL     1      -4.884  -3.314   3.419  0.00  0.00    +0.163 HD
ENDBRANCH   4   6
ENDBRANCH   1   2
BRANCH   1  17
ATOM     17  N   UNL     1      -0.876  -2.426  -1.433  0.00  0.00    -0.304 N 
ATOM     18  C   UNL     1       0.456  -2.525  -1.610  0.00  0.00    +0.214 C 
ATOM     19  O   UNL     1       1.209  -2.308  -0.684  0.00  0.00    -0.276 OA
ATOM     20  H   UNL     1      -1.478  -2.600  -2.173  0.00  0.00    +0.149 HD
BRANCH  18  21
ATOM     21  C   UNL     1       1.011  -2.904  -2.959  0.00  0.00    +0.099 C 
BRANCH  21  22
ATOM     22  C   UNL     1       2.538  -2.944  -2.889  0.00  0.00    -0.002 C 
ATOM     23  C   UNL     1       3.074  -1.537  -2.612  0.00  0.00    +0.004 C 
ATOM     24  C   UNL     1       4.601  -1.577  -2.542  0.00  0.00    +0.000 C 
ATOM     25  C   UNL     1       5.160  -2.083  -3.874  0.00  0.00    +0.000 C 
ATOM     26  C   UNL     1       4.625  -3.489  -4.151  0.00  0.00    +0.000 C 
ATOM     27  C   UNL     1       3.097  -3.449  -4.221  0.00  0.00    +0.004 C 
ENDBRANCH  21  22
ENDBRANCH  18  21
ENDBRANCH   1  17
BRANCH   1  28
ATOM     28  C   UNL     1      -1.433  -0.534   0.013  0.00  0.00    +0.034 C 
BRANCH  28  30
ATOM     29  C   UNL     1      -0.019   1.526   0.010  0.00  0.00    +0.007 C 
ATOM     30  C   UNL     1       0.002  -0.004   0.002  0.00  0.00    -0.015 C 
ATOM     31  C   UNL     1       0.742  -0.511   1.242  0.00  0.00    +0.007 C 
ENDBRANCH  28  30
ENDBRANCH   1  28
TORSDOF 7
