REMARK  Name = ZINC39685902
REMARK  13 active torsions:
REMARK  status: ('A' for Active; 'I' for Inactive)
REMARK    1  A    between atoms: C_1  and  C_2
REMARK    2  A    between atoms: C_7  and  C_8
REMARK    3  A    between atoms: C_8  and  C_9
REMARK    4  A    between atoms: C_13  and  C_22
REMARK    5  A    between atoms: N_24  and  C_25
REMARK    6  A    between atoms: C_25  and  C_27
REMARK    7  A    between atoms: C_25  and  C_30
REMARK    8  A    between atoms: C_27  and  C_28
REMARK    9  A    between atoms: C_27  and  C_29
REMARK   10  A    between atoms: N_32  and  C_33
REMARK   11  A    between atoms: C_33  and  C_34
REMARK   12  A    between atoms: C_33  and  C_35
REMARK   13  A    between atoms: C_33  and  C_36
REMARK                            x       y       z     vdW  Elec       q    Type
REMARK                         _______ _______ _______ _____ _____    ______ ____
ROOT
ATOM      1  C   UNL     1      -2.973  -0.437   4.652  0.00  0.00    +0.220 C 
ATOM      2  O   UNL     1      -4.046  -0.982   4.500  0.00  0.00    -0.275 OA
ATOM      3  N   UNL     1      -2.755   0.329   5.739  0.00  0.00    -0.300 N 
ATOM      4  C   UNL     1      -1.524   1.074   6.093  0.00  0.00    +0.121 C 
ATOM      5  C   UNL     1      -2.031   2.408   6.684  0.00  0.00    +0.100 C 
ATOM      6  C   UNL     1      -3.453   2.101   7.182  0.00  0.00    -0.004 C 
ATOM      7  C   UNL     1      -3.694   0.622   6.848  0.00  0.00    +0.115 C 
ATOM      8  C   UNL     1      -4.469   2.973   6.449  0.00  0.00    -0.010 C 
ATOM      9  C   UNL     1      -5.869   2.691   7.001  0.00  0.00    -0.082 C 
ATOM     10  N   UNL     1      -5.896   2.976   8.441  0.00  0.00    +0.379 N 
ATOM     11  C   UNL     1      -4.984   2.070   9.149  0.00  0.00    -0.082 C 
ATOM     12  C   UNL     1      -3.547   2.326   8.688  0.00  0.00    -0.010 C 
ATOM     13  H   UNL     1      -5.609   3.931   8.599  0.00  0.00    -0.086 HD
ATOM     14  H   UNL     1      -6.834   2.848   8.790  0.00  0.00    -0.086 HD
ENDROOT
BRANCH   5  15
ATOM     15  C   UNL     1      -1.154   2.841   7.830  0.00  0.00    +0.219 C 
ATOM     16  O   UNL     1      -0.614   2.009   8.529  0.00  0.00    -0.275 OA
ATOM     17  N   UNL     1      -0.968   4.153   8.079  0.00  0.00    -0.303 N 
ATOM     18  H   UNL     1      -1.399   4.818   7.520  0.00  0.00    +0.149 HD
BRANCH  17  19
ATOM     19  C   UNL     1      -0.115   4.574   9.194  0.00  0.00    +0.161 C 
BRANCH  19  20
ATOM     20  C   UNL     1      -0.528   5.949   9.650  0.00  0.00    +0.234 C 
ATOM     21  O   UNL     1      -1.188   6.658   8.920  0.00  0.00    -0.274 OA
ATOM     22  N   UNL     1      -0.163   6.392  10.869  0.00  0.00    -0.309 N 
ATOM     23  H   UNL     1       0.422   5.855  11.425  0.00  0.00    +0.149 HD
BRANCH  22  24
ATOM     24  C   UNL     1      -0.650   7.686  11.355  0.00  0.00    +0.026 C 
ATOM     25  C   UNL     1      -2.179   7.667  11.410  0.00  0.00    +0.031 C 
ATOM     26  C   UNL     1      -0.092   7.949  12.755  0.00  0.00    +0.031 C 
ATOM     27  C   UNL     1      -0.188   8.794  10.406  0.00  0.00    +0.031 C 
ENDBRANCH  22  24
ENDBRANCH  19  20
BRANCH  19  28
ATOM     28  C   UNL     1       1.344   4.604   8.735  0.00  0.00    +0.012 C 
ATOM     29  C   UNL     1       1.792   3.189   8.366  0.00  0.00    +0.009 C 
ATOM     30  C   UNL     1       1.476   5.516   7.514  0.00  0.00    +0.009 C 
ENDBRANCH  19  28
ENDBRANCH  17  19
ENDBRANCH   5  15
BRANCH   1  31
ATOM     31  C   UNL     1      -1.885  -0.616   3.625  0.00  0.00    +0.131 C 
BRANCH  31  38
ATOM     32  C   UNL     1      -3.391   0.503   1.428  0.00  0.00    +0.044 C 
ATOM     33  C   UNL     1      -3.101  -0.976   1.467  0.00  0.00    -0.047 A 
ATOM     34  C   UNL     1      -3.550  -1.795   0.449  0.00  0.00    +0.003 A 
ATOM     35  C   UNL     1      -3.285  -3.151   0.485  0.00  0.00    +0.000 A 
ATOM     36  C   UNL     1      -2.568  -3.688   1.539  0.00  0.00    +0.000 A 
ATOM     37  C   UNL     1      -2.118  -2.868   2.556  0.00  0.00    +0.004 A 
ATOM     38  C   UNL     1      -2.380  -1.511   2.518  0.00  0.00    -0.036 A 
ENDBRANCH  31  38
ENDBRANCH   1  31
TORSDOF 7
