REMARK  Name = ZINC45824084
REMARK  9 active torsions:
REMARK  status: ('A' for Active; 'I' for Inactive)
REMARK    1  A    between atoms: C_1  and  C_2
REMARK    2  A    between atoms: C_4  and  C_17
REMARK    3  A    between atoms: C_5  and  C_16
REMARK    4  A    between atoms: N_6  and  C_7
REMARK    5  A    between atoms: C_10  and  C_13
REMARK    6  A    between atoms: C_13  and  C_14
REMARK    7  A    between atoms: C_13  and  C_15
REMARK    8  A    between atoms: C_22  and  C_25
REMARK    9  A    between atoms: N_27  and  C_28
REMARK                            x       y       z     vdW  Elec       q    Type
REMARK                         _______ _______ _______ _____ _____    ______ ____
ROOT
ATOM      1  C   UNL     1      -0.071  -3.825  -1.372  0.00  0.00    +0.248 C 
ATOM      2  O   UNL     1       0.160  -4.957  -0.993  0.00  0.00    -0.270 OA
ATOM      3  N   UNL     1      -0.184  -3.564  -2.689  0.00  0.00    -0.297 N 
ATOM      4  C   UNL     1      -0.355  -2.186  -3.167  0.00  0.00    +0.109 C 
ATOM      5  C   UNL     1      -1.596  -2.125  -4.064  0.00  0.00    +0.032 C 
ATOM      6  C   UNL     1      -1.466  -3.166  -5.179  0.00  0.00    +0.078 C 
ATOM      7  C   UNL     1      -1.381  -4.565  -4.565  0.00  0.00    +0.032 C 
ATOM      8  C   UNL     1      -0.132  -4.653  -3.675  0.00  0.00    +0.109 C 
ENDROOT
BRANCH   1  12
ATOM      9  C   UNL     1       0.427   0.619   1.085  0.00  0.00    +0.064 C 
ATOM     10  C   UNL     1       0.007  -0.770   0.679  0.00  0.00    +0.022 A 
ATOM     11  C   UNL     1       0.452  -1.438  -0.400  0.00  0.00    +0.036 A 
ATOM     12  C   UNL     1      -0.227  -2.738  -0.390  0.00  0.00    +0.058 A 
ATOM     13  C   UNL     1      -1.035  -2.738   0.714  0.00  0.00    +0.033 A 
ATOM     14  N   UNL     1      -0.884  -1.559   1.351  0.00  0.00    -0.317 N 
ATOM     15  C   UNL     1      -1.936  -3.866   1.147  0.00  0.00    +0.064 C 
BRANCH  14  16
ATOM     16  C   UNL     1      -1.549  -1.194   2.530  0.00  0.00    +0.047 A 
ATOM     17  C   UNL     1      -1.296  -1.877   3.711  0.00  0.00    +0.026 A 
ATOM     18  C   UNL     1      -1.952  -1.516   4.871  0.00  0.00    +0.006 A 
ATOM     19  C   UNL     1      -2.861  -0.473   4.857  0.00  0.00    -0.045 A 
ATOM     20  C   UNL     1      -3.115   0.209   3.681  0.00  0.00    +0.006 A 
ATOM     21  C   UNL     1      -2.458  -0.144   2.519  0.00  0.00    +0.026 A 
BRANCH  19  22
ATOM     22  C   UNL     1      -3.576  -0.081   6.124  0.00  0.00    +0.013 C 
ATOM     23  C   UNL     1      -3.250   1.375   6.464  0.00  0.00    +0.012 C 
ATOM     24  C   UNL     1      -5.085  -0.234   5.926  0.00  0.00    +0.012 C 
ENDBRANCH  19  22
ENDBRANCH  14  16
ENDBRANCH   1  12
BRANCH   6  25
ATOM     25  C   UNL     1      -2.669  -3.086  -6.082  0.00  0.00    +0.220 C 
ATOM     26  O   UNL     1      -3.544  -2.277  -5.857  0.00  0.00    -0.275 OA
ATOM     27  N   UNL     1      -2.773  -3.914  -7.141  0.00  0.00    -0.285 N 
ATOM     28  H   UNL     1      -2.115  -4.613  -7.276  0.00  0.00    +0.155 HD
BRANCH  27  29
ATOM     29  C   UNL     1      -3.831  -3.764  -8.046  0.00  0.00    +0.037 A 
ATOM     30  C   UNL     1      -4.402  -4.882  -8.639  0.00  0.00    +0.027 A 
ATOM     31  C   UNL     1      -5.447  -4.736  -9.531  0.00  0.00    +0.051 A 
ATOM     32  C   UNL     1      -5.927  -3.473  -9.839  0.00  0.00    +0.166 A 
ATOM     33  C   UNL     1      -5.356  -2.349  -9.246  0.00  0.00    +0.168 A 
ATOM     34  C   UNL     1      -4.313  -2.497  -8.347  0.00  0.00    +0.072 A 
ATOM     35  O   UNL     1      -5.999  -1.238  -9.710  0.00  0.00    -0.453 OA
ATOM     36  C   UNL     1      -6.694  -1.662 -10.897  0.00  0.00    +0.466 C 
ATOM     37  O   UNL     1      -6.928  -3.065 -10.673  0.00  0.00    -0.453 OA
ENDBRANCH  27  29
ENDBRANCH   6  25
TORSDOF 5
