REMARK  Name = ZINC20540711
REMARK  15 active torsions:
REMARK  status: ('A' for Active; 'I' for Inactive)
REMARK    1  A    between atoms: C_1  and  C_2
REMARK    2  A    between atoms: C_2  and  N_3
REMARK    3  A    between atoms: N_3  and  C_4
REMARK    4  A    between atoms: N_3  and  C_6
REMARK    5  A    between atoms: C_4  and  C_5
REMARK    6  A    between atoms: C_6  and  C_7
REMARK    7  A    between atoms: C_7  and  N_8
REMARK    8  A    between atoms: N_8  and  C_9
REMARK    9  A    between atoms: C_9  and  C_10
REMARK   10  A    between atoms: C_15  and  O_16
REMARK   11  A    between atoms: O_16  and  C_17
REMARK   12  A    between atoms: C_17  and  C_18
REMARK   13  A    between atoms: C_18  and  C_20
REMARK   14  A    between atoms: C_18  and  O_27
REMARK   15  A    between atoms: C_20  and  N_21
REMARK                            x       y       z     vdW  Elec       q    Type
REMARK                         _______ _______ _______ _____ _____    ______ ____
ROOT
ATOM      1  C   UNL     1      -4.221   3.027   4.180  0.00  0.00    -0.023 A 
ATOM      2  C   UNL     1      -5.601   2.963   4.188  0.00  0.00    +0.005 A 
ATOM      3  C   UNL     1      -6.286   2.935   5.389  0.00  0.00    +0.000 A 
ATOM      4  C   UNL     1      -5.592   2.969   6.584  0.00  0.00    +0.004 A 
ATOM      5  C   UNL     1      -4.212   3.032   6.582  0.00  0.00    +0.046 A 
ATOM      6  C   UNL     1      -3.522   3.055   5.378  0.00  0.00    +0.122 A 
ENDROOT
BRANCH   1   7
ATOM      7  C   UNL     1      -3.475   3.059   2.871  0.00  0.00    -0.043 C 
BRANCH   7   8
ATOM      8  N   UNL     1      -2.967   1.715   2.564  0.00  0.00    +0.383 N 
ATOM      9  H   UNL     1      -3.741   1.071   2.495  0.00  0.00    -0.085 HD
ATOM     10  H   UNL     1      -2.344   1.415   3.299  0.00  0.00    -0.085 HD
BRANCH   8  11
ATOM     11  C   UNL     1      -2.240   1.746   1.288  0.00  0.00    -0.067 C 
BRANCH  11  12
ATOM     12  C   UNL     1      -1.711   0.346   0.968  0.00  0.00    +0.065 C 
BRANCH  12  13
ATOM     13  N   UNL     1      -0.967   0.382  -0.298  0.00  0.00    -0.305 NA
BRANCH  13  15
ATOM     14  C   UNL     1       1.057  -0.734   0.512  0.00  0.00    +0.020 C 
ATOM     15  C   UNL     1      -0.130  -0.816  -0.450  0.00  0.00    +0.081 C 
ENDBRANCH  13  15
BRANCH  13  16
ATOM     16  C   UNL     1      -1.878   0.535  -1.440  0.00  0.00    +0.081 C 
ATOM     17  C   UNL     1      -1.066   0.817  -2.706  0.00  0.00    +0.020 C 
ENDBRANCH  13  16
ENDBRANCH  12  13
ENDBRANCH  11  12
ENDBRANCH   8  11
ENDBRANCH   7   8
ENDBRANCH   1   7
BRANCH   6  18
ATOM     18  O   UNL     1      -2.164   3.112   5.372  0.00  0.00    -0.489 OA
BRANCH  18  19
ATOM     19  C   UNL     1      -1.511   3.138   6.643  0.00  0.00    +0.258 C 
BRANCH  19  20
ATOM     20  C   UNL     1       0.004   3.201   6.437  0.00  0.00    +0.135 C 
BRANCH  20  21
ATOM     21  O   UNL     1       0.348   4.438   5.809  0.00  0.00    -0.390 OA
ATOM     22  H   UNL     1       0.096   5.221   6.317  0.00  0.00    +0.210 HD
ENDBRANCH  20  21
BRANCH  20  23
ATOM     23  C   UNL     1       0.707   3.104   7.792  0.00  0.00    -0.044 C 
BRANCH  23  24
ATOM     24  N   UNL     1       2.162   3.101   7.589  0.00  0.00    +0.382 N 
ATOM     25  C   UNL     1       2.537   1.915   6.817  0.00  0.00    -0.068 C 
ATOM     26  C   UNL     1       3.963   2.074   6.277  0.00  0.00    +0.050 C 
ATOM     27  S   UNL     1       5.098   2.208   7.693  0.00  0.00    -0.164 S 
ATOM     28  C   UNL     1       4.306   3.487   8.717  0.00  0.00    +0.050 C 
ATOM     29  C   UNL     1       2.829   3.117   8.893  0.00  0.00    -0.068 C 
ATOM     30  H   UNL     1       2.426   3.927   7.073  0.00  0.00    -0.082 HD
ENDBRANCH  23  24
ENDBRANCH  20  23
ENDBRANCH  19  20
ENDBRANCH  18  19
ENDBRANCH   6  18
TORSDOF 13
