REMARK  Name = ZINC39675333
REMARK  10 active torsions:
REMARK  status: ('A' for Active; 'I' for Inactive)
REMARK    1  A    between atoms: C_1  and  C_2
REMARK    2  A    between atoms: C_6  and  C_9
REMARK    3  A    between atoms: C_13  and  C_22
REMARK    4  A    between atoms: N_24  and  C_25
REMARK    5  A    between atoms: C_25  and  C_27
REMARK    6  A    between atoms: C_25  and  C_28
REMARK    7  A    between atoms: C_28  and  C_29
REMARK    8  A    between atoms: C_29  and  C_30
REMARK    9  A    between atoms: C_33  and  O_36
REMARK   10  A    between atoms: O_36  and  C_37
REMARK                            x       y       z     vdW  Elec       q    Type
REMARK                         _______ _______ _______ _____ _____    ______ ____
ROOT
ATOM      1  C   UNL     1      -0.052  -2.667   2.320  0.00  0.00    +0.251 C 
ATOM      2  O   UNL     1       1.043  -2.903   2.792  0.00  0.00    -0.270 OA
ATOM      3  N   UNL     1      -1.165  -3.090   2.953  0.00  0.00    -0.296 N 
ATOM      4  C   UNL     1      -2.574  -2.905   2.533  0.00  0.00    +0.121 C 
ATOM      5  C   UNL     1      -3.264  -4.243   2.884  0.00  0.00    +0.100 C 
ATOM      6  C   UNL     1      -2.394  -4.853   3.996  0.00  0.00    -0.004 C 
ATOM      7  C   UNL     1      -1.254  -3.850   4.223  0.00  0.00    +0.115 C 
ATOM      8  C   UNL     1      -1.826  -6.196   3.546  0.00  0.00    -0.010 C 
ATOM      9  C   UNL     1      -1.012  -6.809   4.689  0.00  0.00    -0.082 C 
ATOM     10  N   UNL     1      -1.874  -6.989   5.863  0.00  0.00    +0.379 N 
ATOM     11  C   UNL     1      -2.342  -5.684   6.346  0.00  0.00    -0.082 C 
ATOM     12  C   UNL     1      -3.212  -5.023   5.273  0.00  0.00    -0.010 C 
ATOM     13  H   UNL     1      -2.668  -7.558   5.612  0.00  0.00    -0.086 HD
ATOM     14  H   UNL     1      -1.352  -7.449   6.594  0.00  0.00    -0.086 HD
ENDROOT
BRANCH   1  20
ATOM     15  C   UNL     1      -0.469   1.676  -0.109  0.00  0.00    +0.047 C 
ATOM     16  C   UNL     1      -0.365   0.173  -0.122  0.00  0.00    -0.014 A 
ATOM     17  C   UNL     1      -0.374  -0.509  -1.325  0.00  0.00    +0.007 A 
ATOM     18  C   UNL     1      -0.279  -1.889  -1.348  0.00  0.00    +0.021 A 
ATOM     19  C   UNL     1      -0.174  -2.598  -0.167  0.00  0.00    +0.056 A 
ATOM     20  C   UNL     1      -0.164  -1.917   1.053  0.00  0.00    +0.091 A 
ATOM     21  C   UNL     1      -0.255  -0.521   1.068  0.00  0.00    +0.140 A 
ATOM     22  F   UNL     1      -0.241   0.146   2.243  0.00  0.00    -0.204 F 
ATOM     23 CL   UNL     1      -0.056  -4.329  -0.199  0.00  0.00    -0.083 Cl
ENDBRANCH   1  20
BRANCH   5  24
ATOM     24  C   UNL     1      -3.292  -5.150   1.680  0.00  0.00    +0.218 C 
ATOM     25  O   UNL     1      -2.423  -5.067   0.838  0.00  0.00    -0.275 OA
ATOM     26  N   UNL     1      -4.284  -6.051   1.539  0.00  0.00    -0.312 N 
ATOM     27  H   UNL     1      -4.979  -6.117   2.213  0.00  0.00    +0.149 HD
BRANCH  26  28
ATOM     28  C   UNL     1      -4.312  -6.933   0.369  0.00  0.00    +0.070 C 
ATOM     29  C   UNL     1      -4.999  -6.214  -0.794  0.00  0.00    +0.028 C 
BRANCH  28  30
ATOM     30  C   UNL     1      -5.086  -8.208   0.710  0.00  0.00    +0.026 C 
BRANCH  30  31
ATOM     31  C   UNL     1      -4.332  -8.990   1.788  0.00  0.00    +0.037 C 
BRANCH  31  32
ATOM     32  C   UNL     1      -5.095 -10.246   2.123  0.00  0.00    -0.047 A 
ATOM     33  C   UNL     1      -6.049 -10.227   3.123  0.00  0.00    +0.007 A 
ATOM     34  C   UNL     1      -6.749 -11.377   3.432  0.00  0.00    +0.046 A 
ATOM     35  C   UNL     1      -6.494 -12.551   2.739  0.00  0.00    +0.120 A 
ATOM     36  C   UNL     1      -5.536 -12.567   1.735  0.00  0.00    +0.046 A 
ATOM     37  C   UNL     1      -4.842 -11.413   1.426  0.00  0.00    +0.007 A 
BRANCH  35  38
ATOM     38  O   UNL     1      -7.180 -13.684   3.042  0.00  0.00    -0.495 OA
ATOM     39  C   UNL     1      -6.865 -14.856   2.286  0.00  0.00    +0.277 C 
ENDBRANCH  35  38
ENDBRANCH  31  32
ENDBRANCH  30  31
ENDBRANCH  28  30
ENDBRANCH  26  28
ENDBRANCH   5  24
TORSDOF 7
