REMARK  Name = ZINC00603253
REMARK  6 active torsions:
REMARK  status: ('A' for Active; 'I' for Inactive)
REMARK    1  A    between atoms: C_1  and  C_2
REMARK    2  A    between atoms: C_15  and  C_16
REMARK    3  A    between atoms: C_15  and  C_17
REMARK    4  A    between atoms: C_30  and  C_32
REMARK    5  A    between atoms: C_30  and  C_33
REMARK    6  A    between atoms: N_34  and  C_37
REMARK                            x       y       z     vdW  Elec       q    Type
REMARK                         _______ _______ _______ _____ _____    ______ ____
ROOT
ATOM      1  C   UNL     1      -0.018   1.514   0.010  0.00  0.00    +0.006 C 
ATOM      2  C   UNL     1       0.002  -0.004   0.002  0.00  0.00    -0.018 C 
ATOM      3  C   UNL     1       0.756  -0.572  -1.230  0.00  0.00    -0.016 C 
ATOM      4  C   UNL     1       1.615  -1.735  -0.655  0.00  0.00    -0.077 C 
ATOM      5  N   UNL     1       0.999  -2.002   0.663  0.00  0.00    +0.391 N 
ATOM      6  C   UNL     1       0.750  -0.622   1.178  0.00  0.00    +0.016 C 
ATOM      7  C   UNL     1      -0.070  -0.763   2.458  0.00  0.00    +0.003 C 
ATOM      8  C   UNL     1       0.837  -1.383   3.495  0.00  0.00    +0.017 C 
ATOM      9  C   UNL     1       2.143  -1.873   2.826  0.00  0.00    +0.027 C 
ATOM     10  C   UNL     1       1.858  -2.720   1.586  0.00  0.00    -0.051 C 
ATOM     11  C   UNL     1       2.801  -2.722   3.907  0.00  0.00    +0.045 C 
ATOM     12  C   UNL     1       1.631  -3.324   4.710  0.00  0.00    +0.081 C 
ATOM     13  C   UNL     1       0.349  -2.561   4.325  0.00  0.00    -0.012 C 
ATOM     14  C   UNL     1      -0.622  -3.459   3.562  0.00  0.00    +0.012 C 
ATOM     15  C   UNL     1      -0.352  -2.035   5.589  0.00  0.00    +0.012 C 
ATOM     16  C   UNL     1       1.512  -4.793   4.483  0.00  0.00    -0.007 A 
ATOM     17  C   UNL     1       1.595  -5.578   3.353  0.00  0.00    +0.010 A 
ATOM     18  C   UNL     1       1.364  -6.941   3.495  0.00  0.00    +0.050 A 
ATOM     19  C   UNL     1       1.085  -7.502   4.736  0.00  0.00    +0.166 A 
ATOM     20  C   UNL     1       1.087  -6.724   5.879  0.00  0.00    +0.190 A 
ATOM     21  C   UNL     1       1.333  -5.359   5.758  0.00  0.00    +0.084 A 
ATOM     22  N   UNL     1       1.528  -4.396   6.734  0.00  0.00    -0.281 N 
ATOM     23  C   UNL     1       1.889  -3.208   6.195  0.00  0.00    +0.228 C 
ATOM     24  O   UNL     1       2.349  -2.256   6.784  0.00  0.00    -0.274 OA
ATOM     25  O   UNL     1       0.853  -7.316   7.075  0.00  0.00    -0.458 OA
ATOM     26  C   UNL     1      -0.318  -7.936   7.302  0.00  0.00    +0.195 C 
ATOM     27  C   UNL     1      -0.906  -8.770   6.511  0.00  0.00    +0.058 C 
ATOM     28  C   UNL     1      -0.482  -9.258   5.163  0.00  0.00    +0.126 C 
ATOM     29  O   UNL     1       0.824  -8.828   4.817  0.00  0.00    -0.478 OA
ATOM     30  C   UNL     1      -0.513 -10.789   5.153  0.00  0.00    +0.060 C 
ATOM     31  C   UNL     1      -1.468  -8.742   4.112  0.00  0.00    +0.060 C 
ATOM     32  N   UNL     1       2.863  -0.674   2.389  0.00  0.00    -0.301 N 
ATOM     33  C   UNL     1       2.086   0.019   1.461  0.00  0.00    +0.206 C 
ATOM     34  O   UNL     1       2.506   1.033   0.949  0.00  0.00    -0.277 OA
ATOM     35  C   UNL     1       4.189  -0.249   2.839  0.00  0.00    +0.132 C 
ATOM     36  H   UNL     1       1.419  -4.550   7.684  0.00  0.00    +0.155 HD
ATOM     37  H   UNL     1       0.129  -2.481   0.545  0.00  0.00    -0.080 HD
ENDROOT
TORSDOF 0
