REMARK  Name = ZINC27908450
REMARK  11 active torsions:
REMARK  status: ('A' for Active; 'I' for Inactive)
REMARK    1  A    between atoms: C_1  and  C_2
REMARK    2  A    between atoms: C_2  and  N_3
REMARK    3  A    between atoms: N_3  and  C_4
REMARK    4  A    between atoms: N_3  and  C_6
REMARK    5  A    between atoms: C_4  and  C_5
REMARK    6  A    between atoms: C_9  and  C_12
REMARK    7  A    between atoms: C_12  and  N_13
REMARK    8  A    between atoms: C_14  and  C_28
REMARK    9  A    between atoms: C_18  and  C_20
REMARK   10  A    between atoms: C_23  and  O_27
REMARK   11  A    between atoms: C_24  and  O_26
REMARK                            x       y       z     vdW  Elec       q    Type
REMARK                         _______ _______ _______ _____ _____    ______ ____
ROOT
ATOM      1  N   UNL     1      -0.845   1.631   0.537  0.00  0.00    +0.402 N 
ATOM      2  C   UNL     1      -1.126   2.938   1.160  0.00  0.00    +0.059 C 
ATOM      3  C   UNL     1      -1.689   2.694   2.592  0.00  0.00    +0.064 C 
ATOM      4  S   UNL     1      -2.773   1.242   2.244  0.00  0.00    -0.173 S 
ATOM      5  C   UNL     1      -1.989   0.692   0.671  0.00  0.00    +0.024 C 
ATOM      6  H   UNL     1       0.011   1.196   1.073  0.00  0.00    -0.078 HD
ENDROOT
BRANCH   5   7
ATOM      7  C   UNL     1      -1.505  -0.730   0.783  0.00  0.00    -0.048 A 
ATOM      8  C   UNL     1      -0.274  -0.997   1.354  0.00  0.00    +0.006 A 
ATOM      9  C   UNL     1       0.172  -2.300   1.464  0.00  0.00    +0.049 A 
ATOM     10  C   UNL     1      -0.609  -3.343   0.992  0.00  0.00    +0.158 A 
ATOM     11  C   UNL     1      -1.845  -3.074   0.411  0.00  0.00    +0.158 A 
ATOM     12  C   UNL     1      -2.289  -1.766   0.309  0.00  0.00    +0.052 A 
BRANCH  11  13
ATOM     13  O   UNL     1      -2.615  -4.093  -0.054  0.00  0.00    -0.503 OA
ATOM     14  H   UNL     1      -3.592  -3.880  -0.512  0.00  0.00    +0.292 HD
ENDBRANCH  11  13
BRANCH  10  15
ATOM     15  O   UNL     1      -0.168  -4.625   1.094  0.00  0.00    -0.503 OA
ATOM     16  H   UNL     1      -0.789  -5.452   0.718  0.00  0.00    +0.292 HD
ENDBRANCH  10  15
ENDBRANCH   5   7
BRANCH   2  17
ATOM     17  C   UNL     1       0.144   3.744   1.244  0.00  0.00    +0.344 C 
ATOM     18  O   UNL     1       1.215   3.184   1.247  0.00  0.00    -0.248 OA
ATOM     19  O   UNL     1       0.086   5.083   1.316  0.00  0.00    -0.248 OA
ENDBRANCH   2  17
BRANCH   1  20
ATOM     20  C   UNL     1      -0.458   1.792  -0.871  0.00  0.00    -0.040 C 
BRANCH  20  24
ATOM     21  C   UNL     1      -3.553   3.858  -2.972  0.00  0.00    +0.030 A 
ATOM     22  C   UNL     1      -2.537   4.573  -2.351  0.00  0.00    +0.023 A 
ATOM     23  C   UNL     1      -1.538   3.902  -1.673  0.00  0.00    +0.003 A 
ATOM     24  C   UNL     1      -1.549   2.520  -1.612  0.00  0.00    -0.064 A 
ATOM     25  C   UNL     1      -2.557   1.806  -2.234  0.00  0.00    +0.003 A 
ATOM     26  C   UNL     1      -3.561   2.471  -2.909  0.00  0.00    +0.023 A 
BRANCH  21  27
ATOM     27  N   UNL     1      -4.565   4.534  -3.659  0.00  0.00    -0.330 N 
BRANCH  27  29
ATOM     28  C   UNL     1      -6.791   3.575  -3.330  0.00  0.00    +0.024 C 
ATOM     29  C   UNL     1      -5.636   3.779  -4.313  0.00  0.00    +0.102 C 
ENDBRANCH  27  29
BRANCH  27  30
ATOM     30  C   UNL     1      -4.555   5.997  -3.724  0.00  0.00    +0.102 C 
ATOM     31  C   UNL     1      -3.770   6.448  -4.958  0.00  0.00    +0.024 C 
ENDBRANCH  27  30
ENDBRANCH  21  27
ENDBRANCH  20  24
ENDBRANCH   1  20
TORSDOF 9
