REMARK  Name = ZINC39015745
REMARK  10 active torsions:
REMARK  status: ('A' for Active; 'I' for Inactive)
REMARK    1  A    between atoms: C_1  and  C_2
REMARK    2  A    between atoms: C_5  and  C_9
REMARK    3  A    between atoms: C_6  and  O_8
REMARK    4  A    between atoms: C_12  and  C_14
REMARK    5  A    between atoms: N_16  and  C_17
REMARK    6  A    between atoms: C_19  and  C_30
REMARK    7  A    between atoms: N_32  and  C_33
REMARK    8  A    between atoms: C_33  and  C_34
REMARK    9  A    between atoms: C_34  and  O_35
REMARK   10  A    between atoms: O_35  and  C_36
REMARK                            x       y       z     vdW  Elec       q    Type
REMARK                         _______ _______ _______ _____ _____    ______ ____
ROOT
ATOM      1  C   UNL     1      -0.175  -8.011  -1.540  0.00  0.00    +0.261 C 
ATOM      2  O   UNL     1      -0.194  -8.187  -2.743  0.00  0.00    -0.269 OA
ATOM      3  N   UNL     1      -0.058  -9.063  -0.706  0.00  0.00    -0.298 N 
ATOM      4  H   UNL     1      -0.043  -8.922   0.254  0.00  0.00    +0.150 HD
ENDROOT
BRANCH   3   5
ATOM      5  C   UNL     1       0.046 -10.419  -1.248  0.00  0.00    +0.144 C 
ATOM      6  C   UNL     1       1.122 -11.227  -0.493  0.00  0.00    +0.109 C 
ATOM      7  C   UNL     1       0.588 -12.557   0.074  0.00  0.00    +0.016 C 
ATOM      8  C   UNL     1       0.694 -13.583  -1.058  0.00  0.00    +0.005 C 
ATOM      9  C   UNL     1      -0.025 -14.879  -0.702  0.00  0.00    +0.000 C 
ATOM     10  C   UNL     1      -1.517 -14.567  -0.529  0.00  0.00    +0.001 C 
ATOM     11  C   UNL     1      -1.662 -13.634   0.672  0.00  0.00    +0.014 C 
ATOM     12  C   UNL     1      -0.874 -12.353   0.521  0.00  0.00    +0.052 C 
ATOM     13  S   UNL     1      -1.501 -11.370  -0.928  0.00  0.00    -0.134 S 
BRANCH   6  14
ATOM     14  C   UNL     1       2.257 -11.527  -1.438  0.00  0.00    +0.219 C 
ATOM     15  O   UNL     1       2.047 -11.617  -2.629  0.00  0.00    -0.275 OA
ATOM     16  N   UNL     1       3.506 -11.696  -0.960  0.00  0.00    -0.313 N 
ATOM     17  H   UNL     1       3.674 -11.625  -0.007  0.00  0.00    +0.149 HD
BRANCH  16  18
ATOM     18  C   UNL     1       4.609 -11.988  -1.879  0.00  0.00    +0.132 C 
BRANCH  18  19
ATOM     19  C   UNL     1       5.909 -12.132  -1.085  0.00  0.00    +0.178 C 
BRANCH  19  20
ATOM     20  O   UNL     1       5.820 -13.272  -0.228  0.00  0.00    -0.381 OA
ATOM     21  C   UNL     1       6.989 -13.498   0.562  0.00  0.00    +0.194 C 
ENDBRANCH  19  20
ENDBRANCH  18  19
ENDBRANCH  16  18
ENDBRANCH   6  14
ENDBRANCH   3   5
BRANCH   1  25
ATOM     22  C   UNL     1      -0.475  -4.332  -0.649  0.00  0.00    +0.080 C 
ATOM     23  N   UNL     1      -0.380  -5.040   0.454  0.00  0.00    -0.153 NA
ATOM     24  N   UNL     1      -0.275  -6.296   0.262  0.00  0.00    -0.148 NA
ATOM     25  C   UNL     1      -0.280  -6.653  -0.996  0.00  0.00    +0.131 C 
ATOM     26  C   UNL     1      -0.423  -5.354  -1.773  0.00  0.00    +0.120 C 
BRANCH  22  31
ATOM     27  C   UNL     1      -1.000   1.371  -1.126  0.00  0.00    +0.044 C 
ATOM     28  C   UNL     1      -0.862  -0.125  -0.997  0.00  0.00    -0.047 A 
ATOM     29  C   UNL     1      -0.830  -0.914  -2.136  0.00  0.00    +0.004 A 
ATOM     30  C   UNL     1      -0.705  -2.280  -2.033  0.00  0.00    +0.013 A 
ATOM     31  C   UNL     1      -0.608  -2.879  -0.769  0.00  0.00    +0.040 A 
ATOM     32  C   UNL     1      -0.640  -2.073   0.384  0.00  0.00    +0.126 A 
ATOM     33  C   UNL     1      -0.762  -0.698   0.256  0.00  0.00    +0.049 A 
BRANCH  32  34
ATOM     34  O   UNL     1      -0.548  -2.638   1.613  0.00  0.00    -0.506 OA
ATOM     35  H   UNL     1       0.358  -2.723   1.940  0.00  0.00    +0.292 HD
ENDBRANCH  32  34
ENDBRANCH  22  31
ENDBRANCH   1  25
TORSDOF 8
