REMARK  Name = ZINC49030555
REMARK  4 active torsions:
REMARK  status: ('A' for Active; 'I' for Inactive)
REMARK    1  A    between atoms: C_4  and  N_8
REMARK    2  A    between atoms: N_11  and  C_12
REMARK    3  A    between atoms: C_12  and  C_13
REMARK    4  A    between atoms: C_13  and  C_14
REMARK                            x       y       z     vdW  Elec       q    Type
REMARK                         _______ _______ _______ _____ _____    ______ ____
ROOT
ATOM      1  N   UNL     1       3.623  -0.651  -0.037  0.00  0.00    -0.268 N 
ATOM      2  C   UNL     1       3.646  -1.995   0.058  0.00  0.00    +0.304 C 
ATOM      3  O   UNL     1       2.604  -2.622   0.065  0.00  0.00    -0.253 OA
ATOM      4  N   UNL     1       4.824  -2.644   0.144  0.00  0.00    -0.299 N 
ATOM      5  H   UNL     1       4.452  -0.157  -0.124  0.00  0.00    +0.156 HD
ATOM      6  H   UNL     1       5.655  -2.144   0.138  0.00  0.00    +0.150 HD
ENDROOT
BRANCH   1  10
ATOM      7  C   UNL     1      -0.015   1.381   0.048  0.00  0.00    +0.016 A 
ATOM      8  C   UNL     1       1.082   1.956  -0.568  0.00  0.00    +0.017 A 
ATOM      9  C   UNL     1       2.289   1.284  -0.597  0.00  0.00    +0.035 A 
ATOM     10  C   UNL     1       2.401   0.031  -0.008  0.00  0.00    +0.049 A 
ATOM     11  C   UNL     1       1.298  -0.542   0.610  0.00  0.00    +0.039 A 
ATOM     12  C   UNL     1       0.093   0.134   0.636  0.00  0.00    +0.020 A 
ATOM     13 BR   UNL     1      -1.410  -0.647   1.477  0.00  0.00    -0.050 Br
ATOM     14  I   UNL     1       3.950   2.155  -1.531  0.00  0.00    -0.042 I 
ENDBRANCH   1  10
BRANCH   4  15
ATOM     15  C   UNL     1       4.849  -4.106   0.246  0.00  0.00    +0.110 C 
BRANCH  15  16
ATOM     16  C   UNL     1       6.299  -4.586   0.331  0.00  0.00    +0.054 C 
BRANCH  16  17
ATOM     17  C   UNL     1       6.325  -6.089   0.436  0.00  0.00    -0.039 A 
ATOM     18  C   UNL     1       6.291  -6.706   1.672  0.00  0.00    +0.011 A 
ATOM     19  C   UNL     1       6.316  -8.060   1.732  0.00  0.00    +0.045 A 
ATOM     20  S   UNL     1       6.390  -8.505   0.005  0.00  0.00    -0.105 S 
ATOM     21  C   UNL     1       6.378  -6.856  -0.680  0.00  0.00    +0.048 A 
ENDBRANCH  16  17
ENDBRANCH  15  16
ENDBRANCH   4  15
TORSDOF 4
