REMARK  Name = ZINC46583349
REMARK  17 active torsions:
REMARK  status: ('A' for Active; 'I' for Inactive)
REMARK    1  A    between atoms: C_1  and  C_2
REMARK    2  A    between atoms: C_2  and  C_3
REMARK    3  A    between atoms: C_2  and  C_4
REMARK    4  A    between atoms: C_4  and  N_5
REMARK    5  A    between atoms: C_6  and  N_36
REMARK    6  A    between atoms: C_7  and  N_14
REMARK    7  A    between atoms: N_14  and  C_15
REMARK    8  A    between atoms: C_15  and  C_16
REMARK    9  A    between atoms: C_16  and  C_17
REMARK   10  A    between atoms: C_16  and  C_18
REMARK   11  A    between atoms: C_19  and  C_21
REMARK   12  A    between atoms: C_21  and  N_22
REMARK   13  A    between atoms: N_22  and  C_23
REMARK   14  A    between atoms: N_22  and  C_24
REMARK   15  A    between atoms: C_24  and  C_25
REMARK   16  A    between atoms: C_28  and  O_31
REMARK   17  A    between atoms: O_31  and  C_32
REMARK                            x       y       z     vdW  Elec       q    Type
REMARK                         _______ _______ _______ _____ _____    ______ ____
ROOT
ATOM      1  N   UNL     1      -1.943  -4.773  -2.748  0.00  0.00    -0.266 N 
ATOM      2  C   UNL     1      -1.542  -3.909  -3.704  0.00  0.00    +0.203 C 
ATOM      3  O   UNL     1      -1.408  -2.732  -3.439  0.00  0.00    -0.277 OA
ENDROOT
BRANCH   1   6
ATOM      4  N   UNL     1      -1.234  -3.400   0.586  0.00  0.00    -0.280 N 
ATOM      5  C   UNL     1      -1.040  -3.826  -0.708  0.00  0.00    +0.127 A 
ATOM      6  C   UNL     1      -2.110  -4.329  -1.420  0.00  0.00    +0.140 A 
ATOM      7  C   UNL     1      -3.371  -4.390  -0.798  0.00  0.00    +0.277 A 
ATOM      8  O   UNL     1      -4.333  -4.830  -1.403  0.00  0.00    -0.266 OA
ATOM      9  N   UNL     1      -3.507  -3.959   0.472  0.00  0.00    -0.273 N 
ATOM     10  H   UNL     1      -4.376  -4.001   0.902  0.00  0.00    +0.173 HD
ATOM     11  C   UNL     1      -2.452  -3.478   1.152  0.00  0.00    +0.331 A 
ATOM     12  O   UNL     1      -2.602  -3.101   2.298  0.00  0.00    -0.246 OA
BRANCH   5  13
ATOM     13  N   UNL     1       0.206  -3.752  -1.284  0.00  0.00    -0.343 N 
ATOM     14  H   UNL     1       0.932  -3.313  -0.815  0.00  0.00    +0.144 HD
ATOM     15  H   UNL     1       0.358  -4.139  -2.161  0.00  0.00    +0.144 HD
ENDBRANCH   5  13
BRANCH   4  16
ATOM     16  C   UNL     1      -0.107  -2.865   1.353  0.00  0.00    +0.131 C 
BRANCH  16  18
ATOM     17  C   UNL     1       1.841  -3.467   2.797  0.00  0.00    +0.009 C 
ATOM     18  C   UNL     1       0.592  -4.005   2.097  0.00  0.00    +0.003 C 
ATOM     19  C   UNL     1      -0.362  -4.595   3.137  0.00  0.00    +0.009 C 
ENDBRANCH  16  18
ENDBRANCH   4  16
ENDBRANCH   1   6
BRANCH   1  20
ATOM     20  C   UNL     1      -2.204  -6.174  -3.090  0.00  0.00    +0.117 C 
BRANCH  20  21
ATOM     21  C   UNL     1      -0.891  -6.960  -3.058  0.00  0.00    +0.001 C 
ATOM     22  C   UNL     1      -0.365  -7.014  -1.622  0.00  0.00    +0.009 C 
ATOM     23  C   UNL     1      -1.136  -8.382  -3.566  0.00  0.00    +0.009 C 
ENDBRANCH  20  21
ENDBRANCH   1  20
BRANCH   2  24
ATOM     24  C   UNL     1      -1.263  -4.404  -5.099  0.00  0.00    +0.019 C 
BRANCH  24  25
ATOM     25  N   UNL     1      -0.985  -3.260  -5.978  0.00  0.00    +0.386 N 
ATOM     26  C   UNL     1      -2.189  -2.428  -6.095  0.00  0.00    -0.095 C 
ATOM     27  H   UNL     1      -0.233  -2.712  -5.588  0.00  0.00    -0.081 HD
BRANCH  25  28
ATOM     28  C   UNL     1      -0.595  -3.748  -7.308  0.00  0.00    -0.043 C 
BRANCH  28  29
ATOM     29  C   UNL     1      -0.191  -2.582  -8.173  0.00  0.00    -0.064 A 
ATOM     30  C   UNL     1      -1.140  -1.929  -8.938  0.00  0.00    +0.005 A 
ATOM     31  C   UNL     1      -0.772  -0.860  -9.732  0.00  0.00    +0.046 A 
ATOM     32  C   UNL     1       0.550  -0.441  -9.760  0.00  0.00    +0.130 A 
ATOM     33  C   UNL     1       1.500  -1.097  -8.991  0.00  0.00    +0.046 A 
ATOM     34  C   UNL     1       1.126  -2.163  -8.195  0.00  0.00    +0.005 A 
BRANCH  32  35
ATOM     35  O   UNL     1       0.914   0.610 -10.541  0.00  0.00    -0.406 OA
BRANCH  35  36
ATOM     36  C   UNL     1       2.292   0.986 -10.521  0.00  0.00    +0.575 C 
ATOM     37  F   UNL     1       3.076  -0.090 -10.950  0.00  0.00    -0.133 F 
ATOM     38  F   UNL     1       2.491   2.077 -11.374  0.00  0.00    -0.133 F 
ATOM     39  F   UNL     1       2.660   1.340  -9.218  0.00  0.00    -0.133 F 
ENDBRANCH  35  36
ENDBRANCH  32  35
ENDBRANCH  28  29
ENDBRANCH  25  28
ENDBRANCH  24  25
ENDBRANCH   2  24
TORSDOF 12
