REMARK  Name = ZINC13828385
REMARK  8 active torsions:
REMARK  status: ('A' for Active; 'I' for Inactive)
REMARK    1  A    between atoms: C_1  and  C_2
REMARK    2  A    between atoms: C_2  and  C_3
REMARK    3  A    between atoms: C_2  and  C_4
REMARK    4  A    between atoms: C_2  and  C_5
REMARK    5  A    between atoms: C_8  and  C_11
REMARK    6  A    between atoms: N_13  and  C_14
REMARK    7  A    between atoms: C_14  and  C_33
REMARK    8  A    between atoms: N_22  and  C_27
REMARK                            x       y       z     vdW  Elec       q    Type
REMARK                         _______ _______ _______ _____ _____    ______ ____
ROOT
ATOM      1  C   UNL     1       5.042  -1.754  -4.663  0.00  0.00    +0.240 C 
ATOM      2  C   UNL     1       6.288  -1.474  -5.469  0.00  0.00    +0.097 A 
ATOM      3  C   UNL     1       6.755  -0.344  -6.152  0.00  0.00    +0.262 A 
ATOM      4  O   UNL     1       6.098   0.683  -6.163  0.00  0.00    -0.267 OA
ATOM      5  N   UNL     1       7.938  -0.403  -6.798  0.00  0.00    -0.274 N 
ATOM      6  H   UNL     1       8.269   0.375  -7.273  0.00  0.00    +0.173 HD
ATOM      7  C   UNL     1       8.659  -1.539  -6.784  0.00  0.00    +0.335 A 
ATOM      8  O   UNL     1       9.723  -1.575  -7.371  0.00  0.00    -0.246 OA
ATOM      9  N   UNL     1       8.229  -2.634  -6.135  0.00  0.00    -0.249 N 
ATOM     10  C   UNL     1       7.024  -2.622  -5.459  0.00  0.00    +0.125 A 
ATOM     11  N   UNL     1       6.392  -3.606  -4.738  0.00  0.00    -0.269 N 
ATOM     12  C   UNL     1       5.217  -3.195  -4.228  0.00  0.00    +0.256 C 
ATOM     13  O   UNL     1       4.450  -3.849  -3.553  0.00  0.00    -0.272 OA
ATOM     14  H   UNL     1       6.752  -4.497  -4.611  0.00  0.00    +0.156 HD
ENDROOT
BRANCH   9  15
ATOM     15  C   UNL     1       9.008  -3.798  -6.144  0.00  0.00    +0.053 A 
ATOM     16  C   UNL     1       9.956  -4.009  -5.151  0.00  0.00    +0.026 A 
ATOM     17  C   UNL     1      10.723  -5.157  -5.162  0.00  0.00    +0.002 A 
ATOM     18  C   UNL     1      10.548  -6.097  -6.161  0.00  0.00    +0.000 A 
ATOM     19  C   UNL     1       9.605  -5.890  -7.152  0.00  0.00    +0.002 A 
ATOM     20  C   UNL     1       8.831  -4.747  -7.142  0.00  0.00    +0.026 A 
ENDBRANCH   9  15
BRANCH   1  23
ATOM     21  C   UNL     1       3.980  -1.016  -2.597  0.00  0.00    +0.245 C 
ATOM     22  O   UNL     1       3.144  -1.885  -2.752  0.00  0.00    -0.270 OA
ATOM     23  N   UNL     1       4.972  -0.868  -3.498  0.00  0.00    -0.287 N 
ATOM     24  H   UNL     1       5.639  -0.175  -3.375  0.00  0.00    +0.151 HD
BRANCH  21  28
ATOM     25  C   UNL     1       3.778   1.551   0.781  0.00  0.00    -0.042 A 
ATOM     26  C   UNL     1       2.824   0.564   0.608  0.00  0.00    +0.005 A 
ATOM     27  C   UNL     1       2.884  -0.274  -0.487  0.00  0.00    +0.013 A 
ATOM     28  C   UNL     1       3.910  -0.123  -1.422  0.00  0.00    +0.037 A 
ATOM     29  C   UNL     1       4.869   0.875  -1.241  0.00  0.00    +0.013 A 
ATOM     30  C   UNL     1       4.794   1.709  -0.145  0.00  0.00    +0.005 A 
BRANCH  25  32
ATOM     31  C   UNL     1       3.560   3.911   1.511  0.00  0.00    +0.015 C 
ATOM     32  C   UNL     1       3.706   2.462   1.979  0.00  0.00    -0.013 C 
ATOM     33  C   UNL     1       4.987   2.320   2.805  0.00  0.00    +0.015 C 
ATOM     34  C   UNL     1       2.500   2.079   2.839  0.00  0.00    +0.015 C 
ENDBRANCH  25  32
ENDBRANCH  21  28
ENDBRANCH   1  23
BRANCH   1  35
ATOM     35  C   UNL     1       3.790  -1.601  -5.529  0.00  0.00    +0.424 C 
ATOM     36  F   UNL     1       3.696  -0.281  -5.984  0.00  0.00    -0.167 F 
ATOM     37  F   UNL     1       3.873  -2.467  -6.625  0.00  0.00    -0.167 F 
ATOM     38  F   UNL     1       2.657  -1.915  -4.771  0.00  0.00    -0.167 F 
ENDBRANCH   1  35
TORSDOF 5
