REMARK  Name = ZINC27579129
REMARK  13 active torsions:
REMARK  status: ('A' for Active; 'I' for Inactive)
REMARK    1  A    between atoms: C_1  and  C_2
REMARK    2  A    between atoms: C_2  and  N_3
REMARK    3  A    between atoms: N_3  and  C_4
REMARK    4  A    between atoms: N_3  and  C_6
REMARK    5  A    between atoms: C_4  and  C_5
REMARK    6  A    between atoms: C_6  and  C_8
REMARK    7  A    between atoms: C_6  and  C_28
REMARK    8  A    between atoms: C_8  and  N_9
REMARK    9  A    between atoms: C_10  and  C_12
REMARK   10  A    between atoms: C_12  and  C_13
REMARK   11  A    between atoms: C_13  and  N_14
REMARK   12  A    between atoms: C_15  and  C_21
REMARK   13  A    between atoms: C_24  and  C_27
REMARK                            x       y       z     vdW  Elec       q    Type
REMARK                         _______ _______ _______ _____ _____    ______ ____
ROOT
ATOM      1  N   UNL     1       4.817   4.861   1.821  0.00  0.00    -0.316 N 
ATOM      2  C   UNL     1       5.072   4.627   3.124  0.00  0.00    +0.215 C 
ATOM      3  O   UNL     1       4.155   4.523   3.911  0.00  0.00    -0.276 OA
ATOM      4  H   UNL     1       5.649   4.955   1.107  0.00  0.00    +0.149 HD
ENDROOT
BRANCH   1   5
ATOM      5  C   UNL     1       3.434   4.991   1.357  0.00  0.00    +0.093 C 
BRANCH   5   6
ATOM      6  C   UNL     1       3.414   5.066  -0.171  0.00  0.00    -0.019 C 
BRANCH   6   7
ATOM      7  C   UNL     1       2.244   5.904  -0.618  0.00  0.00    -0.041 A 
ATOM      8  C   UNL     1       1.020   5.308  -0.861  0.00  0.00    +0.003 A 
ATOM      9  C   UNL     1      -0.053   6.077  -1.270  0.00  0.00    +0.000 A 
ATOM     10  C   UNL     1       0.098   7.440  -1.444  0.00  0.00    +0.001 A 
ATOM     11  C   UNL     1       1.319   8.037  -1.196  0.00  0.00    +0.020 A 
ATOM     12  C   UNL     1       2.394   7.269  -0.785  0.00  0.00    +0.043 A 
ATOM     13 CL   UNL     1       3.931   8.017  -0.480  0.00  0.00    -0.083 Cl
ENDBRANCH   6   7
BRANCH   6  14
ATOM     14  N   UNL     1       3.287   3.712  -0.727  0.00  0.00    +0.385 N 
ATOM     15  H   UNL     1       2.231   3.413  -0.650  0.00  0.00    -0.081 HD
BRANCH  14  17
ATOM     16  C   UNL     1       2.529   4.290  -2.982  0.00  0.00    -0.017 C 
ATOM     17  C   UNL     1       3.661   3.688  -2.147  0.00  0.00    -0.081 C 
ENDBRANCH  14  17
BRANCH  14  18
ATOM     18  C   UNL     1       4.086   2.749   0.044  0.00  0.00    -0.081 C 
ATOM     19  C   UNL     1       3.171   1.971   0.993  0.00  0.00    -0.017 C 
ENDBRANCH  14  18
ENDBRANCH   6  14
ENDBRANCH   5   6
ENDBRANCH   1   5
BRANCH   2  20
ATOM     20  C   UNL     1       6.495   4.494   3.602  0.00  0.00    +0.117 C 
BRANCH  20  21
ATOM     21  C   UNL     1       6.504   4.233   5.109  0.00  0.00    +0.135 C 
BRANCH  21  22
ATOM     22  N   UNL     1       7.888   4.103   5.574  0.00  0.00    -0.303 N 
ATOM     23  C   UNL     1       8.571   2.918   5.761  0.00  0.00    +0.163 A 
ATOM     24  N   UNL     1       9.775   3.194   6.177  0.00  0.00    -0.153 NA
ATOM     25  N   UNL     1       9.890   4.588   6.276  0.00  0.00    -0.254 N 
ATOM     26  H   UNL     1      10.834   5.038   6.617  0.00  0.00    +0.191 HD
ATOM     27  C   UNL     1       8.711   5.121   5.897  0.00  0.00    +0.176 A 
ATOM     28  S   UNL     1       8.328   6.788   5.837  0.00  0.00    -0.011 S 
BRANCH  23  29
ATOM     29  C   UNL     1       8.028   1.561   5.525  0.00  0.00    +0.019 A 
ATOM     30  C   UNL     1       8.597   0.459   6.163  0.00  0.00    +0.012 A 
ATOM     31  C   UNL     1       8.083  -0.803   5.943  0.00  0.00    +0.004 A 
ATOM     32  C   UNL     1       7.013  -0.977   5.083  0.00  0.00    -0.050 A 
ATOM     33  C   UNL     1       6.449   0.112   4.443  0.00  0.00    +0.004 A 
ATOM     34  C   UNL     1       6.950   1.379   4.659  0.00  0.00    +0.012 A 
ATOM     35  C   UNL     1       6.461  -2.358   4.843  0.00  0.00    +0.044 C 
ENDBRANCH  23  29
ENDBRANCH  21  22
ENDBRANCH  20  21
ENDBRANCH   2  20
TORSDOF 10
