REMARK  Name = ZINC39357943
REMARK  4 active torsions:
REMARK  status: ('A' for Active; 'I' for Inactive)
REMARK    1  A    between atoms: C_13  and  N_19
REMARK    2  A    between atoms: N_19  and  C_20
REMARK    3  A    between atoms: C_20  and  C_21
REMARK    4  A    between atoms: C_26  and  C_27
REMARK                            x       y       z     vdW  Elec       q    Type
REMARK                         _______ _______ _______ _____ _____    ______ ____
ROOT
ATOM      1  N   UNL     1       3.619  -5.996   0.110  0.00  0.00    +0.382 N 
ATOM      2  H   UNL     1       4.383  -5.337   0.119  0.00  0.00    -0.085 HD
ATOM      3  H   UNL     1       3.337  -6.197   1.057  0.00  0.00    -0.085 HD
ENDROOT
BRANCH   1  15
ATOM      4  C   UNL     1      -0.017   1.379   0.010  0.00  0.00    +0.005 A 
ATOM      5  C   UNL     1       1.195   2.058   0.002  0.00  0.00    +0.020 A 
ATOM      6  C   UNL     1       2.373   1.339  -0.013  0.00  0.00    +0.113 A 
ATOM      7  N   UNL     1       2.361   0.020  -0.020  0.00  0.00    -0.239 NA
ATOM      8  C   UNL     1       1.227  -0.664  -0.013  0.00  0.00    +0.141 A 
ATOM      9  C   UNL     1       0.002  -0.004   0.002  0.00  0.00    +0.045 A 
ATOM     10  N   UNL     1       1.261  -2.054  -0.021  0.00  0.00    -0.204 N 
ATOM     11  C   UNL     1       2.485  -2.894  -0.032  0.00  0.00    +0.107 C 
ATOM     12  C   UNL     1       3.205  -2.643  -1.341  0.00  0.00    +0.025 C 
ATOM     13  C   UNL     1       3.967  -3.862  -1.841  0.00  0.00    +0.000 C 
ATOM     14  C   UNL     1       2.964  -5.010  -2.017  0.00  0.00    -0.015 C 
ATOM     15  C   UNL     1       2.486  -5.422  -0.628  0.00  0.00    -0.062 C 
ATOM     16  C   UNL     1       1.928  -4.284   0.177  0.00  0.00    +0.040 C 
ATOM     17  C   UNL     1       0.433  -4.138   0.073  0.00  0.00    +0.107 C 
ATOM     18  N   UNL     1       0.151  -2.898  -0.015  0.00  0.00    -0.190 NA
ENDBRANCH   1  15
BRANCH   1  19
ATOM     19  C   UNL     1       4.052  -7.237  -0.546  0.00  0.00    -0.067 C 
BRANCH  19  20
ATOM     20  C   UNL     1       5.232  -7.835   0.223  0.00  0.00    +0.066 C 
ATOM     21  C   UNL     1       6.463  -6.963   0.075  0.00  0.00    +0.115 C 
ATOM     22  N   UNL     1       7.355  -7.695  -0.509  0.00  0.00    -0.161 NA
ATOM     23  N   UNL     1       6.892  -8.977  -0.787  0.00  0.00    -0.153 NA
ATOM     24  C   UNL     1       5.657  -9.154  -0.392  0.00  0.00    +0.077 C 
BRANCH  24  25
ATOM     25  C   UNL     1       4.848 -10.376  -0.519  0.00  0.00    -0.001 A 
ATOM     26  C   UNL     1       3.531 -10.399  -0.048  0.00  0.00    +0.011 A 
ATOM     27  C   UNL     1       2.778 -11.547  -0.170  0.00  0.00    +0.020 A 
ATOM     28  C   UNL     1       3.323 -12.677  -0.757  0.00  0.00    +0.041 A 
ATOM     29  C   UNL     1       4.627 -12.662  -1.226  0.00  0.00    +0.020 A 
ATOM     30  C   UNL     1       5.389 -11.520  -1.116  0.00  0.00    +0.011 A 
ATOM     31 CL   UNL     1       2.368 -14.119  -0.907  0.00  0.00    -0.084 Cl
ENDBRANCH  24  25
ENDBRANCH  19  20
ENDBRANCH   1  19
TORSDOF 4
