REMARK  Name = ZINC19880795
REMARK  6 active torsions:
REMARK  status: ('A' for Active; 'I' for Inactive)
REMARK    1  A    between atoms: N_7  and  C_8
REMARK    2  A    between atoms: C_8  and  C_10
REMARK    3  A    between atoms: C_8  and  C_17
REMARK    4  A    between atoms: C_18  and  O_26
REMARK    5  A    between atoms: C_22  and  C_24
REMARK    6  A    between atoms: C_24  and  O_25
REMARK                            x       y       z     vdW  Elec       q    Type
REMARK                         _______ _______ _______ _____ _____    ______ ____
ROOT
ATOM      1  C   UNL     1       1.185   1.504   2.469  0.00  0.00    +0.172 C 
ENDROOT
BRANCH   1   8
ATOM      2  C   UNL     1      -0.090  -1.024   5.566  0.00  0.00    +0.005 A 
ATOM      3  C   UNL     1       0.862  -1.602   6.395  0.00  0.00    +0.020 A 
ATOM      4  C   UNL     1       2.199  -1.333   6.182  0.00  0.00    +0.113 A 
ATOM      5  N   UNL     1       2.580  -0.535   5.202  0.00  0.00    -0.240 NA
ATOM      6  C   UNL     1       1.704   0.036   4.390  0.00  0.00    +0.119 A 
ATOM      7  C   UNL     1       0.340  -0.187   4.551  0.00  0.00    +0.043 A 
ATOM      8  N   UNL     1       2.150   0.870   3.371  0.00  0.00    -0.315 N 
ATOM      9  H   UNL     1       3.227   1.053   3.242  0.00  0.00    +0.148 HD
ENDBRANCH   1   8
BRANCH   1  10
ATOM     10  C   UNL     1       0.677   2.778   3.093  0.00  0.00    -0.020 A 
ATOM     11  C   UNL     1       1.546   3.604   3.782  0.00  0.00    +0.007 A 
ATOM     12  C   UNL     1       1.081   4.776   4.350  0.00  0.00    +0.020 A 
ATOM     13  C   UNL     1      -0.255   5.116   4.238  0.00  0.00    +0.041 A 
ATOM     14  C   UNL     1      -1.125   4.287   3.553  0.00  0.00    +0.020 A 
ATOM     15  C   UNL     1      -0.658   3.118   2.981  0.00  0.00    +0.007 A 
ATOM     16 CL   UNL     1      -0.841   6.584   4.957  0.00  0.00    -0.084 Cl
ENDBRANCH   1  10
BRANCH   1  17
ATOM     17  C   UNL     1       1.857   1.820   1.158  0.00  0.00    +0.175 A 
ATOM     18  C   UNL     1       1.224   1.533  -0.001  0.00  0.00    +0.205 A 
ATOM     19  C   UNL     1       1.869   1.843  -1.231  0.00  0.00    +0.227 A 
ATOM     20  O   UNL     1       1.329   1.605  -2.300  0.00  0.00    -0.284 OA
ATOM     21  C   UNL     1       3.156   2.436  -1.180  0.00  0.00    +0.098 A 
ATOM     22  C   UNL     1       3.715   2.683   0.021  0.00  0.00    +0.134 A 
ATOM     23  O   UNL     1       3.076   2.377   1.156  0.00  0.00    -0.456 OA
BRANCH  18  24
ATOM     24  O   UNL     1      -0.011   0.963   0.007  0.00  0.00    -0.501 OA
ATOM     25  H   UNL     1      -0.517   0.733  -0.942  0.00  0.00    +0.292 HD
ENDBRANCH  18  24
BRANCH  22  26
ATOM     26  C   UNL     1       5.082   3.313   0.087  0.00  0.00    +0.230 C 
BRANCH  26  27
ATOM     27  O   UNL     1       4.950   4.736   0.120  0.00  0.00    -0.387 OA
ATOM     28  H   UNL     1       5.846   5.371   0.170  0.00  0.00    +0.210 HD
ENDBRANCH  26  27
ENDBRANCH  22  26
ENDBRANCH   1  17
TORSDOF 6
