REMARK  Name = ZINC32081135
REMARK  5 active torsions:
REMARK  status: ('A' for Active; 'I' for Inactive)
REMARK    1  A    between atoms: C_6  and  N_7
REMARK    2  A    between atoms: N_7  and  S_8
REMARK    3  A    between atoms: S_8  and  C_11
REMARK    4  A    between atoms: C_14  and  N_17
REMARK    5  A    between atoms: C_19  and  C_24
REMARK                            x       y       z     vdW  Elec       q    Type
REMARK                         _______ _______ _______ _____ _____    ______ ____
ROOT
ATOM      1  C   UNL     1       1.285   2.895   1.556  0.00  0.00    +0.109 A 
ATOM      2  C   UNL     1       0.664   4.126   1.452  0.00  0.00    +0.030 A 
ATOM      3  C   UNL     1       0.560   4.945   2.559  0.00  0.00    +0.025 A 
ATOM      4  C   UNL     1       1.091   4.536   3.776  0.00  0.00    +0.036 A 
ATOM      5  C   UNL     1       1.719   3.301   3.876  0.00  0.00    +0.025 A 
ATOM      6  C   UNL     1       1.815   2.485   2.766  0.00  0.00    +0.030 A 
ENDROOT
BRANCH   4   7
ATOM      7  N   UNL     1       0.993   5.365   4.898  0.00  0.00    -0.271 N 
ATOM      8  C   UNL     1       1.412   4.981   6.251  0.00  0.00    +0.129 C 
ATOM      9  C   UNL     1       0.732   5.995   7.197  0.00  0.00    +0.128 C 
ATOM     10  C   UNL     1       0.536   7.214   6.265  0.00  0.00    +0.112 C 
ATOM     11  C   UNL     1       0.507   6.619   4.875  0.00  0.00    +0.221 C 
ATOM     12  O   UNL     1       0.102   7.189   3.883  0.00  0.00    -0.275 OA
BRANCH   9  13
ATOM     13  C   UNL     1       1.632   6.341   8.355  0.00  0.00    +0.361 C 
ATOM     14  O   UNL     1       2.726   5.835   8.441  0.00  0.00    -0.246 OA
ATOM     15  O   UNL     1       1.218   7.210   9.291  0.00  0.00    -0.246 OA
ENDBRANCH   9  13
ENDBRANCH   4   7
BRANCH   1  16
ATOM     16  S   UNL     1       1.410   1.851   0.142  0.00  0.00    +0.072 S 
ATOM     17  O   UNL     1       2.442   0.914   0.419  0.00  0.00    -0.150 OA
ATOM     18  O   UNL     1       1.441   2.706  -0.993  0.00  0.00    -0.150 OA
BRANCH  16  19
ATOM     19  N   UNL     1       0.000   0.987   0.046  0.00  0.00    -0.216 N 
ATOM     20  H   UNL     1      -0.668   1.120  -0.818  0.00  0.00    +0.174 HD
BRANCH  19  26
ATOM     21  C   UNL     1       0.610  -0.792   1.558  0.00  0.00    +0.026 A 
ATOM     22  C   UNL     1       0.272  -1.673   2.567  0.00  0.00    +0.022 A 
ATOM     23  C   UNL     1      -1.016  -1.685   3.074  0.00  0.00    +0.041 A 
ATOM     24  C   UNL     1      -1.966  -0.811   2.577  0.00  0.00    +0.022 A 
ATOM     25  C   UNL     1      -1.632   0.076   1.573  0.00  0.00    +0.026 A 
ATOM     26  C   UNL     1      -0.341   0.090   1.062  0.00  0.00    +0.048 A 
ATOM     27 CL   UNL     1      -1.439  -2.800   4.336  0.00  0.00    -0.084 Cl
ENDBRANCH  19  26
ENDBRANCH  16  19
ENDBRANCH   1  16
TORSDOF 5
