REMARK  Name = ZINC07011518
REMARK  5 active torsions:
REMARK  status: ('A' for Active; 'I' for Inactive)
REMARK    1  A    between atoms: C_1  and  C_2
REMARK    2  A    between atoms: C_2  and  C_24
REMARK    3  A    between atoms: C_7  and  C_11
REMARK    4  A    between atoms: N_13  and  C_14
REMARK    5  A    between atoms: C_14  and  C_15
REMARK                            x       y       z     vdW  Elec       q    Type
REMARK                         _______ _______ _______ _____ _____    ______ ____
ROOT
ATOM      1  C   UNL     1       6.224  -0.462   4.509  0.00  0.00    +0.227 C 
ATOM      2  O   UNL     1       7.284  -0.760   3.999  0.00  0.00    -0.275 OA
ATOM      3  N   UNL     1       5.091  -0.500   3.780  0.00  0.00    -0.310 N 
ATOM      4  H   UNL     1       4.244  -0.262   4.188  0.00  0.00    +0.149 HD
ENDROOT
BRANCH   1  10
ATOM      5  C   UNL     1       4.989   1.956   8.585  0.00  0.00    +0.019 C 
ATOM      6  C   UNL     1       6.169   1.700   7.646  0.00  0.00    +0.027 C 
ATOM      7  C   UNL     1       6.956   0.431   8.098  0.00  0.00    +0.003 C 
ATOM      8  C   UNL     1       5.852  -0.649   8.318  0.00  0.00    +0.006 C 
ATOM      9  C   UNL     1       5.330  -0.963   6.897  0.00  0.00    +0.024 C 
ATOM     10  C   UNL     1       6.175  -0.049   5.958  0.00  0.00    +0.106 C 
ATOM     11  C   UNL     1       7.547  -0.036   6.720  0.00  0.00    +0.028 C 
ATOM     12  C   UNL     1       5.680   1.379   6.230  0.00  0.00    +0.154 C 
ATOM     13  O   UNL     1       5.032   2.082   5.493  0.00  0.00    -0.296 OA
ATOM     14  C   UNL     1       7.096   2.916   7.610  0.00  0.00    +0.019 C 
ENDBRANCH   1  10
BRANCH   3  15
ATOM     15  C   UNL     1       5.139  -0.902   2.372  0.00  0.00    +0.139 C 
BRANCH  15  16
ATOM     16  C   UNL     1       3.750  -0.861   1.791  0.00  0.00    -0.027 A 
ATOM     17  C   UNL     1       2.947  -1.985   1.844  0.00  0.00    +0.009 A 
ATOM     18  C   UNL     1       1.671  -1.953   1.312  0.00  0.00    +0.050 A 
ATOM     19  C   UNL     1       1.195  -0.793   0.723  0.00  0.00    +0.166 A 
ATOM     20  C   UNL     1       2.004   0.339   0.669  0.00  0.00    +0.167 A 
ATOM     21  C   UNL     1       3.281   0.300   1.204  0.00  0.00    +0.054 A 
ATOM     22  O   UNL     1       1.314   1.339   0.046  0.00  0.00    -0.453 OA
ATOM     23  C   UNL     1      -0.067   0.935   0.084  0.00  0.00    +0.466 C 
ATOM     24  O   UNL     1      -0.002  -0.503   0.134  0.00  0.00    -0.453 OA
ENDBRANCH  15  16
ENDBRANCH   3  15
TORSDOF 3
