REMARK  Name = ZINC35622614
REMARK  9 active torsions:
REMARK  status: ('A' for Active; 'I' for Inactive)
REMARK    1  A    between atoms: C_1  and  C_2
REMARK    2  A    between atoms: C_2  and  N_3
REMARK    3  A    between atoms: C_6  and  C_11
REMARK    4  A    between atoms: C_15  and  C_17
REMARK    5  A    between atoms: N_20  and  C_22
REMARK    6  A    between atoms: C_22  and  C_24
REMARK    7  A    between atoms: C_22  and  C_25
REMARK    8  A    between atoms: N_27  and  C_28
REMARK    9  A    between atoms: C_28  and  C_29
REMARK                            x       y       z     vdW  Elec       q    Type
REMARK                         _______ _______ _______ _____ _____    ______ ____
ROOT
ATOM      1  N   UNL     1       0.688  -0.476  -1.203  0.00  0.00    -0.257 N 
ATOM      2  C   UNL     1      -0.057  -0.690  -2.328  0.00  0.00    +0.042 C 
ATOM      3  C   UNL     1       0.512  -1.125  -3.471  0.00  0.00    +0.058 C 
ATOM      4  C   UNL     1       2.007  -1.367  -3.465  0.00  0.00    +0.142 C 
ATOM      5  N   UNL     1       2.720  -1.107  -2.203  0.00  0.00    -0.288 N 
ATOM      6  C   UNL     1       2.012  -0.670  -1.144  0.00  0.00    +0.307 C 
ATOM      7  O   UNL     1       2.592  -0.448  -0.099  0.00  0.00    -0.252 OA
ATOM      8  C   UNL     1      -0.463  -1.267  -4.480  0.00  0.00    +0.247 C 
ATOM      9  O   UNL     1      -0.229  -1.644  -5.614  0.00  0.00    -0.270 OA
ATOM     10  N   UNL     1      -1.684  -0.932  -4.027  0.00  0.00    -0.281 N 
ATOM     11  C   UNL     1      -1.533  -0.536  -2.619  0.00  0.00    +0.160 C 
ATOM     12  H   UNL     1       3.679  -1.244  -2.137  0.00  0.00    +0.151 HD
ENDROOT
BRANCH   4  13
ATOM     13  C   UNL     1       2.623  -0.500  -4.533  0.00  0.00    -0.022 A 
ATOM     14  C   UNL     1       2.861   0.839  -4.285  0.00  0.00    +0.006 A 
ATOM     15  C   UNL     1       3.425   1.634  -5.264  0.00  0.00    +0.001 A 
ATOM     16  C   UNL     1       3.753   1.090  -6.492  0.00  0.00    +0.003 A 
ATOM     17  C   UNL     1       3.516  -0.249  -6.740  0.00  0.00    -0.050 A 
ATOM     18  C   UNL     1       2.955  -1.045  -5.759  0.00  0.00    +0.009 A 
ATOM     19  C   UNL     1       3.872  -0.841  -8.079  0.00  0.00    +0.044 C 
ENDBRANCH   4  13
BRANCH   1  21
ATOM     20  C   UNL     1      -0.019   1.526   0.010  0.00  0.00    +0.025 C 
ATOM     21  C   UNL     1       0.002  -0.004   0.002  0.00  0.00    +0.111 C 
ENDBRANCH   1  21
BRANCH  10  22
ATOM     22  C   UNL     1      -2.932  -0.957  -4.793  0.00  0.00    +0.159 C 
ATOM     23  C   UNL     1      -2.813  -0.015  -5.993  0.00  0.00    +0.038 C 
BRANCH  22  24
ATOM     24  C   UNL     1      -3.196  -2.359  -5.280  0.00  0.00    +0.233 C 
ATOM     25  O   UNL     1      -2.417  -3.250  -5.012  0.00  0.00    -0.274 OA
ATOM     26  N   UNL     1      -4.296  -2.623  -6.012  0.00  0.00    -0.311 N 
ATOM     27  H   UNL     1      -4.918  -1.910  -6.226  0.00  0.00    +0.149 HD
BRANCH  26  28
ATOM     28  C   UNL     1      -4.552  -3.986  -6.484  0.00  0.00    +0.135 C 
BRANCH  28  29
ATOM     29  C   UNL     1      -5.855  -4.012  -7.285  0.00  0.00    +0.135 C 
ATOM     30  C   UNL     1      -6.196  -5.463  -7.684  0.00  0.00    +0.035 C 
ATOM     31  C   UNL     1      -6.745  -5.288  -9.126  0.00  0.00    +0.031 C 
ATOM     32  C   UNL     1      -5.873  -4.112  -9.632  0.00  0.00    +0.160 C 
ATOM     33  O   UNL     1      -5.700  -3.254  -8.491  0.00  0.00    -0.375 OA
ENDBRANCH  28  29
ENDBRANCH  26  28
ENDBRANCH  22  24
ENDBRANCH  10  22
TORSDOF 6
