REMARK  Name = ZINC21814729
REMARK  4 active torsions:
REMARK  status: ('A' for Active; 'I' for Inactive)
REMARK    1  A    between atoms: C_6  and  O_7
REMARK    2  A    between atoms: O_7  and  C_8
REMARK    3  A    between atoms: C_10  and  C_14
REMARK    4  A    between atoms: C_14  and  N_16
REMARK                            x       y       z     vdW  Elec       q    Type
REMARK                         _______ _______ _______ _____ _____    ______ ____
ROOT
ATOM      1  O   UNL     1      -4.697   2.163  -1.288  0.00  0.00    -0.438 OA
ENDROOT
BRANCH   1   7
ATOM      2  C   UNL     1      -6.058   4.037  -1.804  0.00  0.00    +0.047 A 
ATOM      3  C   UNL     1      -7.259   4.710  -1.654  0.00  0.00    +0.022 A 
ATOM      4  C   UNL     1      -8.242   4.173  -0.861  0.00  0.00    +0.061 A 
ATOM      5  C   UNL     1      -8.088   2.956  -0.182  0.00  0.00    +0.150 A 
ATOM      6  C   UNL     1      -6.867   2.290  -0.353  0.00  0.00    +0.093 A 
ATOM      7  C   UNL     1      -5.874   2.829  -1.145  0.00  0.00    +0.134 A 
ATOM      8  O   UNL     1      -9.150   2.572   0.554  0.00  0.00    -0.416 OA
ATOM      9  C   UNL     1     -10.264   3.320   0.617  0.00  0.00    +0.379 A 
ATOM     10  O   UNL     1     -11.289   3.102   1.234  0.00  0.00    -0.237 OA
ATOM     11  S   UNL     1      -9.882   4.675  -0.399  0.00  0.00    -0.004 S 
ENDBRANCH   1   7
BRANCH   1  12
ATOM     12  C   UNL     1      -3.622   2.615  -0.596  0.00  0.00    +0.221 A 
ATOM     13  C   UNL     1      -2.429   1.905  -0.641  0.00  0.00    +0.078 A 
ATOM     14  C   UNL     1      -1.332   2.380   0.082  0.00  0.00    +0.009 A 
ATOM     15  C   UNL     1      -1.485   3.565   0.814  0.00  0.00    +0.030 A 
ATOM     16  C   UNL     1      -2.703   4.210   0.800  0.00  0.00    +0.115 A 
ATOM     17  N   UNL     1      -3.719   3.729   0.110  0.00  0.00    -0.221 NA
BRANCH  14  18
ATOM     18  C   UNL     1      -0.043   1.656   0.069  0.00  0.00    +0.077 C 
ATOM     19  S   UNL     1      -0.022  -0.055   0.005  0.00  0.00    -0.035 S 
BRANCH  18  20
ATOM     20  N   UNL     1       1.116   2.343   0.102  0.00  0.00    -0.352 N 
ATOM     21  H   UNL     1       2.075   1.804   0.092  0.00  0.00    +0.143 HD
ATOM     22  H   UNL     1       1.103   3.442   0.138  0.00  0.00    +0.143 HD
ENDBRANCH  18  20
ENDBRANCH  14  18
ENDBRANCH   1  12
TORSDOF 4
