REMARK  Name = ZINC19978556
REMARK  7 active torsions:
REMARK  status: ('A' for Active; 'I' for Inactive)
REMARK    1  A    between atoms: C_1  and  C_2
REMARK    2  A    between atoms: C_3  and  C_30
REMARK    3  A    between atoms: N_9  and  C_12
REMARK    4  A    between atoms: C_12  and  C_14
REMARK    5  A    between atoms: C_12  and  C_15
REMARK    6  A    between atoms: C_15  and  C_17
REMARK    7  A    between atoms: C_26  and  C_29
REMARK                            x       y       z     vdW  Elec       q    Type
REMARK                         _______ _______ _______ _____ _____    ______ ____
ROOT
ATOM      1  C   UNL     1      -1.298   2.115   0.020  0.00  0.00    +0.186 C 
ATOM      2  O   UNL     1      -2.341   1.496   0.021  0.00  0.00    -0.290 OA
ENDROOT
BRANCH   1   3
ATOM      3  C   UNL     1      -0.017   1.397   0.010  0.00  0.00    +0.021 A 
ATOM      4  C   UNL     1       1.188   2.110   0.002  0.00  0.00    +0.015 A 
ATOM      5  C   UNL     1       2.389   1.436  -0.013  0.00  0.00    +0.048 A 
ATOM      6  C   UNL     1       2.409   0.048  -0.021  0.00  0.00    +0.143 A 
ATOM      7  C   UNL     1       1.210  -0.671  -0.013  0.00  0.00    +0.076 A 
ATOM      8  C   UNL     1       0.002  -0.004   0.002  0.00  0.00    +0.038 A 
ATOM      9  N   UNL     1       1.252  -2.073  -0.021  0.00  0.00    -0.280 N 
ATOM     10  C   UNL     1       2.413  -2.695   0.280  0.00  0.00    +0.258 C 
ATOM     11  O   UNL     1       2.481  -3.905   0.251  0.00  0.00    -0.271 OA
ATOM     12  C   UNL     1       3.623  -1.877   0.653  0.00  0.00    +0.256 C 
ATOM     13  O   UNL     1       3.588  -0.625  -0.035  0.00  0.00    -0.478 OA
ATOM     14  C   UNL     1       4.892  -2.638   0.262  0.00  0.00    +0.062 C 
ATOM     15  H   UNL     1       0.348  -2.649  -0.271  0.00  0.00    +0.155 HD
ENDBRANCH   1   3
BRANCH   1  16
ATOM     16  C   UNL     1      -1.316   3.622   0.028  0.00  0.00    +0.159 C 
ATOM     17  C   UNL     1      -0.942   4.129   1.422  0.00  0.00    +0.039 C 
BRANCH  16  26
ATOM     18  C   UNL     1      -3.566   6.683  -3.848  0.00  0.00    +0.045 C 
ATOM     19  C   UNL     1      -4.567   6.169  -2.845  0.00  0.00    -0.026 A 
ATOM     20  C   UNL     1      -5.868   6.479  -2.965  0.00  0.00    -0.008 A 
ATOM     21  S   UNL     1      -6.618   5.652  -1.574  0.00  0.00    -0.073 S 
ATOM     22  C   UNL     1      -5.163   4.915  -0.875  0.00  0.00    +0.116 A 
ATOM     23  C   UNL     1      -4.136   5.332  -1.741  0.00  0.00    +0.075 A 
ATOM     24  C   UNL     1      -2.820   4.878  -1.404  0.00  0.00    +0.263 A 
ATOM     25  O   UNL     1      -1.863   5.190  -2.091  0.00  0.00    -0.267 OA
ATOM     26  N   UNL     1      -2.658   4.096  -0.321  0.00  0.00    -0.288 N 
ATOM     27  C   UNL     1      -3.711   3.743   0.459  0.00  0.00    +0.203 A 
ATOM     28  N   UNL     1      -4.923   4.146   0.182  0.00  0.00    -0.230 NA
ATOM     29  C   UNL     1      -6.535   7.323  -4.020  0.00  0.00    +0.052 C 
ENDBRANCH  16  26
ENDBRANCH   1  16
TORSDOF 3
