REMARK  Name = ZINC55502444
REMARK  3 active torsions:
REMARK  status: ('A' for Active; 'I' for Inactive)
REMARK    1  A    between atoms: C_3  and  O_24
REMARK    2  A    between atoms: C_6  and  C_7
REMARK    3  A    between atoms: C_7  and  C_8
REMARK                            x       y       z     vdW  Elec       q    Type
REMARK                         _______ _______ _______ _____ _____    ______ ____
ROOT
ATOM      1  C   UNL     1      -1.739  -1.023  -1.407  0.00  0.00    +0.115 A 
ATOM      2  N   UNL     1      -2.894  -1.700  -1.634  0.00  0.00    -0.310 N 
ATOM      3  H   UNL     1      -3.417  -2.014  -0.879  0.00  0.00    +0.170 HD
ATOM      4  C   UNL     1      -3.329  -1.945  -2.884  0.00  0.00    +0.260 A 
ATOM      5  O   UNL     1      -4.368  -2.554  -3.071  0.00  0.00    -0.267 OA
ATOM      6  C   UNL     1      -2.549  -1.476  -3.991  0.00  0.00    +0.075 A 
ATOM      7  C   UNL     1      -2.827  -1.627  -5.423  0.00  0.00    -0.023 A 
ATOM      8  C   UNL     1      -1.926  -1.095  -6.274  0.00  0.00    -0.004 A 
ATOM      9  S   UNL     1      -0.684  -0.366  -5.238  0.00  0.00    -0.073 S 
ATOM     10  C   UNL     1      -1.373  -0.787  -3.659  0.00  0.00    +0.116 A 
ATOM     11  N   UNL     1      -1.010  -0.579  -2.396  0.00  0.00    -0.226 NA
ATOM     12  C   UNL     1      -1.950  -1.120  -7.771  0.00  0.00    +0.043 C 
ATOM     13  C   UNL     1      -3.334  -0.675  -8.262  0.00  0.00    +0.005 C 
ATOM     14  C   UNL     1      -4.224  -1.908  -8.375  0.00  0.00    +0.001 C 
ATOM     15  C   UNL     1      -3.849  -2.924  -7.298  0.00  0.00    +0.005 C 
ATOM     16  C   UNL     1      -4.084  -2.343  -5.909  0.00  0.00    +0.037 C 
ENDROOT
BRANCH   1  17
ATOM     17  C   UNL     1      -1.293  -0.774   0.011  0.00  0.00    +0.109 C 
BRANCH  17  23
ATOM     18  C   UNL     1      -0.017   1.378   0.010  0.00  0.00    +0.007 A 
ATOM     19  C   UNL     1       1.169   2.087   0.002  0.00  0.00    +0.045 A 
ATOM     20  C   UNL     1       2.380   1.409  -0.013  0.00  0.00    +0.117 A 
ATOM     21  C   UNL     1       2.396   0.022  -0.021  0.00  0.00    +0.045 A 
ATOM     22  C   UNL     1       1.207  -0.681  -0.013  0.00  0.00    +0.007 A 
ATOM     23  C   UNL     1       0.002  -0.004   0.002  0.00  0.00    -0.040 A 
BRANCH  20  24
ATOM     24  O   UNL     1       3.548   2.104  -0.021  0.00  0.00    -0.507 OA
ATOM     25  H   UNL     1       3.895   2.300   0.860  0.00  0.00    +0.292 HD
ENDBRANCH  20  24
ENDBRANCH  17  23
ENDBRANCH   1  17
TORSDOF 3
