REMARK  Name = ZINC09948586
REMARK  6 active torsions:
REMARK  status: ('A' for Active; 'I' for Inactive)
REMARK    1  A    between atoms: C_1  and  C_2
REMARK    2  A    between atoms: C_3  and  C_14
REMARK    3  A    between atoms: C_4  and  O_13
REMARK    4  A    between atoms: N_5  and  C_7
REMARK    5  A    between atoms: N_15  and  N_16
REMARK    6  A    between atoms: C_17  and  C_19
REMARK                            x       y       z     vdW  Elec       q    Type
REMARK                         _______ _______ _______ _____ _____    ______ ____
ROOT
ATOM      1  N   UNL     1       0.011  -2.598  -3.238  0.00  0.00    -0.204 N 
ATOM      2  C   UNL     1       0.132  -3.502  -4.231  0.00  0.00    +0.276 C 
ATOM      3  O   UNL     1       0.316  -3.129  -5.371  0.00  0.00    -0.270 OA
ATOM      4  H   UNL     1      -0.062  -2.896  -2.318  0.00  0.00    +0.177 HD
ENDROOT
BRANCH   2   5
ATOM      5  C   UNL     1       0.038  -4.974  -3.925  0.00  0.00    +0.297 C 
ATOM      6  C   UNL     1       1.230  -5.399  -3.057  0.00  0.00    +0.283 C 
ATOM      7  O   UNL     1       1.113  -6.800  -2.788  0.00  0.00    -0.484 OA
ATOM      8  C   UNL     1       0.822  -7.605  -3.848  0.00  0.00    +0.163 A 
ATOM      9  C   UNL     1       1.049  -8.948  -3.737  0.00  0.00    +0.058 A 
ATOM     10  C   UNL     1       0.755  -9.800  -4.814  0.00  0.00    -0.014 A 
ATOM     11  C   UNL     1       0.980 -11.185  -4.730  0.00  0.00    +0.008 A 
ATOM     12  C   UNL     1       0.684 -11.981  -5.793  0.00  0.00    +0.001 A 
ATOM     13  C   UNL     1       0.160 -11.444  -6.968  0.00  0.00    +0.001 A 
ATOM     14  C   UNL     1      -0.072 -10.108  -7.085  0.00  0.00    +0.008 A 
ATOM     15  C   UNL     1       0.222  -9.254  -6.008  0.00  0.00    -0.014 A 
ATOM     16  C   UNL     1      -0.001  -7.870  -6.094  0.00  0.00    +0.058 A 
ATOM     17  C   UNL     1       0.297  -7.064  -5.031  0.00  0.00    +0.164 A 
ATOM     18  O   UNL     1       0.079  -5.724  -5.143  0.00  0.00    -0.472 OA
ENDBRANCH   2   5
BRANCH   1  20
ATOM     19  C   UNL     1      -0.201  -0.362  -2.588  0.00  0.00    +0.145 C 
ATOM     20  N   UNL     1      -0.009  -1.229  -3.535  0.00  0.00    -0.187 NA
BRANCH  19  23
ATOM     21  C   UNL     1      -2.591   0.191  -0.579  0.00  0.00    +0.068 C 
ATOM     22  C   UNL     1      -1.324  -0.568  -0.279  0.00  0.00    +0.073 A 
ATOM     23  C   UNL     1      -0.267  -0.806  -1.185  0.00  0.00    +0.079 A 
ATOM     24  C   UNL     1       0.697  -1.536  -0.507  0.00  0.00    +0.225 A 
ATOM     25  N   UNL     1       0.240  -1.728   0.752  0.00  0.00    -0.200 N 
ATOM     26  N   UNL     1      -1.011  -1.113   0.865  0.00  0.00    -0.168 NA
BRANCH  25  27
ATOM     27  C   UNL     1       0.909  -2.422   1.770  0.00  0.00    +0.069 A 
ATOM     28  C   UNL     1       1.691  -3.527   1.462  0.00  0.00    +0.028 A 
ATOM     29  C   UNL     1       2.349  -4.208   2.467  0.00  0.00    +0.002 A 
ATOM     30  C   UNL     1       2.229  -3.790   3.780  0.00  0.00    +0.000 A 
ATOM     31  C   UNL     1       1.450  -2.690   4.090  0.00  0.00    +0.002 A 
ATOM     32  C   UNL     1       0.795  -2.001   3.088  0.00  0.00    +0.028 A 
ENDBRANCH  25  27
BRANCH  24  33
ATOM     33  O   UNL     1       1.877  -1.975  -1.010  0.00  0.00    -0.492 OA
ATOM     34  H   UNL     1       2.623  -1.386  -0.834  0.00  0.00    +0.294 HD
ENDBRANCH  24  33
ENDBRANCH  19  23
ENDBRANCH   1  20
TORSDOF 5
