REMARK  Name = ZINC48039880
REMARK  8 active torsions:
REMARK  status: ('A' for Active; 'I' for Inactive)
REMARK    1  A    between atoms: C_1  and  C_2
REMARK    2  A    between atoms: C_2  and  C_4
REMARK    3  A    between atoms: C_2  and  N_14
REMARK    4  A    between atoms: N_10  and  C_11
REMARK    5  A    between atoms: N_10  and  C_12
REMARK    6  A    between atoms: C_17  and  C_20
REMARK    7  A    between atoms: C_20  and  C_22
REMARK    8  A    between atoms: C_20  and  O_28
REMARK                            x       y       z     vdW  Elec       q    Type
REMARK                         _______ _______ _______ _____ _____    ______ ____
ROOT
ATOM      1  N   UNL     1      -1.376  -0.512   0.012  0.00  0.00    +0.386 N 
ATOM      2  C   UNL     1      -2.087  -0.018  -1.173  0.00  0.00    -0.077 C 
ATOM      3  C   UNL     1      -3.546  -0.478  -1.125  0.00  0.00    -0.012 C 
ATOM      4  C   UNL     1      -3.593  -2.009  -1.101  0.00  0.00    +0.019 C 
ATOM      5  C   UNL     1      -2.785  -2.515   0.097  0.00  0.00    -0.012 C 
ATOM      6  C   UNL     1      -1.355  -1.980   0.004  0.00  0.00    -0.077 C 
ATOM      7  H   UNL     1      -1.847  -0.189   0.844  0.00  0.00    -0.081 HD
ENDROOT
BRANCH   1   9
ATOM      8  C   UNL     1      -0.019   1.526   0.010  0.00  0.00    -0.005 C 
ATOM      9  C   UNL     1       0.002  -0.004   0.002  0.00  0.00    -0.002 C 
BRANCH   9  10
ATOM     10  C   UNL     1       0.731  -0.503   1.223  0.00  0.00    +0.123 A 
ATOM     11  N   UNL     1       0.141  -0.463   2.405  0.00  0.00    -0.201 NA
ATOM     12  C   UNL     1       0.781  -0.903   3.486  0.00  0.00    +0.217 A 
ATOM     13  N   UNL     1       2.015  -1.384   3.375  0.00  0.00    -0.181 NA
ATOM     14  C   UNL     1       2.605  -1.423   2.185  0.00  0.00    +0.222 A 
ATOM     15  N   UNL     1       1.956  -0.985   1.108  0.00  0.00    -0.201 NA
ATOM     16  N   UNL     1       3.886  -1.921   2.064  0.00  0.00    -0.306 N 
ATOM     17  C   UNL     1       4.597  -2.407   3.249  0.00  0.00    +0.132 C 
ATOM     18  C   UNL     1       4.535  -1.963   0.752  0.00  0.00    +0.132 C 
ATOM     19  N   UNL     1       0.165  -0.860   4.719  0.00  0.00    -0.327 N 
ATOM     20  H   UNL     1      -0.736  -0.509   4.800  0.00  0.00    +0.145 HD
ATOM     21  H   UNL     1       0.632  -1.181   5.506  0.00  0.00    +0.145 HD
ENDBRANCH   9  10
ENDBRANCH   1   9
BRANCH   4  22
ATOM     22  C   UNL     1      -5.044  -2.474  -0.974  0.00  0.00    +0.147 C 
BRANCH  22  23
ATOM     23  C   UNL     1      -5.088  -3.981  -0.951  0.00  0.00    -0.019 A 
ATOM     24  C   UNL     1      -4.911  -4.659   0.240  0.00  0.00    +0.006 A 
ATOM     25  C   UNL     1      -4.952  -6.040   0.262  0.00  0.00    +0.000 A 
ATOM     26  C   UNL     1      -5.170  -6.744  -0.908  0.00  0.00    +0.000 A 
ATOM     27  C   UNL     1      -5.348  -6.065  -2.099  0.00  0.00    +0.000 A 
ATOM     28  C   UNL     1      -5.312  -4.684  -2.120  0.00  0.00    +0.006 A 
ENDBRANCH  22  23
BRANCH  22  29
ATOM     29  O   UNL     1      -5.604  -1.963   0.237  0.00  0.00    -0.387 OA
ATOM     30  H   UNL     1      -5.141  -2.249   1.036  0.00  0.00    +0.210 HD
ENDBRANCH  22  29
ENDBRANCH   4  22
TORSDOF 5
