REMARK  Name = ZINC63686454
REMARK  6 active torsions:
REMARK  status: ('A' for Active; 'I' for Inactive)
REMARK    1  A    between atoms: C_1  and  O_2
REMARK    2  A    between atoms: O_2  and  C_3
REMARK    3  A    between atoms: C_6  and  C_9
REMARK    4  A    between atoms: C_12  and  S_16
REMARK    5  A    between atoms: S_16  and  C_17
REMARK    6  A    between atoms: C_17  and  C_18
REMARK                            x       y       z     vdW  Elec       q    Type
REMARK                         _______ _______ _______ _____ _____    ______ ____
ROOT
ATOM      1  C   UNL     1       2.587  -2.550   4.310  0.00  0.00    +0.198 C 
ATOM      2  N   UNL     1       1.869  -3.796   4.680  0.00  0.00    -0.261 NA
ATOM      3  C   UNL     1       0.988  -3.313   5.773  0.00  0.00    +0.254 C 
ATOM      4  N   UNL     1       1.664  -2.120   6.300  0.00  0.00    -0.184 NA
ATOM      5  N   UNL     1       2.526  -1.709   5.513  0.00  0.00    -0.290 N 
ATOM      6  H   UNL     1       1.326  -4.145   3.905  0.00  0.00    +0.127 HD
ATOM      7  H   UNL     1       3.088  -0.934   5.668  0.00  0.00    +0.184 HD
ENDROOT
BRANCH   1  11
ATOM      8  C   UNL     1       0.625  -0.619   1.042  0.00  0.00    +0.120 A 
ATOM      9  C   UNL     1       1.931  -1.067   0.902  0.00  0.00    +0.046 A 
ATOM     10  C   UNL     1       2.563  -1.691   1.960  0.00  0.00    +0.010 A 
ATOM     11  C   UNL     1       1.895  -1.869   3.158  0.00  0.00    -0.009 A 
ATOM     12  C   UNL     1       0.594  -1.423   3.299  0.00  0.00    +0.010 A 
ATOM     13  C   UNL     1      -0.041  -0.794   2.246  0.00  0.00    +0.046 A 
BRANCH   8  15
ATOM     14  C   UNL     1       0.748   0.141  -1.208  0.00  0.00    +0.277 C 
ATOM     15  O   UNL     1       0.002  -0.004   0.002  0.00  0.00    -0.495 OA
ENDBRANCH   8  15
ENDBRANCH   1  11
BRANCH   3  16
ATOM     16  S   UNL     1       0.833  -4.577   7.065  0.00  0.00    -0.111 S 
BRANCH  16  17
ATOM     17  C   UNL     1       2.535  -4.831   7.638  0.00  0.00    +0.125 C 
BRANCH  17  18
ATOM     18  C   UNL     1       2.549  -5.872   8.727  0.00  0.00    +0.030 A 
ATOM     19  N   UNL     1       2.103  -5.530   9.960  0.00  0.00    -0.356 N 
ATOM     20  C   UNL     1       2.089  -6.434  10.999  0.00  0.00    +0.069 A 
ATOM     21  C   UNL     1       2.548  -7.745  10.783  0.00  0.00    +0.046 A 
ATOM     22  C   UNL     1       2.541  -8.669  11.827  0.00  0.00    +0.014 A 
ATOM     23  C   UNL     1       2.085  -8.294  13.060  0.00  0.00    +0.002 A 
ATOM     24  C   UNL     1       1.630  -7.002  13.281  0.00  0.00    +0.022 A 
ATOM     25  C   UNL     1       1.629  -6.072  12.263  0.00  0.00    +0.065 A 
ATOM     26 CL   UNL     1       1.058  -4.459  12.555  0.00  0.00    -0.081 Cl
ATOM     27  C   UNL     1       3.031  -8.107   9.438  0.00  0.00    +0.190 A 
ATOM     28  O   UNL     1       3.440  -9.231   9.197  0.00  0.00    -0.287 OA
ATOM     29  C   UNL     1       3.001  -7.109   8.436  0.00  0.00    +0.073 A 
ATOM     30  H   UNL     1       1.785  -4.627  10.114  0.00  0.00    +0.166 HD
ENDBRANCH  17  18
ENDBRANCH  16  17
ENDBRANCH   3  16
TORSDOF 5
