REMARK  Name = ZINC14547852
REMARK  4 active torsions:
REMARK  status: ('A' for Active; 'I' for Inactive)
REMARK    1  A    between atoms: C_1  and  C_2
REMARK    2  A    between atoms: C_5  and  C_29
REMARK    3  A    between atoms: C_15  and  C_18
REMARK    4  A    between atoms: C_27  and  O_28
REMARK                            x       y       z     vdW  Elec       q    Type
REMARK                         _______ _______ _______ _____ _____    ______ ____
ROOT
ATOM      1  C   UNL     1       6.730   1.028  -2.881  0.00  0.00    +0.044 C 
ATOM      2  C   UNL     1       6.469   0.585  -1.464  0.00  0.00    -0.045 A 
ATOM      3  C   UNL     1       7.415   0.822  -0.489  0.00  0.00    +0.004 A 
ATOM      4  C   UNL     1       7.183   0.417   0.813  0.00  0.00    +0.005 A 
ATOM      5  C   UNL     1       6.005  -0.224   1.131  0.00  0.00    -0.029 A 
ATOM      6  C   UNL     1       5.046  -0.466   0.148  0.00  0.00    +0.035 A 
ATOM      7  C   UNL     1       5.278  -0.059  -1.154  0.00  0.00    -0.016 A 
ATOM      8  C   UNL     1       4.288  -0.279  -2.260  0.00  0.00    +0.049 C 
ATOM      9  C   UNL     1       3.637   1.025  -2.660  0.00  0.00    -0.023 C 
ATOM     10  C   UNL     1       2.365   0.845  -2.910  0.00  0.00    -0.030 C 
ATOM     11  C   UNL     1       1.987  -0.611  -2.721  0.00  0.00    +0.033 C 
ATOM     12  C   UNL     1       3.109  -1.162  -1.797  0.00  0.00    +0.029 C 
ATOM     13  C   UNL     1       2.751  -0.794  -0.355  0.00  0.00    +0.109 C 
ATOM     14  N   UNL     1       3.874  -1.121   0.525  0.00  0.00    -0.336 N 
ATOM     15  C   UNL     1       5.751  -0.665   2.550  0.00  0.00    +0.045 C 
ATOM     16  H   UNL     1       4.016  -2.118   0.574  0.00  0.00    +0.147 HD
ENDROOT
BRANCH  13  17
ATOM     17  C   UNL     1       2.460   0.682  -0.271  0.00  0.00    +0.022 A 
ATOM     18  C   UNL     1       3.192   1.498   0.608  0.00  0.00    -0.009 A 
ATOM     19  C   UNL     1       4.205   0.965   1.424  0.00  0.00    +0.009 A 
ATOM     20  C   UNL     1       4.891   1.783   2.268  0.00  0.00    +0.001 A 
ATOM     21  C   UNL     1       4.612   3.147   2.328  0.00  0.00    +0.001 A 
ATOM     22  C   UNL     1       3.638   3.698   1.553  0.00  0.00    +0.008 A 
ATOM     23  C   UNL     1       2.905   2.884   0.674  0.00  0.00    -0.017 A 
ATOM     24  C   UNL     1       1.891   3.419  -0.141  0.00  0.00    +0.012 A 
ATOM     25  C   UNL     1       1.200   2.603  -0.981  0.00  0.00    +0.046 A 
ATOM     26  C   UNL     1       1.482   1.235  -1.048  0.00  0.00    +0.122 A 
BRANCH  26  27
ATOM     27  O   UNL     1       0.774   0.445  -1.897  0.00  0.00    -0.506 OA
ATOM     28  H   UNL     1      -0.085   0.166  -1.552  0.00  0.00    +0.292 HD
ENDBRANCH  26  27
ENDBRANCH  13  17
TORSDOF 2
