REMARK  Name = ZINC61861696
REMARK  3 active torsions:
REMARK  status: ('A' for Active; 'I' for Inactive)
REMARK    1  A    between atoms: C_3  and  C_8
REMARK    2  A    between atoms: C_8  and  C_10
REMARK    3  A    between atoms: C_8  and  N_22
REMARK                            x       y       z     vdW  Elec       q    Type
REMARK                         _______ _______ _______ _____ _____    ______ ____
ROOT
ATOM      1  C   UNL     1       4.535   1.581   1.131  0.00  0.00    -0.021 A 
ATOM      2  C   UNL     1       4.530   2.277   2.325  0.00  0.00    +0.010 A 
ATOM      3  C   UNL     1       5.301   1.841   3.384  0.00  0.00    -0.025 A 
ATOM      4  C   UNL     1       6.084   0.701   3.249  0.00  0.00    +0.039 A 
ATOM      5  C   UNL     1       6.089   0.003   2.050  0.00  0.00    +0.062 A 
ATOM      6  C   UNL     1       5.310   0.441   0.994  0.00  0.00    +0.127 A 
ATOM      7  F   UNL     1       5.309  -0.240  -0.173  0.00  0.00    -0.205 F 
ATOM      8  N   UNL     1       6.865   0.261   4.322  0.00  0.00    -0.285 N 
ATOM      9  C   UNL     1       6.603   0.680   5.574  0.00  0.00    +0.218 C 
ATOM     10  O   UNL     1       7.299   0.300   6.491  0.00  0.00    -0.275 OA
ATOM     11  C   UNL     1       5.458   1.617   5.848  0.00  0.00    +0.101 C 
ATOM     12  C   UNL     1       5.297   2.598   4.686  0.00  0.00    +0.046 C 
ATOM     13  H   UNL     1       7.600  -0.352   4.164  0.00  0.00    +0.155 HD
ENDROOT
BRANCH   1  14
ATOM     14  C   UNL     1       3.691   2.059  -0.023  0.00  0.00    +0.008 C 
BRANCH  14  17
ATOM     15  C   UNL     1      -0.017   1.383   0.010  0.00  0.00    +0.018 A 
ATOM     16  C   UNL     1       1.194   2.059   0.002  0.00  0.00    +0.023 A 
ATOM     17  C   UNL     1       2.370   1.334  -0.013  0.00  0.00    +0.031 A 
ATOM     18  N   UNL     1       2.351   0.016  -0.020  0.00  0.00    -0.260 NA
ATOM     19  C   UNL     1       1.219  -0.661  -0.013  0.00  0.00    +0.126 A 
ATOM     20  C   UNL     1       0.002  -0.004   0.002  0.00  0.00    +0.036 A 
ATOM     21 BR   UNL     1      -1.615  -0.984   0.013  0.00  0.00    -0.049 Br
ENDBRANCH  14  17
BRANCH  14  22
ATOM     22  N   UNL     1       3.458   3.504   0.108  0.00  0.00    +0.386 N 
ATOM     23  H   UNL     1       2.978   3.690   0.976  0.00  0.00    -0.089 HD
ATOM     24  H   UNL     1       4.342   3.990   0.102  0.00  0.00    -0.089 HD
ATOM     25  H   UNL     1       2.893   3.824  -0.664  0.00  0.00    -0.089 HD
ENDBRANCH  14  22
ENDBRANCH   1  14
TORSDOF 3
