REMARK  Name = ZINC12159363
REMARK  8 active torsions:
REMARK  status: ('A' for Active; 'I' for Inactive)
REMARK    1  A    between atoms: C_4  and  C_7
REMARK    2  A    between atoms: C_7  and  O_8
REMARK    3  A    between atoms: O_8  and  C_9
REMARK    4  A    between atoms: C_12  and  C_15
REMARK    5  A    between atoms: C_15  and  N_66
REMARK    6  A    between atoms: C_18  and  C_21
REMARK    7  A    between atoms: C_21  and  C_28
REMARK    8  A    between atoms: C_28  and  C_29
REMARK                            x       y       z     vdW  Elec       q    Type
REMARK                         _______ _______ _______ _____ _____    ______ ____
ROOT
ATOM      1  C   UNL     1       0.974  -0.522   0.973  0.00  0.00    -0.078 C 
ATOM      2  C   UNL     1       1.073  -2.043   0.835  0.00  0.00    -0.013 C 
ATOM      3  C   UNL     1      -0.304  -2.664   1.083  0.00  0.00    +0.018 C 
ATOM      4  C   UNL     1      -1.308  -2.072   0.091  0.00  0.00    -0.013 C 
ATOM      5  C   UNL     1      -1.338  -0.550   0.250  0.00  0.00    -0.078 C 
ATOM      6  N   UNL     1       0.011  -0.012  -0.026  0.00  0.00    +0.382 N 
ATOM      7  H   UNL     1       0.306  -0.317  -0.960  0.00  0.00    -0.081 HD
ENDROOT
BRANCH   3   8
ATOM      8  C   UNL     1      -0.226  -4.180   0.888  0.00  0.00    +0.119 C 
ATOM      9  C   UNL     1      -1.585  -4.816   1.105  0.00  0.00    +0.245 C 
ATOM     10  O   UNL     1      -2.245  -4.804   2.121  0.00  0.00    -0.273 OA
ATOM     11  N   UNL     1      -1.906  -5.397  -0.068  0.00  0.00    -0.238 N 
ATOM     12  C   UNL     1      -0.950  -5.218  -0.986  0.00  0.00    +0.307 C 
ATOM     13  O   UNL     1      -1.013  -5.649  -2.121  0.00  0.00    -0.252 OA
ATOM     14  N   UNL     1       0.090  -4.506  -0.513  0.00  0.00    -0.284 N 
ATOM     15  H   UNL     1      -2.730  -5.884  -0.228  0.00  0.00    +0.159 HD
ATOM     16  H   UNL     1       0.891  -4.257  -1.000  0.00  0.00    +0.151 HD
BRANCH   8  17
ATOM     17  C   UNL     1       0.811  -4.790   1.833  0.00  0.00    +0.073 C 
BRANCH  17  18
ATOM     18  C   UNL     1       0.957  -6.260   1.537  0.00  0.00    -0.010 A 
ATOM     19  C   UNL     1       0.238  -7.187   2.268  0.00  0.00    +0.006 A 
ATOM     20  C   UNL     1       0.367  -8.536   1.993  0.00  0.00    +0.000 A 
ATOM     21  C   UNL     1       1.224  -8.960   0.994  0.00  0.00    +0.003 A 
ATOM     22  C   UNL     1       1.948  -8.035   0.266  0.00  0.00    +0.038 A 
ATOM     23  C   UNL     1       1.815  -6.683   0.537  0.00  0.00    +0.127 A 
ATOM     24  F   UNL     1       2.522  -5.779  -0.175  0.00  0.00    -0.205 F 
ENDBRANCH  17  18
ENDBRANCH   8  17
ENDBRANCH   3   8
BRANCH   6  25
ATOM     25  C   UNL     1      -0.018   1.465   0.010  0.00  0.00    -0.043 C 
BRANCH  25  29
ATOM     26  C   UNL     1       3.991   2.944  -0.020  0.00  0.00    +0.121 A 
ATOM     27  C   UNL     1       3.328   2.710  -1.216  0.00  0.00    +0.046 A 
ATOM     28  C   UNL     1       2.032   2.232  -1.204  0.00  0.00    +0.005 A 
ATOM     29  C   UNL     1       1.396   1.986  -0.001  0.00  0.00    -0.064 A 
ATOM     30  C   UNL     1       2.053   2.224   1.193  0.00  0.00    +0.005 A 
ATOM     31  C   UNL     1       3.351   2.697   1.185  0.00  0.00    +0.046 A 
BRANCH  26  32
ATOM     32  O   UNL     1       5.266   3.414  -0.030  0.00  0.00    -0.487 OA
BRANCH  32  33
ATOM     33  C   UNL     1       5.887   3.632   1.239  0.00  0.00    +0.264 C 
BRANCH  33  37
ATOM     34  C   UNL     1       9.855   5.099   0.649  0.00  0.00    +0.000 A 
ATOM     35  C   UNL     1       8.799   5.985   0.754  0.00  0.00    +0.000 A 
ATOM     36  C   UNL     1       7.515   5.510   0.945  0.00  0.00    +0.007 A 
ATOM     37  C   UNL     1       7.287   4.149   1.031  0.00  0.00    -0.010 A 
ATOM     38  C   UNL     1       8.344   3.264   0.931  0.00  0.00    +0.007 A 
ATOM     39  C   UNL     1       9.627   3.738   0.735  0.00  0.00    +0.000 A 
ENDBRANCH  33  37
ENDBRANCH  32  33
ENDBRANCH  26  32
ENDBRANCH  25  29
ENDBRANCH   6  25
TORSDOF 8
