REMARK  Name = ZINC16265063
REMARK  3 active torsions:
REMARK  status: ('A' for Active; 'I' for Inactive)
REMARK    1  A    between atoms: C_3  and  C_10
REMARK    2  A    between atoms: C_5  and  N_7
REMARK    3  A    between atoms: C_20  and  C_22
REMARK                            x       y       z     vdW  Elec       q    Type
REMARK                         _______ _______ _______ _____ _____    ______ ____
ROOT
ATOM      1  C   UNL     1       3.320   8.668   1.428  0.00  0.00    +0.024 C 
ATOM      2  C   UNL     1       2.370   7.799   0.975  0.00  0.00    +0.081 C 
ATOM      3  C   UNL     1       2.085   6.512   1.672  0.00  0.00    +0.152 C 
ATOM      4  N   UNL     1       2.189   6.361   2.965  0.00  0.00    -0.283 NA
ATOM      5  N   UNL     1       1.692   5.474   0.800  0.00  0.00    -0.152 N 
ATOM      6  C   UNL     1       1.178   5.831  -0.427  0.00  0.00    +0.181 C 
ATOM      7  N   UNL     1       1.069   7.036  -0.928  0.00  0.00    -0.152 NA
ATOM      8  C   UNL     1       1.565   8.083  -0.241  0.00  0.00    +0.273 C 
ATOM      9  O   UNL     1       1.358   9.229  -0.605  0.00  0.00    -0.268 OA
ATOM     10  S   UNL     1       0.715   4.260  -1.108  0.00  0.00    -0.037 S 
ATOM     11  C   UNL     1       1.278   3.241   0.248  0.00  0.00    +0.106 C 
ATOM     12  N   UNL     1       1.734   4.126   1.088  0.00  0.00    -0.169 NA
ATOM     13  H   UNL     1       2.491   7.099   3.517  0.00  0.00    +0.188 HD
ENDROOT
BRANCH  11  14
ATOM     14  C   UNL     1       1.232   1.741   0.388  0.00  0.00    +0.022 C 
ATOM     15  C   UNL     1      -0.222   1.268   0.316  0.00  0.00    +0.017 C 
ATOM     16  C   UNL     1      -0.269  -0.255   0.458  0.00  0.00    -0.010 C 
ATOM     17  C   UNL     1       0.533  -0.898  -0.676  0.00  0.00    +0.007 C 
ATOM     18  C   UNL     1       1.986  -0.424  -0.604  0.00  0.00    -0.010 C 
ATOM     19  C   UNL     1       2.034   1.099  -0.746  0.00  0.00    +0.017 C 
ATOM     20  C   UNL     1       2.590  -0.830   0.742  0.00  0.00    +0.007 C 
ATOM     21  C   UNL     1       1.787  -0.188   1.875  0.00  0.00    -0.010 C 
ATOM     22  C   UNL     1       0.334  -0.661   1.804  0.00  0.00    +0.007 C 
ATOM     23  C   UNL     1       1.835   1.335   1.734  0.00  0.00    +0.017 C 
ENDBRANCH  11  14
BRANCH   1  26
ATOM     24  C   UNL     1       5.548   8.826   4.437  0.00  0.00    +0.003 A 
ATOM     25  C   UNL     1       4.699   9.214   3.424  0.00  0.00    +0.008 A 
ATOM     26  C   UNL     1       4.228   8.265   2.508  0.00  0.00    -0.022 A 
ATOM     27  C   UNL     1       4.634   6.929   2.626  0.00  0.00    +0.040 A 
ATOM     28  C   UNL     1       5.487   6.560   3.643  0.00  0.00    +0.127 A 
ATOM     29  C   UNL     1       5.943   7.504   4.546  0.00  0.00    +0.033 A 
BRANCH  28  30
ATOM     30  N   UNL     1       5.917   5.149   3.769  0.00  0.00    +0.056 N 
ATOM     31  O   UNL     1       5.517   4.317   2.975  0.00  0.00    -0.126 OA
ATOM     32  O   UNL     1       6.671   4.820   4.667  0.00  0.00    -0.126 OA
ENDBRANCH  28  30
ENDBRANCH   1  26
TORSDOF 3
