REMARK  Name = ZINC22869965
REMARK  12 active torsions:
REMARK  status: ('A' for Active; 'I' for Inactive)
REMARK    1  A    between atoms: C_1  and  C_2
REMARK    2  A    between atoms: C_2  and  C_3
REMARK    3  A    between atoms: C_6  and  N_9
REMARK    4  A    between atoms: C_11  and  C_16
REMARK    5  A    between atoms: C_16  and  O_18
REMARK    6  A    between atoms: O_18  and  C_19
REMARK    7  A    between atoms: C_19  and  C_20
REMARK    8  A    between atoms: C_21  and  C_29
REMARK    9  A    between atoms: C_22  and  C_28
REMARK   10  A    between atoms: C_29  and  O_31
REMARK   11  A    between atoms: O_31  and  C_32
REMARK   12  A    between atoms: C_32  and  C_33
REMARK                            x       y       z     vdW  Elec       q    Type
REMARK                         _______ _______ _______ _____ _____    ______ ____
ROOT
ATOM      1  O   UNL     1       3.772  -3.454   9.029  0.00  0.00    -0.458 OA
ENDROOT
BRANCH   1   2
ATOM      2  C   UNL     1       2.847  -3.284   8.071  0.00  0.00    +0.313 C 
ATOM      3  O   UNL     1       1.860  -3.980   8.054  0.00  0.00    -0.250 OA
BRANCH   2   6
ATOM      4  N   UNL     1       2.449  -1.911   4.714  0.00  0.00    -0.271 N 
ATOM      5  C   UNL     1       1.858  -2.211   6.024  0.00  0.00    +0.128 C 
ATOM      6  C   UNL     1       3.041  -2.225   7.016  0.00  0.00    +0.124 C 
ATOM      7  C   UNL     1       4.227  -2.578   6.089  0.00  0.00    +0.112 C 
ATOM      8  C   UNL     1       3.777  -2.119   4.719  0.00  0.00    +0.221 C 
ATOM      9  O   UNL     1       4.509  -1.960   3.764  0.00  0.00    -0.275 OA
BRANCH   4  13
ATOM     10  C   UNL     1       0.287  -0.602   1.402  0.00  0.00    -0.048 A 
ATOM     11  C   UNL     1       1.667  -0.660   1.346  0.00  0.00    +0.005 A 
ATOM     12  C   UNL     1       2.387  -1.093   2.442  0.00  0.00    +0.024 A 
ATOM     13  C   UNL     1       1.723  -1.471   3.602  0.00  0.00    +0.036 A 
ATOM     14  C   UNL     1       0.337  -1.412   3.655  0.00  0.00    +0.024 A 
ATOM     15  C   UNL     1      -0.377  -0.973   2.557  0.00  0.00    +0.005 A 
BRANCH  10  17
ATOM     16  C   UNL     1      -0.678   1.388   0.281  0.00  0.00    +0.009 C 
ATOM     17  C   UNL     1      -0.495  -0.129   0.204  0.00  0.00    +0.032 C 
ENDBRANCH  10  17
ENDBRANCH   4  13
ENDBRANCH   2   6
ENDBRANCH   1   2
BRANCH   1  18
ATOM     18  C   UNL     1       3.523  -4.477   9.996  0.00  0.00    +0.283 C 
BRANCH  18  19
ATOM     19  C   UNL     1       4.660  -4.521  10.984  0.00  0.00    +0.061 C 
ATOM     20  C   UNL     1       4.433  -4.188  12.273  0.00  0.00    +0.077 C 
ATOM     21  C   UNL     1       5.604  -4.245  13.233  0.00  0.00    +0.110 C 
ATOM     22  N   UNL     1       6.903  -4.662  12.678  0.00  0.00    -0.292 N 
ATOM     23  C   UNL     1       6.972  -4.964  11.366  0.00  0.00    +0.304 C 
ATOM     24  O   UNL     1       8.039  -5.309  10.898  0.00  0.00    -0.252 OA
ATOM     25  N   UNL     1       5.902  -4.901  10.563  0.00  0.00    -0.269 N 
ATOM     26  C   UNL     1       5.779  -2.855  13.848  0.00  0.00    +0.033 C 
ATOM     27  H   UNL     1       7.689  -4.718  13.242  0.00  0.00    +0.151 HD
ATOM     28  H   UNL     1       6.017  -5.135   9.629  0.00  0.00    +0.156 HD
BRANCH  20  29
ATOM     29  C   UNL     1       3.146  -3.799  12.712  0.00  0.00    +0.339 C 
ATOM     30  O   UNL     1       2.482  -4.555  13.396  0.00  0.00    -0.245 OA
BRANCH  29  31
ATOM     31  O   UNL     1       2.655  -2.589  12.372  0.00  0.00    -0.462 OA
BRANCH  31  32
ATOM     32  C   UNL     1       1.348  -2.261  12.850  0.00  0.00    +0.229 C 
ATOM     33  C   UNL     1       0.965  -0.861  12.367  0.00  0.00    +0.048 C 
ENDBRANCH  31  32
ENDBRANCH  29  31
ENDBRANCH  20  29
ENDBRANCH  18  19
ENDBRANCH   1  18
TORSDOF 9
