REMARK  Name = ZINC05839982
REMARK  7 active torsions:
REMARK  status: ('A' for Active; 'I' for Inactive)
REMARK    1  A    between atoms: C_1  and  C_2
REMARK    2  A    between atoms: C_2  and  C_27
REMARK    3  A    between atoms: C_6  and  C_17
REMARK    4  A    between atoms: C_11  and  O_16
REMARK    5  A    between atoms: C_12  and  O_15
REMARK    6  A    between atoms: C_23  and  S_25
REMARK    7  A    between atoms: S_25  and  C_26
REMARK                            x       y       z     vdW  Elec       q    Type
REMARK                         _______ _______ _______ _____ _____    ______ ____
ROOT
ATOM      1  C   UNL     1       1.088  -2.129  -1.627  0.00  0.00    +0.034 C 
ATOM      2  C   UNL     1       2.308  -1.398  -2.191  0.00  0.00    +0.040 C 
ATOM      3  C   UNL     1       2.211   0.089  -1.841  0.00  0.00    +0.096 C 
ATOM      4  C   UNL     1       2.459   0.253  -0.338  0.00  0.00    +0.181 C 
ATOM      5  C   UNL     1       1.398  -0.521   0.448  0.00  0.00    +0.082 C 
ATOM      6  C   UNL     1       0.017  -0.013   0.023  0.00  0.00    +0.065 C 
ATOM      7  C   UNL     1       0.002   1.495   0.043  0.00  0.00    +0.006 A 
ATOM      8  C   UNL     1      -1.221   2.147   0.063  0.00  0.00    +0.011 A 
ATOM      9  C   UNL     1      -1.279   3.526   0.082  0.00  0.00    +0.050 A 
ATOM     10  C   UNL     1      -0.108   4.269   0.072  0.00  0.00    +0.162 A 
ATOM     11  C   UNL     1       1.119   3.621   0.049  0.00  0.00    +0.201 A 
ATOM     12  C   UNL     1       1.175   2.228   0.036  0.00  0.00    +0.172 A 
ATOM     13  O   UNL     1       2.395   1.629   0.022  0.00  0.00    -0.464 OA
ATOM     14  N   UNL     1       3.790  -0.288  -0.037  0.00  0.00    -0.288 N 
ATOM     15  C   UNL     1       4.176  -1.464  -0.638  0.00  0.00    +0.131 C 
ATOM     16  N   UNL     1       3.520  -1.980  -1.627  0.00  0.00    -0.363 N 
ATOM     17  C   UNL     1       2.333  -1.558  -3.712  0.00  0.00    +0.034 C 
ATOM     18  H   UNL     1       4.456   0.246   0.656  0.00  0.00    +0.152 HD
ATOM     19  H   UNL     1       3.871  -2.913  -2.092  0.00  0.00    +0.162 HD
ENDROOT
BRANCH   6  20
ATOM     20  C   UNL     1      -1.025  -0.537   0.977  0.00  0.00    -0.003 A 
ATOM     21  C   UNL     1      -2.098  -1.325   0.721  0.00  0.00    +0.012 A 
ATOM     22  C   UNL     1      -2.928  -1.688   1.764  0.00  0.00    +0.008 A 
ATOM     23  C   UNL     1      -2.646  -1.244   3.014  0.00  0.00    +0.045 A 
ATOM     24  S   UNL     1      -1.163  -0.289   2.740  0.00  0.00    -0.101 S 
ENDBRANCH   6  20
BRANCH  11  25
ATOM     25  O   UNL     1       2.271   4.347   0.038  0.00  0.00    -0.501 OA
ATOM     26  H   UNL     1       3.244   3.834   0.020  0.00  0.00    +0.292 HD
ENDBRANCH  11  25
BRANCH  10  27
ATOM     27  O   UNL     1      -0.162   5.628   0.083  0.00  0.00    -0.503 OA
ATOM     28  H   UNL     1       0.768   6.215   0.075  0.00  0.00    +0.292 HD
ENDBRANCH  10  27
BRANCH  15  29
ATOM     29  S   UNL     1       5.611  -2.294  -0.042  0.00  0.00    -0.096 S 
ATOM     30  C   UNL     1       5.637  -3.719  -1.159  0.00  0.00    +0.092 C 
ENDBRANCH  15  29
TORSDOF 4
