REMARK  Name = ZINC01636962
REMARK  15 active torsions:
REMARK  status: ('A' for Active; 'I' for Inactive)
REMARK    1  A    between atoms: C_1  and  C_2
REMARK    2  A    between atoms: C_2  and  C_3
REMARK    3  A    between atoms: C_2  and  C_4
REMARK    4  A    between atoms: C_2  and  N_74
REMARK    5  A    between atoms: C_4  and  C_5
REMARK    6  A    between atoms: C_5  and  C_6
REMARK    7  A    between atoms: C_6  and  C_7
REMARK    8  A    between atoms: C_7  and  C_8
REMARK    9  A    between atoms: C_8  and  C_9
REMARK   10  A    between atoms: C_8  and  C_10
REMARK   11  A    between atoms: C_8  and  N_71
REMARK   12  A    between atoms: C_11  and  C_12
REMARK   13  A    between atoms: C_11  and  N_71
REMARK   14  A    between atoms: C_23  and  C_24
REMARK   15  A    between atoms: C_23  and  N_74
REMARK                            x       y       z     vdW  Elec       q    Type
REMARK                         _______ _______ _______ _____ _____    ______ ____
ROOT
ATOM      1  C   UNL     1       4.341   0.987   2.359  0.00  0.00    -0.001 C 
ENDROOT
BRANCH   1   2
ATOM      2  C   UNL     1       5.762   1.555   2.349  0.00  0.00    -0.013 C 
BRANCH   2   4
ATOM      3  C   UNL     1       5.849   1.381   4.840  0.00  0.00    -0.010 C 
ATOM      4  C   UNL     1       6.546   0.989   3.535  0.00  0.00    -0.074 C 
ATOM      5  C   UNL     1       6.605  -0.536   3.426  0.00  0.00    -0.010 C 
BRANCH   4   6
ATOM      6  N   UNL     1       7.913   1.541   3.517  0.00  0.00    +0.385 N 
ATOM      7  H   UNL     1       7.867   2.564   3.586  0.00  0.00    -0.085 HD
ATOM      8  H   UNL     1       8.374   1.278   2.638  0.00  0.00    -0.085 HD
BRANCH   6   9
ATOM      9  C   UNL     1       8.694   1.012   4.652  0.00  0.00    -0.033 C 
BRANCH   9  10
ATOM     10  C   UNL     1      10.105   1.601   4.608  0.00  0.00    +0.194 C 
ATOM     11  C   UNL     1      10.966   0.965   5.708  0.00  0.00    +0.271 C 
ATOM     12  O   UNL     1      12.273   1.547   5.647  0.00  0.00    -0.485 OA
ATOM     13  C   UNL     1      12.335   2.901   5.532  0.00  0.00    +0.162 A 
ATOM     14  C   UNL     1      13.524   3.555   5.822  0.00  0.00    +0.049 A 
ATOM     15  C   UNL     1      13.603   4.930   5.707  0.00  0.00    +0.004 A 
ATOM     16  C   UNL     1      12.499   5.658   5.303  0.00  0.00    +0.004 A 
ATOM     17  C   UNL     1      11.312   5.013   5.014  0.00  0.00    +0.049 A 
ATOM     18  C   UNL     1      11.225   3.633   5.128  0.00  0.00    +0.162 A 
ATOM     19  O   UNL     1      10.047   3.012   4.844  0.00  0.00    -0.484 OA
ENDBRANCH   9  10
ENDBRANCH   6   9
ENDBRANCH   4   6
ENDBRANCH   2   4
ENDBRANCH   1   2
BRANCH   1  20
ATOM     20  C   UNL     1       3.557   1.552   1.173  0.00  0.00    -0.001 C 
BRANCH  20  21
ATOM     21  C   UNL     1       2.136   0.985   1.184  0.00  0.00    -0.013 C 
BRANCH  21  22
ATOM     22  C   UNL     1       1.353   1.550  -0.003  0.00  0.00    -0.074 C 
ATOM     23  C   UNL     1       2.049   1.158  -1.307  0.00  0.00    -0.010 C 
ATOM     24  C   UNL     1       1.293   3.075   0.106  0.00  0.00    -0.010 C 
BRANCH  22  25
ATOM     25  N   UNL     1      -0.015   0.998   0.015  0.00  0.00    +0.385 N 
ATOM     26  H   UNL     1      -0.475   1.261   0.894  0.00  0.00    -0.085 HD
ATOM     27  H   UNL     1       0.032  -0.025  -0.054  0.00  0.00    -0.085 HD
BRANCH  25  28
ATOM     28  C   UNL     1      -0.795   1.527  -1.120  0.00  0.00    -0.033 C 
BRANCH  28  29
ATOM     29  C   UNL     1      -2.207   0.938  -1.076  0.00  0.00    +0.194 C 
ATOM     30  C   UNL     1      -2.992   1.381  -2.318  0.00  0.00    +0.271 C 
ATOM     31  O   UNL     1      -4.308   0.824  -2.239  0.00  0.00    -0.485 OA
ATOM     32  C   UNL     1      -4.949   0.936  -1.043  0.00  0.00    +0.162 A 
ATOM     33  C   UNL     1      -6.322   0.752  -0.986  0.00  0.00    +0.049 A 
ATOM     34  C   UNL     1      -6.986   0.859   0.221  0.00  0.00    +0.004 A 
ATOM     35  C   UNL     1      -6.283   1.150   1.376  0.00  0.00    +0.004 A 
ATOM     36  C   UNL     1      -4.915   1.336   1.326  0.00  0.00    +0.049 A 
ATOM     37  C   UNL     1      -4.243   1.231   0.117  0.00  0.00    +0.162 A 
ATOM     38  O   UNL     1      -2.895   1.420   0.084  0.00  0.00    -0.484 OA
ENDBRANCH  28  29
ENDBRANCH  25  28
ENDBRANCH  22  25
ENDBRANCH  21  22
ENDBRANCH  20  21
ENDBRANCH   1  20
TORSDOF 11
