REMARK  Name = ZINC22853322
REMARK  7 active torsions:
REMARK  status: ('A' for Active; 'I' for Inactive)
REMARK    1  A    between atoms: C_1  and  C_2
REMARK    2  A    between atoms: C_2  and  C_3
REMARK    3  A    between atoms: C_9  and  C_11
REMARK    4  A    between atoms: C_11  and  C_13
REMARK    5  A    between atoms: C_11  and  N_22
REMARK    6  A    between atoms: C_16  and  N_19
REMARK    7  A    between atoms: C_25  and  C_28
REMARK                            x       y       z     vdW  Elec       q    Type
REMARK                         _______ _______ _______ _____ _____    ______ ____
ROOT
ATOM      1  C   UNL     1       1.406  -2.157  -0.022  0.00  0.00    +0.006 C 
ENDROOT
BRANCH   1   8
ATOM      2  C   UNL     1       0.672   3.751   0.301  0.00  0.00    +0.152 A 
ATOM      3  N   UNL     1       1.916   3.288   0.196  0.00  0.00    -0.205 NA
ATOM      4  C   UNL     1       1.888   1.985   0.137  0.00  0.00    +0.199 A 
ATOM      5  N   UNL     1       0.599   1.553   0.203  0.00  0.00    -0.170 N 
ATOM      6  N   UNL     1      -0.161   2.746   0.315  0.00  0.00    -0.146 NA
ATOM      7  C   UNL     1       0.386   0.196   0.155  0.00  0.00    +0.282 A 
ATOM      8  C   UNL     1       1.416  -0.652   0.046  0.00  0.00    +0.050 A 
ATOM      9  S   UNL     1       2.806   0.470   0.004  0.00  0.00    -0.050 S 
ATOM     10  O   UNL     1      -0.883  -0.290   0.218  0.00  0.00    -0.265 OA
BRANCH   2  12
ATOM     11  C   UNL     1       0.060   5.765  -1.010  0.00  0.00    +0.012 C 
ATOM     12  C   UNL     1       0.287   5.205   0.396  0.00  0.00    +0.075 C 
ENDBRANCH   2  12
ENDBRANCH   1   8
BRANCH   1  13
ATOM     13  N   UNL     1       2.427  -2.696   0.886  0.00  0.00    +0.387 N 
ATOM     14  C   UNL     1       2.244  -2.180   2.248  0.00  0.00    -0.077 C 
ATOM     15  C   UNL     1       3.405  -2.644   3.131  0.00  0.00    -0.015 C 
ATOM     16  C   UNL     1       3.449  -4.174   3.146  0.00  0.00    -0.018 C 
ATOM     17  C   UNL     1       3.591  -4.687   1.711  0.00  0.00    -0.015 C 
ATOM     18  C   UNL     1       2.425  -4.164   0.869  0.00  0.00    -0.077 C 
ATOM     19  C   UNL     1       4.644  -4.643   3.978  0.00  0.00    +0.007 C 
ATOM     20  H   UNL     1       3.411  -2.358   0.529  0.00  0.00    -0.080 HD
ENDBRANCH   1  13
BRANCH   1  21
ATOM     21  C   UNL     1       1.705  -2.598  -1.432  0.00  0.00    -0.056 A 
ATOM     22  C   UNL     1       2.995  -2.516  -1.923  0.00  0.00    +0.004 A 
ATOM     23  C   UNL     1       3.270  -2.924  -3.215  0.00  0.00    +0.033 A 
ATOM     24  C   UNL     1       2.254  -3.406  -4.019  0.00  0.00    +0.126 A 
ATOM     25  C   UNL     1       0.963  -3.483  -3.530  0.00  0.00    +0.033 A 
ATOM     26  C   UNL     1       0.689  -3.079  -2.236  0.00  0.00    +0.004 A 
BRANCH  24  27
ATOM     27  N   UNL     1       2.548  -3.839  -5.403  0.00  0.00    +0.056 N 
ATOM     28  O   UNL     1       1.652  -4.263  -6.112  0.00  0.00    -0.126 OA
ATOM     29  O   UNL     1       3.685  -3.771  -5.834  0.00  0.00    -0.126 OA
ENDBRANCH  24  27
ENDBRANCH   1  21
TORSDOF 5
