REMARK  Name = ZINC38743167
REMARK  3 active torsions:
REMARK  status: ('A' for Active; 'I' for Inactive)
REMARK    1  A    between atoms: C_4  and  C_7
REMARK    2  A    between atoms: C_9  and  C_13
REMARK    3  A    between atoms: C_21  and  C_23
REMARK                            x       y       z     vdW  Elec       q    Type
REMARK                         _______ _______ _______ _____ _____    ______ ____
ROOT
ATOM      1  C   UNL     1       5.782  -3.012   1.181  0.00  0.00    +0.206 C 
ATOM      2  N   UNL     1       5.166  -4.360   1.202  0.00  0.00    -0.231 NA
ATOM      3  N   UNL     1       6.275  -5.326   1.284  0.00  0.00    -0.224 NA
ATOM      4  C   UNL     1       7.360  -4.534   1.897  0.00  0.00    +0.240 C 
ATOM      5  N   UNL     1       7.244  -3.241   1.144  0.00  0.00    -0.206 N 
ATOM      6  N   UNL     1       8.442  -2.787   0.637  0.00  0.00    -0.173 NA
ATOM      7  C   UNL     1       9.497  -3.541   0.532  0.00  0.00    +0.125 C 
ATOM      8  S   UNL     1       9.007  -5.100   1.332  0.00  0.00    -0.063 S 
ATOM      9  H   UNL     1       4.540  -4.460   1.987  0.00  0.00    +0.143 HD
ATOM     10  H   UNL     1       6.539  -5.652   0.367  0.00  0.00    +0.144 HD
ENDROOT
BRANCH   7  11
ATOM     11  C   UNL     1      10.798  -3.208  -0.086  0.00  0.00    +0.012 A 
ATOM     12  C   UNL     1      11.823  -4.154  -0.113  0.00  0.00    +0.014 A 
ATOM     13  C   UNL     1      13.036  -3.840  -0.690  0.00  0.00    +0.050 A 
ATOM     14  C   UNL     1      13.242  -2.584  -1.246  0.00  0.00    +0.162 A 
ATOM     15  C   UNL     1      12.223  -1.637  -1.224  0.00  0.00    +0.163 A 
ATOM     16  C   UNL     1      11.002  -1.948  -0.650  0.00  0.00    +0.060 A 
ATOM     17  O   UNL     1      12.406  -0.405  -1.772  0.00  0.00    -0.485 OA
ATOM     18  C   UNL     1      13.759  -0.001  -2.011  0.00  0.00    +0.270 C 
ATOM     19  C   UNL     1      14.496  -1.166  -2.685  0.00  0.00    +0.270 C 
ATOM     20  O   UNL     1      14.448  -2.295  -1.806  0.00  0.00    -0.485 OA
ENDBRANCH   7  11
BRANCH   1  23
ATOM     21  C   UNL     1       3.699  -0.689  -0.037  0.00  0.00    +0.091 C 
ATOM     22  C   UNL     1       3.832  -2.029  -0.051  0.00  0.00    +0.034 C 
ATOM     23  C   UNL     1       5.335  -2.245  -0.065  0.00  0.00    +0.190 C 
ATOM     24  N   UNL     1       5.871  -0.874  -0.056  0.00  0.00    -0.176 NA
ATOM     25  N   UNL     1       4.919  -0.090  -0.047  0.00  0.00    -0.154 NA
BRANCH  21  29
ATOM     26  C   UNL     1      -0.017   1.379   0.010  0.00  0.00    +0.000 A 
ATOM     27  C   UNL     1       1.169   2.092   0.002  0.00  0.00    +0.001 A 
ATOM     28  C   UNL     1       2.377   1.426  -0.013  0.00  0.00    +0.010 A 
ATOM     29  C   UNL     1       2.402   0.033  -0.021  0.00  0.00    +0.002 A 
ATOM     30  C   UNL     1       1.205  -0.680  -0.013  0.00  0.00    +0.010 A 
ATOM     31  C   UNL     1       0.002  -0.004   0.002  0.00  0.00    +0.001 A 
ENDBRANCH  21  29
ENDBRANCH   1  23
TORSDOF 3
