REMARK  Name = ZINC25901720
REMARK  9 active torsions:
REMARK  status: ('A' for Active; 'I' for Inactive)
REMARK    1  A    between atoms: C_1  and  C_2
REMARK    2  A    between atoms: C_3  and  C_26
REMARK    3  A    between atoms: C_4  and  C_25
REMARK    4  A    between atoms: C_7  and  C_8
REMARK    5  A    between atoms: C_13  and  N_16
REMARK    6  A    between atoms: N_16  and  S_17
REMARK    7  A    between atoms: S_17  and  C_20
REMARK    8  A    between atoms: C_26  and  O_28
REMARK    9  A    between atoms: O_28  and  C_29
REMARK                            x       y       z     vdW  Elec       q    Type
REMARK                         _______ _______ _______ _____ _____    ______ ____
ROOT
ATOM      1  C   UNL     1       2.498   1.325  -0.014  0.00  0.00    +0.263 C 
ATOM      2  O   UNL     1       3.399   2.135  -0.123  0.00  0.00    -0.268 OA
ATOM      3  N   UNL     1       2.780   0.011   0.079  0.00  0.00    -0.296 N 
ATOM      4  C   UNL     1       1.702  -0.988   0.093  0.00  0.00    +0.109 C 
ATOM      5  C   UNL     1       1.981  -2.023  -1.008  0.00  0.00    +0.039 C 
ATOM      6  C   UNL     1       3.381  -2.607  -0.806  0.00  0.00    +0.080 C 
ATOM      7  C   UNL     1       4.423  -1.492  -0.920  0.00  0.00    +0.039 C 
ATOM      8  C   UNL     1       4.172  -0.451   0.176  0.00  0.00    +0.109 C 
ENDROOT
BRANCH   1  15
ATOM      9  C   UNL     1       0.650   1.329   2.499  0.00  0.00    +0.047 C 
ATOM     10  C   UNL     1       0.287   1.785   1.109  0.00  0.00    -0.006 A 
ATOM     11  C   UNL     1      -0.961   2.300   0.692  0.00  0.00    +0.083 A 
ATOM     12  C   UNL     1      -0.849   2.594  -0.654  0.00  0.00    +0.028 A 
ATOM     13  N   UNL     1       0.391   2.275  -1.055  0.00  0.00    -0.354 N 
ATOM     14  H   UNL     1       0.687   2.428  -2.104  0.00  0.00    +0.166 HD
ATOM     15  C   UNL     1       1.102   1.780   0.016  0.00  0.00    +0.106 A 
ATOM     16  C   UNL     1      -1.936   3.172  -1.524  0.00  0.00    +0.064 C 
BRANCH  11  17
ATOM     17  C   UNL     1      -2.154   2.491   1.534  0.00  0.00    +0.341 C 
ATOM     18  O   UNL     1      -2.324   3.544   2.117  0.00  0.00    -0.245 OA
BRANCH  17  19
ATOM     19  O   UNL     1      -3.058   1.499   1.658  0.00  0.00    -0.464 OA
ATOM     20  C   UNL     1      -4.209   1.758   2.503  0.00  0.00    +0.280 C 
ENDBRANCH  17  19
ENDBRANCH  11  17
ENDBRANCH   1  15
BRANCH   6  21
ATOM     21  N   UNL     1       3.639  -3.621  -1.832  0.00  0.00    -0.186 NA
ATOM     22  H   UNL     1       3.862  -3.315  -2.865  0.00  0.00    +0.148 HD
BRANCH  21  23
ATOM     23  S   UNL     1       3.353  -5.220  -1.506  0.00  0.00    +0.065 S 
ATOM     24  O   UNL     1       3.669  -5.938  -2.690  0.00  0.00    -0.153 OA
ATOM     25  O   UNL     1       3.974  -5.497  -0.258  0.00  0.00    -0.153 OA
BRANCH  23  26
ATOM     26  C   UNL     1       1.618  -5.399  -1.257  0.00  0.00    +0.142 A 
ATOM     27  C   UNL     1       0.649  -5.672  -2.164  0.00  0.00    +0.036 A 
ATOM     28  C   UNL     1      -0.662  -5.768  -1.736  0.00  0.00    +0.010 A 
ATOM     29  C   UNL     1      -0.940  -5.587  -0.422  0.00  0.00    +0.047 A 
ATOM     30  S   UNL     1       0.681  -5.275   0.258  0.00  0.00    -0.077 S 
ENDBRANCH  23  26
ENDBRANCH  21  23
ENDBRANCH   6  21
TORSDOF 6
