REMARK  Name = ZINC03595719
REMARK  5 active torsions:
REMARK  status: ('A' for Active; 'I' for Inactive)
REMARK    1  A    between atoms: C_1  and  C_2
REMARK    2  A    between atoms: N_11  and  C_15
REMARK    3  A    between atoms: C_15  and  C_16
REMARK    4  A    between atoms: N_18  and  C_19
REMARK    5  A    between atoms: N_18  and  C_25
REMARK                            x       y       z     vdW  Elec       q    Type
REMARK                         _______ _______ _______ _____ _____    ______ ____
ROOT
ATOM      1  C   UNL     1       2.060   3.341   1.660  0.00  0.00    +0.213 C 
ENDROOT
BRANCH   1  11
ATOM      2  C   UNL     1       1.841  -1.085   1.813  0.00  0.00    +0.010 C 
ATOM      3  C   UNL     1       0.360  -1.022   1.437  0.00  0.00    +0.018 C 
ATOM      4  C   UNL     1      -0.493  -1.224   2.692  0.00  0.00    +0.006 C 
ATOM      5  C   UNL     1      -1.975  -1.140   2.319  0.00  0.00    +0.000 C 
ATOM      6  C   UNL     1      -2.275   0.239   1.727  0.00  0.00    +0.003 C 
ATOM      7  C   UNL     1      -1.429   0.447   0.468  0.00  0.00    +0.035 C 
ATOM      8  C   UNL     1       0.050   0.339   0.822  0.00  0.00    +0.115 C 
ATOM      9  C   UNL     1       0.449   1.448   1.767  0.00  0.00    +0.247 C 
ATOM     10  O   UNL     1       0.016   1.655   2.881  0.00  0.00    -0.273 OA
ATOM     11  N   UNL     1       1.389   2.160   1.111  0.00  0.00    -0.215 N 
ATOM     12  C   UNL     1       1.631   1.654  -0.104  0.00  0.00    +0.310 C 
ATOM     13  O   UNL     1       2.438   2.123  -0.883  0.00  0.00    -0.252 OA
ATOM     14  N   UNL     1       0.881   0.567  -0.367  0.00  0.00    -0.285 N 
ATOM     15  H   UNL     1       0.888   0.038  -1.180  0.00  0.00    +0.151 HD
ENDBRANCH   1  11
BRANCH   1  16
ATOM     16  C   UNL     1       3.303   2.914   2.397  0.00  0.00    +0.234 C 
ATOM     17  O   UNL     1       3.401   1.780   2.815  0.00  0.00    -0.274 OA
ATOM     18  N   UNL     1       4.306   3.794   2.592  0.00  0.00    -0.294 N 
BRANCH  18  19
ATOM     19  C   UNL     1       5.582   3.338   3.150  0.00  0.00    +0.076 C 
ATOM     20  C   UNL     1       5.367   2.853   4.585  0.00  0.00    +0.022 C 
ATOM     21  C   UNL     1       6.699   2.377   5.167  0.00  0.00    +0.002 C 
ATOM     22  C   UNL     1       7.246   1.228   4.317  0.00  0.00    +0.000 C 
ATOM     23  C   UNL     1       7.461   1.713   2.882  0.00  0.00    +0.002 C 
ATOM     24  C   UNL     1       6.128   2.189   2.300  0.00  0.00    +0.022 C 
ENDBRANCH  18  19
BRANCH  18  25
ATOM     25  C   UNL     1       4.120   5.205   2.247  0.00  0.00    +0.076 C 
ATOM     26  C   UNL     1       2.757   5.679   2.755  0.00  0.00    +0.022 C 
ATOM     27  C   UNL     1       2.563   7.154   2.395  0.00  0.00    +0.002 C 
ATOM     28  C   UNL     1       2.626   7.319   0.875  0.00  0.00    +0.000 C 
ATOM     29  C   UNL     1       3.989   6.845   0.366  0.00  0.00    +0.002 C 
ATOM     30  C   UNL     1       4.183   5.371   0.727  0.00  0.00    +0.022 C 
ENDBRANCH  18  25
ENDBRANCH   1  16
TORSDOF 4
