REMARK  Name = ZINC36574195
REMARK  14 active torsions:
REMARK  status: ('A' for Active; 'I' for Inactive)
REMARK    1  A    between atoms: C_1  and  C_2
REMARK    2  A    between atoms: C_2  and  C_3
REMARK    3  A    between atoms: C_3  and  N_4
REMARK    4  A    between atoms: N_4  and  C_5
REMARK    5  A    between atoms: C_5  and  C_7
REMARK    6  A    between atoms: C_5  and  C_16
REMARK    7  A    between atoms: C_8  and  O_15
REMARK    8  A    between atoms: C_10  and  O_14
REMARK    9  A    between atoms: C_12  and  O_13
REMARK   10  A    between atoms: N_18  and  C_19
REMARK   11  A    between atoms: C_19  and  C_20
REMARK   12  A    between atoms: C_19  and  C_21
REMARK   13  A    between atoms: C_19  and  C_22
REMARK   14  A    between atoms: C_23  and  C_25
REMARK                            x       y       z     vdW  Elec       q    Type
REMARK                         _______ _______ _______ _____ _____    ______ ____
ROOT
ATOM      1  C   UNL     1      -1.582  -2.717   1.153  0.00  0.00    +0.199 C 
ENDROOT
BRANCH   1   2
ATOM      2  C   UNL     1      -2.800  -1.884   1.459  0.00  0.00    +0.065 A 
ATOM      3  C   UNL     1      -3.911  -2.470   2.046  0.00  0.00    +0.129 A 
ATOM      4  C   UNL     1      -5.032  -1.703   2.328  0.00  0.00    +0.091 A 
ATOM      5  C   UNL     1      -5.040  -0.350   2.023  0.00  0.00    +0.124 A 
ATOM      6  C   UNL     1      -3.929   0.236   1.437  0.00  0.00    +0.091 A 
ATOM      7  C   UNL     1      -2.806  -0.530   1.159  0.00  0.00    +0.129 A 
BRANCH   7   8
ATOM      8  O   UNL     1      -1.715   0.045   0.589  0.00  0.00    -0.506 OA
ATOM      9  H   UNL     1      -1.723   0.033  -0.377  0.00  0.00    +0.292 HD
ENDBRANCH   7   8
BRANCH   5  10
ATOM     10  O   UNL     1      -6.139   0.402   2.298  0.00  0.00    -0.507 OA
ATOM     11  H   UNL     1      -6.131   0.801   3.179  0.00  0.00    +0.292 HD
ENDBRANCH   5  10
BRANCH   3  12
ATOM     12  O   UNL     1      -3.903  -3.796   2.344  0.00  0.00    -0.506 OA
ATOM     13  H   UNL     1      -3.647  -3.992   3.256  0.00  0.00    +0.292 HD
ENDBRANCH   3  12
ENDBRANCH   1   2
BRANCH   1  14
ATOM     14  C   UNL     1      -0.500  -2.414   2.157  0.00  0.00    +0.239 C 
ATOM     15  O   UNL     1       0.042  -1.329   2.156  0.00  0.00    -0.273 OA
ATOM     16  N   UNL     1      -0.135  -3.349   3.057  0.00  0.00    -0.309 N 
ATOM     17  H   UNL     1      -0.569  -4.216   3.059  0.00  0.00    +0.149 HD
BRANCH  16  18
ATOM     18  C   UNL     1       0.916  -3.054   4.034  0.00  0.00    +0.026 C 
ATOM     19  C   UNL     1       0.495  -1.859   4.892  0.00  0.00    +0.031 C 
ATOM     20  C   UNL     1       1.135  -4.274   4.931  0.00  0.00    +0.031 C 
ATOM     21  C   UNL     1       2.216  -2.722   3.299  0.00  0.00    +0.031 C 
ENDBRANCH  16  18
ENDBRANCH   1  14
BRANCH   1  22
ATOM     22  N   UNL     1      -1.100  -2.401  -0.194  0.00  0.00    -0.285 N 
ATOM     23  C   UNL     1      -1.873  -2.666  -1.266  0.00  0.00    +0.231 C 
ATOM     24  O   UNL     1      -1.474  -2.405  -2.381  0.00  0.00    -0.274 OA
BRANCH  23  25
ATOM     25  C   UNL     1      -3.234  -3.287  -1.079  0.00  0.00    +0.204 C 
ATOM     26 CL   UNL     1      -4.017  -3.515  -2.687  0.00  0.00    -0.116 Cl
ENDBRANCH  23  25
BRANCH  22  27
ATOM     27  C   UNL     1       0.222  -1.798  -0.376  0.00  0.00    +0.108 C 
BRANCH  27  29
ATOM     28  C   UNL     1       2.647  -2.280  -0.741  0.00  0.00    +0.005 C 
ATOM     29  C   UNL     1       1.283  -2.900  -0.428  0.00  0.00    +0.016 C 
ENDBRANCH  27  29
ENDBRANCH  22  27
ENDBRANCH   1  22
TORSDOF 10
