REMARK  Name = ZINC15590261
REMARK  13 active torsions:
REMARK  status: ('A' for Active; 'I' for Inactive)
REMARK    1  A    between atoms: C_1  and  C_2
REMARK    2  A    between atoms: C_2  and  C_3
REMARK    3  A    between atoms: C_2  and  C_4
REMARK    4  A    between atoms: C_2  and  C_5
REMARK    5  A    between atoms: C_8  and  C_11
REMARK    6  A    between atoms: N_13  and  C_14
REMARK    7  A    between atoms: C_14  and  C_15
REMARK    8  A    between atoms: C_15  and  C_16
REMARK    9  A    between atoms: N_18  and  C_19
REMARK   10  A    between atoms: C_19  and  C_20
REMARK   11  A    between atoms: C_20  and  C_21
REMARK   12  A    between atoms: C_24  and  S_27
REMARK   13  A    between atoms: S_27  and  N_30
REMARK                            x       y       z     vdW  Elec       q    Type
REMARK                         _______ _______ _______ _____ _____    ______ ____
ROOT
ATOM      1  C   UNL     1       3.719   1.508  -0.025  0.00  0.00    +0.215 C 
ATOM      2  O   UNL     1       3.702   2.721  -0.019  0.00  0.00    -0.276 OA
ATOM      3  N   UNL     1       4.895   0.851  -0.040  0.00  0.00    -0.315 N 
ATOM      4  H   UNL     1       4.908  -0.119  -0.045  0.00  0.00    +0.149 HD
ENDROOT
BRANCH   1   5
ATOM      5  C   UNL     1       2.424   0.737  -0.017  0.00  0.00    +0.114 C 
BRANCH   5   6
ATOM      6  C   UNL     1       1.248   1.716  -0.001  0.00  0.00    +0.113 C 
BRANCH   6   9
ATOM      7  C   UNL     1      -1.187   1.624   0.017  0.00  0.00    +0.244 C 
ATOM      8  O   UNL     1      -1.204   2.839   0.023  0.00  0.00    -0.270 OA
ATOM      9  N   UNL     1      -0.011   0.966   0.007  0.00  0.00    -0.311 N 
ATOM     10  H   UNL     1       0.002  -0.004   0.002  0.00  0.00    +0.149 HD
BRANCH   7  14
ATOM     11  C   UNL     1      -4.837  -0.550   0.021  0.00  0.00    -0.042 A 
ATOM     12  C   UNL     1      -4.859   0.834   0.029  0.00  0.00    +0.005 A 
ATOM     13  C   UNL     1      -3.677   1.546   0.028  0.00  0.00    +0.013 A 
ATOM     14  C   UNL     1      -2.458   0.867   0.018  0.00  0.00    +0.037 A 
ATOM     15  C   UNL     1      -2.442  -0.528   0.005  0.00  0.00    +0.013 A 
ATOM     16  C   UNL     1      -3.631  -1.228   0.011  0.00  0.00    +0.005 A 
BRANCH  11  18
ATOM     17  C   UNL     1      -6.945  -0.955  -1.221  0.00  0.00    +0.015 C 
ATOM     18  C   UNL     1      -6.131  -1.321   0.022  0.00  0.00    -0.013 C 
ATOM     19  C   UNL     1      -5.832  -2.821   0.011  0.00  0.00    +0.015 C 
ATOM     20  C   UNL     1      -6.933  -0.970   1.277  0.00  0.00    +0.015 C 
ENDBRANCH  11  18
ENDBRANCH   7  14
ENDBRANCH   6   9
ENDBRANCH   5   6
ENDBRANCH   1   5
BRANCH   3  21
ATOM     21  C   UNL     1       6.153   1.600  -0.048  0.00  0.00    +0.109 C 
BRANCH  21  22
ATOM     22  C   UNL     1       7.330   0.622  -0.065  0.00  0.00    +0.054 C 
BRANCH  22  23
ATOM     23  C   UNL     1       8.624   1.393  -0.073  0.00  0.00    -0.046 A 
ATOM     24  C   UNL     1       9.210   1.748  -1.274  0.00  0.00    +0.005 A 
ATOM     25  C   UNL     1      10.395   2.459  -1.281  0.00  0.00    +0.029 A 
ATOM     26  C   UNL     1      11.000   2.808  -0.088  0.00  0.00    +0.105 A 
ATOM     27  C   UNL     1      10.417   2.448   1.113  0.00  0.00    +0.029 A 
ATOM     28  C   UNL     1       9.229   1.740   1.121  0.00  0.00    +0.005 A 
BRANCH  26  29
ATOM     29  S   UNL     1      12.513   3.710  -0.098  0.00  0.00    +0.056 S 
ATOM     30  O   UNL     1      12.568   4.397  -1.340  0.00  0.00    -0.153 OA
ATOM     31  O   UNL     1      12.591   4.386   1.150  0.00  0.00    -0.153 OA
BRANCH  29  32
ATOM     32  N   UNL     1      13.744   2.603  -0.114  0.00  0.00    -0.204 NA
ATOM     33  H   UNL     1      13.542   1.654  -0.117  0.00  0.00    +0.144 HD
ATOM     34  H   UNL     1      14.666   2.903  -0.121  0.00  0.00    +0.144 HD
ENDBRANCH  29  32
ENDBRANCH  26  29
ENDBRANCH  22  23
ENDBRANCH  21  22
ENDBRANCH   3  21
TORSDOF 10
