REMARK  Name = ZINC23995449
REMARK  7 active torsions:
REMARK  status: ('A' for Active; 'I' for Inactive)
REMARK    1  A    between atoms: C_1  and  C_2
REMARK    2  A    between atoms: C_2  and  C_3
REMARK    3  A    between atoms: C_7  and  C_28
REMARK    4  A    between atoms: C_8  and  N_9
REMARK    5  A    between atoms: C_10  and  C_12
REMARK    6  A    between atoms: C_12  and  N_13
REMARK    7  A    between atoms: C_28  and  C_29
REMARK                            x       y       z     vdW  Elec       q    Type
REMARK                         _______ _______ _______ _____ _____    ______ ____
ROOT
ATOM      1  C   UNL     1      -3.068   5.314   2.151  0.00  0.00    +0.214 C 
ENDROOT
BRANCH   1   2
ATOM      2  N   UNL     1      -2.173   4.280   2.676  0.00  0.00    -0.215 N 
ATOM      3  C   UNL     1      -2.492   2.971   2.761  0.00  0.00    +0.251 C 
ATOM      4  O   UNL     1      -3.532   2.444   2.430  0.00  0.00    -0.272 OA
ATOM      5  C   UNL     1      -1.278   2.305   3.355  0.00  0.00    +0.138 C 
ATOM      6  C   UNL     1      -1.619   1.604   4.676  0.00  0.00    +0.045 C 
ATOM      7  C   UNL     1      -1.862   0.148   4.218  0.00  0.00    +0.038 C 
ATOM      8  C   UNL     1      -1.062  -0.007   2.942  0.00  0.00    -0.042 A 
ATOM      9  C   UNL     1      -0.727   1.242   2.444  0.00  0.00    -0.012 A 
ATOM     10  C   UNL     1       0.008   1.339   1.275  0.00  0.00    +0.006 A 
ATOM     11  C   UNL     1       0.409   0.199   0.606  0.00  0.00    +0.000 A 
ATOM     12  C   UNL     1       0.075  -1.046   1.104  0.00  0.00    +0.000 A 
ATOM     13  C   UNL     1      -0.659  -1.148   2.269  0.00  0.00    +0.004 A 
ATOM     14  N   UNL     1      -0.323   3.394   3.560  0.00  0.00    -0.281 N 
ATOM     15  C   UNL     1      -0.936   4.517   3.132  0.00  0.00    +0.310 C 
ATOM     16  O   UNL     1      -0.423   5.619   3.158  0.00  0.00    -0.252 OA
ATOM     17  H   UNL     1       0.668   3.184   3.990  0.00  0.00    +0.152 HD
ENDBRANCH   1   2
BRANCH   1  19
ATOM     18  N   UNL     1      -3.574   6.355  -0.035  0.00  0.00    -0.284 N 
ATOM     19  C   UNL     1      -2.854   5.457   0.666  0.00  0.00    +0.235 C 
ATOM     20  O   UNL     1      -2.034   4.763   0.102  0.00  0.00    -0.274 OA
ATOM     21  H   UNL     1      -4.354   6.946   0.466  0.00  0.00    +0.155 HD
BRANCH  18  27
ATOM     22  C   UNL     1      -4.384   6.541  -2.303  0.00  0.00    -0.026 A 
ATOM     23  C   UNL     1      -4.139   6.720  -3.650  0.00  0.00    +0.007 A 
ATOM     24  C   UNL     1      -2.844   6.893  -4.102  0.00  0.00    +0.020 A 
ATOM     25  C   UNL     1      -1.789   6.888  -3.206  0.00  0.00    +0.046 A 
ATOM     26  C   UNL     1      -2.029   6.715  -1.856  0.00  0.00    -0.008 A 
ATOM     27  C   UNL     1      -3.328   6.535  -1.401  0.00  0.00    +0.041 A 
ATOM     28 CL   UNL     1      -0.164   7.105  -3.778  0.00  0.00    -0.083 Cl
BRANCH  22  30
ATOM     29  C   UNL     1      -6.364   7.702  -1.363  0.00  0.00    +0.009 C 
ATOM     30  C   UNL     1      -5.796   6.353  -1.812  0.00  0.00    +0.033 C 
ENDBRANCH  22  30
BRANCH  26  31
ATOM     31  C   UNL     1      -0.880   6.714  -0.880  0.00  0.00    +0.035 C 
ATOM     32  C   UNL     1       0.355   6.105  -1.546  0.00  0.00    +0.009 C 
ENDBRANCH  26  31
ENDBRANCH  18  27
ENDBRANCH   1  19
TORSDOF 5
