REMARK  Name = ZINC06624354
REMARK  6 active torsions:
REMARK  status: ('A' for Active; 'I' for Inactive)
REMARK    1  A    between atoms: C_1  and  C_2
REMARK    2  A    between atoms: C_2  and  C_3
REMARK    3  A    between atoms: C_2  and  C_4
REMARK    4  A    between atoms: C_4  and  N_5
REMARK    5  A    between atoms: C_19  and  O_25
REMARK    6  A    between atoms: O_25  and  C_26
REMARK                            x       y       z     vdW  Elec       q    Type
REMARK                         _______ _______ _______ _____ _____    ______ ____
ROOT
ATOM      1  N   UNL     1      -0.721   1.571  -1.179  0.00  0.00    -0.271 N 
ATOM      2  C   UNL     1      -1.741   0.879  -1.808  0.00  0.00    +0.039 A 
ATOM      3  C   UNL     1      -2.309  -0.354  -1.481  0.00  0.00    +0.024 A 
ATOM      4  C   UNL     1      -3.336  -0.814  -2.290  0.00  0.00    +0.002 A 
ATOM      5  C   UNL     1      -3.791  -0.091  -3.374  0.00  0.00    +0.000 A 
ATOM      6  C   UNL     1      -3.238   1.141  -3.707  0.00  0.00    +0.005 A 
ATOM      7  C   UNL     1      -2.216   1.605  -2.907  0.00  0.00    -0.023 A 
ATOM      8  C   UNL     1      -1.403   2.858  -2.963  0.00  0.00    +0.079 C 
ATOM      9  C   UNL     1      -0.452   2.743  -1.792  0.00  0.00    +0.219 C 
ATOM     10  O   UNL     1       0.392   3.551  -1.465  0.00  0.00    -0.276 OA
ATOM     11  C   UNL     1      -2.272   4.078  -2.807  0.00  0.00    +0.022 A 
ATOM     12  C   UNL     1      -2.093   5.202  -3.540  0.00  0.00    -0.021 A 
ATOM     13  C   UNL     1      -3.103   6.149  -3.125  0.00  0.00    +0.006 A 
ATOM     14  C   UNL     1      -3.404   7.455  -3.528  0.00  0.00    +0.056 A 
ATOM     15  C   UNL     1      -4.469   8.075  -2.893  0.00  0.00    +0.121 A 
ATOM     16  C   UNL     1      -5.205   7.436  -1.902  0.00  0.00    +0.047 A 
ATOM     17  C   UNL     1      -4.922   6.145  -1.491  0.00  0.00    +0.030 A 
ATOM     18  C   UNL     1      -3.857   5.499  -2.114  0.00  0.00    +0.047 A 
ATOM     19  N   UNL     1      -3.325   4.249  -1.950  0.00  0.00    -0.358 N 
ATOM     20  H   UNL     1      -3.646   3.584  -1.321  0.00  0.00    +0.166 HD
ATOM     21  C   UNL     1      -1.011   5.350  -4.579  0.00  0.00    +0.018 C 
ATOM     22  C   UNL     1       0.029   4.245  -4.348  0.00  0.00    -0.075 C 
ATOM     23  N   UNL     1      -0.651   2.938  -4.229  0.00  0.00    +0.395 N 
ATOM     24  H   UNL     1      -1.301   2.822  -5.015  0.00  0.00    -0.083 HD
ATOM     25  H   UNL     1       0.051   2.189  -4.252  0.00  0.00    -0.083 HD
ENDROOT
BRANCH  15  26
ATOM     26  O   UNL     1      -4.803   9.345  -3.249  0.00  0.00    -0.495 OA
ATOM     27  C   UNL     1      -5.908   9.941  -2.565  0.00  0.00    +0.277 C 
ENDBRANCH  15  26
BRANCH   1  28
ATOM     28  C   UNL     1      -0.013   1.086   0.008  0.00  0.00    +0.116 C 
BRANCH  28  30
ATOM     29  C   UNL     1      -0.064   0.971   2.503  0.00  0.00    +0.009 C 
ATOM     30  C   UNL     1      -0.729   1.579   1.267  0.00  0.00    +0.001 C 
ATOM     31  C   UNL     1      -0.641   3.105   1.339  0.00  0.00    +0.009 C 
ENDBRANCH  28  30
ENDBRANCH   1  28
TORSDOF 3
