REMARK  Name = ZINC13057137
REMARK  10 active torsions:
REMARK  status: ('A' for Active; 'I' for Inactive)
REMARK    1  A    between atoms: C_1  and  C_2
REMARK    2  A    between atoms: C_2  and  N_3
REMARK    3  A    between atoms: N_3  and  C_4
REMARK    4  A    between atoms: C_5  and  N_20
REMARK    5  A    between atoms: N_6  and  C_13
REMARK    6  A    between atoms: C_13  and  C_14
REMARK    7  A    between atoms: C_21  and  C_23
REMARK    8  A    between atoms: C_23  and  N_61
REMARK    9  A    between atoms: C_25  and  C_32
REMARK   10  A    between atoms: C_28  and  C_31
REMARK                            x       y       z     vdW  Elec       q    Type
REMARK                         _______ _______ _______ _____ _____    ______ ____
ROOT
ATOM      1  C   UNL     1       2.365   1.196  -0.006  0.00  0.00    +0.140 A 
ATOM      2  C   UNL     1       2.663   0.294   0.995  0.00  0.00    +0.128 A 
ATOM      3  N   UNL     1       3.902  -0.304   1.012  0.00  0.00    -0.276 N 
ATOM      4  C   UNL     1       4.816  -0.005   0.071  0.00  0.00    +0.331 A 
ATOM      5  O   UNL     1       5.907  -0.541   0.107  0.00  0.00    -0.246 OA
ATOM      6  N   UNL     1       4.544   0.875  -0.909  0.00  0.00    -0.273 N 
ATOM      7  H   UNL     1       5.241   1.079  -1.597  0.00  0.00    +0.173 HD
ATOM      8  C   UNL     1       3.345   1.485  -0.974  0.00  0.00    +0.277 A 
ATOM      9  O   UNL     1       3.110   2.283  -1.867  0.00  0.00    -0.266 OA
ENDROOT
BRANCH   1  10
ATOM     10  N   UNL     1       1.102   1.823  -0.054  0.00  0.00    -0.266 N 
ATOM     11  C   UNL     1      -0.011   1.084  -0.239  0.00  0.00    +0.203 C 
ATOM     12  O   UNL     1       0.079  -0.108  -0.448  0.00  0.00    -0.277 OA
BRANCH  10  14
ATOM     13  C   UNL     1       0.870   3.627   1.582  0.00  0.00    +0.025 C 
ATOM     14  C   UNL     1       0.999   3.277   0.098  0.00  0.00    +0.110 C 
ENDBRANCH  10  14
BRANCH  11  15
ATOM     15  C   UNL     1      -1.368   1.739  -0.193  0.00  0.00    +0.019 C 
BRANCH  15  23
ATOM     16  C   UNL     1      -3.744   1.277  -0.159  0.00  0.00    -0.075 C 
ATOM     17  C   UNL     1      -4.786   0.162  -0.273  0.00  0.00    -0.031 C 
ATOM     18  C   UNL     1      -4.734  -0.436  -1.682  0.00  0.00    +0.003 C 
ATOM     19  C   UNL     1      -3.320  -0.955  -1.956  0.00  0.00    -0.031 C 
ATOM     20  C   UNL     1      -2.320   0.192  -1.793  0.00  0.00    -0.075 C 
ATOM     21  C   UNL     1      -3.243  -1.501  -3.383  0.00  0.00    +0.005 C 
ATOM     22  C   UNL     1      -6.179   0.737  -0.013  0.00  0.00    +0.005 C 
ATOM     23  N   UNL     1      -2.403   0.707  -0.409  0.00  0.00    +0.386 N 
ATOM     24  H   UNL     1      -2.243  -0.068   0.245  0.00  0.00    -0.081 HD
ENDBRANCH  15  23
ENDBRANCH  11  15
ENDBRANCH   1  10
BRANCH   2  25
ATOM     25  N   UNL     1       1.732  -0.007   1.959  0.00  0.00    -0.343 N 
ATOM     26  H   UNL     1       0.902   0.492   2.004  0.00  0.00    +0.144 HD
ATOM     27  H   UNL     1       1.905  -0.719   2.595  0.00  0.00    +0.144 HD
ENDBRANCH   2  25
BRANCH   3  28
ATOM     28  C   UNL     1       4.230  -1.268   2.065  0.00  0.00    +0.163 C 
BRANCH  28  29
ATOM     29  C   UNL     1       4.834  -0.542   3.240  0.00  0.00    -0.028 A 
ATOM     30  C   UNL     1       6.203  -0.359   3.309  0.00  0.00    +0.005 A 
ATOM     31  C   UNL     1       6.757   0.311   4.384  0.00  0.00    +0.000 A 
ATOM     32  C   UNL     1       5.943   0.789   5.394  0.00  0.00    +0.000 A 
ATOM     33  C   UNL     1       4.575   0.600   5.328  0.00  0.00    +0.000 A 
ATOM     34  C   UNL     1       4.021  -0.065   4.250  0.00  0.00    +0.005 A 
ENDBRANCH  28  29
ENDBRANCH   3  28
TORSDOF 7
