REMARK  Name = ZINC06110362
REMARK  5 active torsions:
REMARK  status: ('A' for Active; 'I' for Inactive)
REMARK    1  A    between atoms: C_1  and  C_2
REMARK    2  A    between atoms: N_13  and  C_16
REMARK    3  A    between atoms: C_16  and  C_17
REMARK    4  A    between atoms: N_22  and  C_23
REMARK    5  A    between atoms: C_23  and  C_24
REMARK                            x       y       z     vdW  Elec       q    Type
REMARK                         _______ _______ _______ _____ _____    ______ ____
ROOT
ATOM      1  C   UNL     1       3.546   2.093  -1.322  0.00  0.00    +0.008 C 
ATOM      2  C   UNL     1       2.194   1.398  -1.157  0.00  0.00    -0.009 C 
ATOM      3  C   UNL     1       1.421   2.037  -0.001  0.00  0.00    +0.008 C 
ATOM      4  C   UNL     1      -0.019   1.522   0.010  0.00  0.00    +0.037 C 
ATOM      5  C   UNL     1       0.002  -0.004   0.002  0.00  0.00    -0.023 A 
ATOM      6  C   UNL     1       1.113  -0.674  -0.386  0.00  0.00    -0.004 A 
ATOM      7  S   UNL     1       0.692  -2.393  -0.240  0.00  0.00    -0.073 S 
ATOM      8  C   UNL     1      -0.965  -2.210   0.338  0.00  0.00    +0.116 A 
ATOM      9  C   UNL     1      -1.139  -0.809   0.399  0.00  0.00    +0.076 A 
ATOM     10  C   UNL     1      -2.417  -0.330   0.843  0.00  0.00    +0.263 A 
ATOM     11  O   UNL     1      -2.669   0.859   0.931  0.00  0.00    -0.267 OA
ATOM     12  N   UNL     1      -3.325  -1.284   1.159  0.00  0.00    -0.290 N 
ATOM     13  C   UNL     1      -3.065  -2.611   1.068  0.00  0.00    +0.203 A 
ATOM     14  N   UNL     1      -1.908  -3.088   0.665  0.00  0.00    -0.230 NA
ATOM     15  C   UNL     1       2.414  -0.088  -0.839  0.00  0.00    +0.046 C 
ENDROOT
BRANCH  12  16
ATOM     16  C   UNL     1      -4.650  -0.862   1.620  0.00  0.00    +0.222 C 
BRANCH  16  17
ATOM     17  C   UNL     1      -5.571  -0.717   0.436  0.00  0.00    +0.240 C 
ATOM     18  O   UNL     1      -5.161  -0.943  -0.682  0.00  0.00    -0.273 OA
ATOM     19  N   UNL     1      -6.850  -0.335   0.621  0.00  0.00    -0.239 N 
ATOM     20  C   UNL     1      -7.674  -0.204  -0.438  0.00  0.00    +0.306 C 
ATOM     21  O   UNL     1      -7.263  -0.431  -1.559  0.00  0.00    -0.252 OA
ATOM     22  N   UNL     1      -8.953   0.177  -0.254  0.00  0.00    -0.292 N 
ATOM     23  H   UNL     1      -7.178  -0.154   1.515  0.00  0.00    +0.159 HD
ATOM     24  H   UNL     1      -9.281   0.358   0.641  0.00  0.00    +0.151 HD
BRANCH  22  25
ATOM     25  C   UNL     1      -9.849   0.319  -1.404  0.00  0.00    +0.180 C 
BRANCH  25  26
ATOM     26  C   UNL     1     -11.212   0.753  -0.930  0.00  0.00    +0.122 A 
ATOM     27  C   UNL     1     -11.626   2.024  -0.785  0.00  0.00    +0.046 A 
ATOM     28  C   UNL     1     -12.960   1.970  -0.321  0.00  0.00    +0.041 A 
ATOM     29  C   UNL     1     -13.282   0.668  -0.210  0.00  0.00    +0.195 A 
ATOM     30  O   UNL     1     -12.220  -0.064  -0.586  0.00  0.00    -0.466 OA
ENDBRANCH  25  26
ENDBRANCH  22  25
ENDBRANCH  16  17
ENDBRANCH  12  16
TORSDOF 4
