REMARK  Name = ZINC05838847
REMARK  10 active torsions:
REMARK  status: ('A' for Active; 'I' for Inactive)
REMARK    1  A    between atoms: C_1  and  C_2
REMARK    2  A    between atoms: C_2  and  C_3
REMARK    3  A    between atoms: C_3  and  N_43
REMARK    4  A    between atoms: C_4  and  C_5
REMARK    5  A    between atoms: C_4  and  N_43
REMARK    6  A    between atoms: C_5  and  C_6
REMARK    7  A    between atoms: C_6  and  C_8
REMARK    8  A    between atoms: C_6  and  O_26
REMARK    9  A    between atoms: C_10  and  C_22
REMARK   10  A    between atoms: C_17  and  C_18
REMARK                            x       y       z     vdW  Elec       q    Type
REMARK                         _______ _______ _______ _____ _____    ______ ____
ROOT
ATOM      1  C   UNL     1      -0.603   2.552   3.539  0.00  0.00    -0.008 A 
ATOM      2  C   UNL     1       0.020   2.111   2.406  0.00  0.00    +0.039 A 
ATOM      3  C   UNL     1      -0.722   1.881   1.250  0.00  0.00    +0.145 A 
ATOM      4  N   UNL     1      -2.017   2.081   1.210  0.00  0.00    -0.242 NA
ATOM      5  C   UNL     1      -2.688   2.507   2.285  0.00  0.00    +0.084 A 
ATOM      6  C   UNL     1      -1.994   2.761   3.494  0.00  0.00    +0.007 A 
ATOM      7  C   UNL     1      -2.702   3.214   4.619  0.00  0.00    +0.010 A 
ATOM      8  C   UNL     1      -4.047   3.404   4.535  0.00  0.00    +0.001 A 
ATOM      9  C   UNL     1      -4.732   3.155   3.347  0.00  0.00    +0.014 A 
ATOM     10  C   UNL     1      -4.077   2.716   2.238  0.00  0.00    +0.081 A 
ENDROOT
BRANCH  10  11
ATOM     11  C   UNL     1      -4.839   2.454   0.964  0.00  0.00    +0.419 C 
ATOM     12  F   UNL     1      -6.195   2.732   1.166  0.00  0.00    -0.166 F 
ATOM     13  F   UNL     1      -4.341   3.274  -0.054  0.00  0.00    -0.166 F 
ATOM     14  F   UNL     1      -4.688   1.112   0.598  0.00  0.00    -0.166 F 
ENDBRANCH  10  11
BRANCH   3  15
ATOM     15  C   UNL     1      -0.017   1.395   0.010  0.00  0.00    +0.434 C 
ATOM     16  F   UNL     1       0.002  -0.004   0.002  0.00  0.00    -0.164 F 
ATOM     17  F   UNL     1       1.296   1.879  -0.000  0.00  0.00    -0.164 F 
ATOM     18  F   UNL     1      -0.694   1.858  -1.124  0.00  0.00    -0.164 F 
ENDBRANCH   3  15
BRANCH   1  19
ATOM     19  C   UNL     1       0.179   2.808   4.802  0.00  0.00    +0.143 C 
BRANCH  19  20
ATOM     20  O   UNL     1       1.539   3.092   4.471  0.00  0.00    -0.387 OA
ATOM     21  H   UNL     1       1.987   2.377   3.999  0.00  0.00    +0.210 HD
ENDBRANCH  19  20
BRANCH  19  22
ATOM     22  C   UNL     1       0.120   1.569   5.698  0.00  0.00    +0.017 C 
BRANCH  22  23
ATOM     23  C   UNL     1       0.806   1.871   7.032  0.00  0.00    -0.080 C 
BRANCH  23  24
ATOM     24  N   UNL     1       0.745   0.673   7.889  0.00  0.00    +0.379 N 
ATOM     25  H   UNL     1      -0.237   0.422   8.052  0.00  0.00    -0.086 HD
ATOM     26  H   UNL     1       1.224  -0.105   7.419  0.00  0.00    -0.086 HD
BRANCH  24  27
ATOM     27  C   UNL     1       1.401   0.936   9.184  0.00  0.00    -0.083 C 
BRANCH  27  29
ATOM     28  C   UNL     1       2.000  -0.059  11.396  0.00  0.00    +0.002 C 
ATOM     29  C   UNL     1       1.322  -0.323  10.051  0.00  0.00    -0.022 C 
ENDBRANCH  27  29
ENDBRANCH  24  27
ENDBRANCH  23  24
ENDBRANCH  22  23
ENDBRANCH  19  22
ENDBRANCH   1  19
TORSDOF 9
