REMARK  Name = ZINC37578596
REMARK  11 active torsions:
REMARK  status: ('A' for Active; 'I' for Inactive)
REMARK    1  A    between atoms: C_1  and  C_2
REMARK    2  A    between atoms: C_2  and  C_3
REMARK    3  A    between atoms: C_3  and  C_5
REMARK    4  A    between atoms: C_3  and  N_6
REMARK    5  A    between atoms: C_7  and  C_9
REMARK    6  A    between atoms: C_9  and  C_11
REMARK    7  A    between atoms: C_9  and  N_12
REMARK    8  A    between atoms: C_13  and  C_15
REMARK    9  A    between atoms: N_23  and  C_26
REMARK   10  A    between atoms: C_26  and  C_27
REMARK   11  A    between atoms: C_31  and  C_33
REMARK                            x       y       z     vdW  Elec       q    Type
REMARK                         _______ _______ _______ _____ _____    ______ ____
ROOT
ATOM      1  C   UNL     1      -7.823   1.232  -2.877  0.00  0.00    +0.148 A 
ATOM      2  C   UNL     1      -8.756   1.995  -3.615  0.00  0.00    +0.067 A 
ATOM      3  C   UNL     1      -9.957   1.717  -3.052  0.00  0.00    +0.124 A 
ATOM      4  N   UNL     1      -9.747   0.834  -2.025  0.00  0.00    -0.258 N 
ATOM      5  N   UNL     1      -8.494   0.565  -1.955  0.00  0.00    -0.166 NA
ATOM      6  C   UNL     1     -10.823   0.317  -1.177  0.00  0.00    +0.146 C 
ATOM      7  C   UNL     1     -11.344   1.426  -0.254  0.00  0.00    +0.042 C 
ATOM      8  C   UNL     1     -11.472   2.732  -1.036  0.00  0.00    +0.110 C 
ATOM      9  N   UNL     1     -12.084   2.568  -2.345  0.00  0.00    -0.292 N 
ATOM     10  C   UNL     1     -11.307   2.212  -3.397  0.00  0.00    +0.265 C 
ATOM     11  O   UNL     1     -11.694   2.294  -4.548  0.00  0.00    -0.268 OA
ENDROOT
BRANCH   1  13
ATOM     12  N   UNL     1      -5.587   0.404  -2.322  0.00  0.00    -0.299 N 
ATOM     13  C   UNL     1      -6.363   1.184  -3.101  0.00  0.00    +0.265 C 
ATOM     14  O   UNL     1      -5.862   1.848  -3.987  0.00  0.00    -0.268 OA
ATOM     15  H   UNL     1      -5.987  -0.126  -1.615  0.00  0.00    +0.150 HD
BRANCH  12  16
ATOM     16  C   UNL     1      -4.140   0.357  -2.544  0.00  0.00    +0.156 C 
ATOM     17  C   UNL     1      -3.824  -0.670  -3.634  0.00  0.00    +0.038 C 
BRANCH  16  19
ATOM     18  N   UNL     1      -2.105  -0.148  -1.230  0.00  0.00    -0.311 N 
ATOM     19  C   UNL     1      -3.448  -0.040  -1.265  0.00  0.00    +0.233 C 
ATOM     20  O   UNL     1      -4.100  -0.261  -0.267  0.00  0.00    -0.274 OA
ATOM     21  H   UNL     1      -1.584   0.029  -2.029  0.00  0.00    +0.149 HD
BRANCH  18  22
ATOM     22  C   UNL     1      -1.433  -0.534   0.013  0.00  0.00    +0.070 C 
ATOM     23  C   UNL     1      -1.413  -2.059   0.130  0.00  0.00    +0.028 C 
BRANCH  22  25
ATOM     24  C   UNL     1      -0.019   1.526   0.010  0.00  0.00    +0.005 C 
ATOM     25  C   UNL     1       0.002  -0.004   0.002  0.00  0.00    +0.018 C 
ENDBRANCH  22  25
ENDBRANCH  18  22
ENDBRANCH  16  19
ENDBRANCH  12  16
ENDBRANCH   1  13
BRANCH   9  26
ATOM     26  C   UNL     1     -13.522   2.783  -2.524  0.00  0.00    +0.143 C 
BRANCH  26  27
ATOM     27  C   UNL     1     -13.774   4.228  -2.871  0.00  0.00    -0.030 A 
ATOM     28  C   UNL     1     -13.989   5.153  -1.866  0.00  0.00    +0.005 A 
ATOM     29  C   UNL     1     -14.221   6.478  -2.184  0.00  0.00    +0.001 A 
ATOM     30  C   UNL     1     -14.236   6.879  -3.507  0.00  0.00    +0.003 A 
ATOM     31  C   UNL     1     -14.019   5.955  -4.511  0.00  0.00    -0.050 A 
ATOM     32  C   UNL     1     -13.784   4.630  -4.193  0.00  0.00    +0.008 A 
ATOM     33  C   UNL     1     -14.036   6.391  -5.954  0.00  0.00    +0.044 C 
ENDBRANCH  26  27
ENDBRANCH   9  26
TORSDOF 7
