REMARK  Name = ZINC58433501
REMARK  9 active torsions:
REMARK  status: ('A' for Active; 'I' for Inactive)
REMARK    1  A    between atoms: C_1  and  C_2
REMARK    2  A    between atoms: C_5  and  C_30
REMARK    3  A    between atoms: C_9  and  C_12
REMARK    4  A    between atoms: C_12  and  C_13
REMARK    5  A    between atoms: N_15  and  C_16
REMARK    6  A    between atoms: C_16  and  C_17
REMARK    7  A    between atoms: C_19  and  C_29
REMARK    8  A    between atoms: C_25  and  C_28
REMARK    9  A    between atoms: C_26  and  C_27
REMARK                            x       y       z     vdW  Elec       q    Type
REMARK                         _______ _______ _______ _____ _____    ______ ____
ROOT
ATOM      1  C   UNL     1      -1.058  -2.340   5.967  0.00  0.00    +0.219 C 
ATOM      2  O   UNL     1      -1.823  -2.366   5.027  0.00  0.00    -0.275 OA
ATOM      3  N   UNL     1      -1.233  -3.186   7.002  0.00  0.00    -0.311 N 
ATOM      4  H   UNL     1      -0.621  -3.166   7.754  0.00  0.00    +0.149 HD
ENDROOT
BRANCH   1   5
ATOM      5  C   UNL     1       0.088  -1.362   5.980  0.00  0.00    +0.151 C 
BRANCH   5  14
ATOM      6  C   UNL     1      -0.018   1.503   0.010  0.00  0.00    +0.064 C 
ATOM      7  C   UNL     1       0.002  -0.004   0.002  0.00  0.00    +0.023 A 
ATOM      8  C   UNL     1       0.008  -0.789  -1.094  0.00  0.00    +0.023 A 
ATOM      9  C   UNL     1       0.028  -2.128  -0.656  0.00  0.00    +0.023 A 
ATOM     10  C   UNL     1       0.034  -2.114   0.692  0.00  0.00    +0.023 A 
ATOM     11  N   UNL     1       0.024  -0.811   1.105  0.00  0.00    -0.297 N 
ATOM     12  C   UNL     1       0.031  -0.378   2.429  0.00  0.00    +0.178 A 
ATOM     13  N   UNL     1       0.056  -1.103   3.526  0.00  0.00    -0.227 NA
ATOM     14  C   UNL     1       0.059  -0.538   4.718  0.00  0.00    +0.059 A 
ATOM     15  C   UNL     1       0.035   0.817   4.758  0.00  0.00    +0.072 A 
ATOM     16  S   UNL     1       0.016   1.200   3.014  0.00  0.00    -0.057 S 
ATOM     17  C   UNL     1       0.054  -3.325   1.588  0.00  0.00    +0.064 C 
ENDBRANCH   5  14
ENDBRANCH   1   5
BRANCH   3  18
ATOM     18  C   UNL     1      -2.348  -4.137   6.989  0.00  0.00    +0.141 C 
BRANCH  18  19
ATOM     19  C   UNL     1      -2.319  -4.961   8.251  0.00  0.00    -0.006 A 
ATOM     20  C   UNL     1      -1.787  -6.232   8.235  0.00  0.00    +0.010 A 
ATOM     21  C   UNL     1      -1.754  -7.000   9.390  0.00  0.00    -0.049 A 
ATOM     22  C   UNL     1      -2.250  -6.509  10.565  0.00  0.00    +0.013 A 
ATOM     23  C   UNL     1      -2.793  -5.224  10.604  0.00  0.00    +0.003 A 
ATOM     24  C   UNL     1      -2.824  -4.439   9.437  0.00  0.00    +0.052 A 
ATOM     25  N   UNL     1      -3.401  -3.235   9.773  0.00  0.00    -0.358 N 
ATOM     26  H   UNL     1      -3.554  -2.499   9.159  0.00  0.00    +0.166 HD
ATOM     27  C   UNL     1      -3.729  -3.230  11.101  0.00  0.00    +0.017 A 
ATOM     28  C   UNL     1      -3.395  -4.405  11.659  0.00  0.00    -0.022 A 
ATOM     29  C   UNL     1      -3.589  -4.800  13.100  0.00  0.00    +0.046 C 
ATOM     30  C   UNL     1      -4.379  -2.081  11.828  0.00  0.00    +0.063 C 
ATOM     31  C   UNL     1      -1.168  -8.388   9.348  0.00  0.00    +0.044 C 
ENDBRANCH  18  19
ENDBRANCH   3  18
TORSDOF 4
