REMARK  Name = ZINC62645705
REMARK  6 active torsions:
REMARK  status: ('A' for Active; 'I' for Inactive)
REMARK    1  A    between atoms: C_6  and  N_7
REMARK    2  A    between atoms: C_8  and  C_10
REMARK    3  A    between atoms: C_10  and  C_11
REMARK    4  A    between atoms: N_17  and  N_18
REMARK    5  A    between atoms: C_19  and  C_20
REMARK    6  A    between atoms: C_23  and  O_27
REMARK                            x       y       z     vdW  Elec       q    Type
REMARK                         _______ _______ _______ _____ _____    ______ ____
ROOT
ATOM      1  C   UNL     1      -2.182  -4.324  -0.316  0.00  0.00    +0.149 C 
ATOM      2  C   UNL     1      -3.463  -5.132  -0.453  0.00  0.00    +0.233 C 
ATOM      3  O   UNL     1      -4.214  -4.994  -1.395  0.00  0.00    -0.274 OA
ATOM      4  N   UNL     1      -3.707  -5.995   0.518  0.00  0.00    -0.263 N 
ATOM      5  C   UNL     1      -2.857  -6.159   1.592  0.00  0.00    +0.183 C 
ATOM      6  N   UNL     1      -2.988  -6.978   2.614  0.00  0.00    -0.127 NA
ATOM      7  S   UNL     1      -1.536  -4.997   1.271  0.00  0.00    -0.075 S 
ATOM      8  H   UNL     1      -4.513  -6.533   0.474  0.00  0.00    +0.157 HD
ENDROOT
BRANCH   6   9
ATOM      9  N   UNL     1      -4.014  -7.757   2.690  0.00  0.00    -0.155 NA
ATOM     10  C   UNL     1      -4.144  -8.569   3.703  0.00  0.00    +0.143 C 
BRANCH  10  11
ATOM     11  C   UNL     1      -5.314  -9.457   3.789  0.00  0.00    -0.004 A 
ATOM     12  C   UNL     1      -6.286  -9.436   2.784  0.00  0.00    +0.013 A 
ATOM     13  C   UNL     1      -7.380 -10.269   2.869  0.00  0.00    +0.047 A 
ATOM     14  C   UNL     1      -7.519 -11.129   3.951  0.00  0.00    +0.131 A 
ATOM     15  C   UNL     1      -6.556 -11.154   4.953  0.00  0.00    +0.060 A 
ATOM     16  C   UNL     1      -5.455 -10.329   4.874  0.00  0.00    +0.028 A 
ATOM     17 BR   UNL     1      -6.754 -12.327   6.423  0.00  0.00    -0.047 Br
BRANCH  14  18
ATOM     18  O   UNL     1      -8.600 -11.949   4.030  0.00  0.00    -0.506 OA
ATOM     19  H   UNL     1      -8.471 -12.811   3.612  0.00  0.00    +0.292 HD
ENDBRANCH  14  18
ENDBRANCH  10  11
ENDBRANCH   6   9
BRANCH   1  20
ATOM     20  C   UNL     1      -2.480  -2.828  -0.204  0.00  0.00    +0.120 C 
BRANCH  20  22
ATOM     21  N   UNL     1      -1.200  -0.722   0.010  0.00  0.00    -0.285 N 
ATOM     22  C   UNL     1      -1.184  -2.065  -0.099  0.00  0.00    +0.219 C 
ATOM     23  O   UNL     1      -0.127  -2.660  -0.113  0.00  0.00    -0.275 OA
ATOM     24  H   UNL     1      -2.045  -0.252   0.098  0.00  0.00    +0.155 HD
BRANCH  21  30
ATOM     25  C   UNL     1       1.071  -0.454  -0.766  0.00  0.00    +0.026 A 
ATOM     26  C   UNL     1       2.256   0.256  -0.779  0.00  0.00    +0.040 A 
ATOM     27  C   UNL     1       2.378   1.416  -0.032  0.00  0.00    +0.124 A 
ATOM     28  C   UNL     1       1.312   1.866   0.730  0.00  0.00    +0.040 A 
ATOM     29  C   UNL     1       0.126   1.159   0.745  0.00  0.00    +0.026 A 
ATOM     30  C   UNL     1       0.002  -0.004  -0.004  0.00  0.00    +0.034 A 
ATOM     31  F   UNL     1       3.538   2.108  -0.045  0.00  0.00    -0.205 F 
ENDBRANCH  21  30
ENDBRANCH  20  22
ENDBRANCH   1  20
TORSDOF 6
