REMARK  Name = ZINC46886201
REMARK  5 active torsions:
REMARK  status: ('A' for Active; 'I' for Inactive)
REMARK    1  A    between atoms: C_1  and  N_2
REMARK    2  A    between atoms: N_2  and  C_3
REMARK    3  A    between atoms: N_2  and  S_9
REMARK    4  A    between atoms: S_9  and  N_12
REMARK    5  A    between atoms: N_20  and  C_21
REMARK                            x       y       z     vdW  Elec       q    Type
REMARK                         _______ _______ _______ _____ _____    ______ ____
ROOT
ATOM      1  N   UNL     1       1.581  -1.042  -1.879  0.00  0.00    -0.163 NA
ATOM      2  C   UNL     1       2.277  -0.037  -2.696  0.00  0.00    +0.129 C 
ATOM      3  C   UNL     1       3.551   0.395  -1.959  0.00  0.00    +0.126 C 
ATOM      4  N   UNL     1       4.283  -0.808  -1.540  0.00  0.00    -0.283 N 
ATOM      5  C   UNL     1       3.586  -1.812  -0.724  0.00  0.00    +0.126 C 
ATOM      6  C   UNL     1       2.314  -2.242  -1.456  0.00  0.00    +0.129 C 
ATOM      7  C   UNL     1       5.569  -0.988  -1.898  0.00  0.00    +0.302 C 
ATOM      8  O   UNL     1       6.107  -0.199  -2.651  0.00  0.00    -0.253 OA
ATOM      9  N   UNL     1       6.261  -2.042  -1.421  0.00  0.00    -0.296 N 
ATOM     10  H   UNL     1       5.813  -2.711  -0.879  0.00  0.00    +0.151 HD
ENDROOT
BRANCH   9  11
ATOM     11  C   UNL     1       7.688  -2.179  -1.722  0.00  0.00    +0.074 C 
ATOM     12  C   UNL     1       7.878  -2.933  -3.054  0.00  0.00    +0.022 C 
ATOM     13  C   UNL     1       9.132  -3.811  -2.818  0.00  0.00    +0.002 C 
ATOM     14  C   UNL     1       8.961  -4.262  -1.346  0.00  0.00    +0.002 C 
ATOM     15  C   UNL     1       8.377  -3.023  -0.636  0.00  0.00    +0.022 C 
ENDBRANCH   9  11
BRANCH   1  16
ATOM     16  S   UNL     1      -0.001  -0.821  -1.439  0.00  0.00    +0.100 S 
ATOM     17  O   UNL     1      -0.533  -2.111  -1.175  0.00  0.00    -0.141 OA
ATOM     18  O   UNL     1      -0.571   0.057  -2.401  0.00  0.00    -0.141 OA
BRANCH  16  20
ATOM     19  C   UNL     1      -0.017   1.459   0.016  0.00  0.00    +0.133 C 
ATOM     20  N   UNL     1       0.002  -0.006   0.002  0.00  0.00    -0.166 NA
BRANCH  20  21
ATOM     21  C   UNL     1       0.022  -0.750   1.264  0.00  0.00    +0.081 C 
ATOM     22  C   UNL     1       1.274  -0.371   2.059  0.00  0.00    +0.020 C 
ATOM     23  C   UNL     1       1.296  -1.148   3.377  0.00  0.00    +0.002 C 
ATOM     24  C   UNL     1       0.049  -0.802   4.193  0.00  0.00    +0.000 C 
ATOM     25  C   UNL     1      -1.203  -1.180   3.399  0.00  0.00    +0.002 C 
ATOM     26  C   UNL     1      -1.224  -0.403   2.081  0.00  0.00    +0.020 C 
ENDBRANCH  20  21
ENDBRANCH  16  20
ENDBRANCH   1  16
TORSDOF 4
