REMARK  Name = ZINC39781287
REMARK  7 active torsions:
REMARK  status: ('A' for Active; 'I' for Inactive)
REMARK    1  A    between atoms: C_1  and  C_2
REMARK    2  A    between atoms: C_2  and  C_3
REMARK    3  A    between atoms: C_3  and  C_24
REMARK    4  A    between atoms: N_6  and  N_10
REMARK    5  A    between atoms: C_11  and  C_13
REMARK    6  A    between atoms: C_16  and  C_18
REMARK    7  A    between atoms: C_21  and  C_23
REMARK                            x       y       z     vdW  Elec       q    Type
REMARK                         _______ _______ _______ _____ _____    ______ ____
ROOT
ATOM      1  C   UNL     1       0.742  -0.511   1.242  0.00  0.00    +0.139 C 
ATOM      2  C   UNL     1       2.127   0.099   1.323  0.00  0.00    +0.268 C 
ATOM      3  O   UNL     1       3.028  -0.020   0.520  0.00  0.00    -0.271 OA
ATOM      4  N   UNL     1       2.149   0.803   2.472  0.00  0.00    -0.137 N 
ATOM      5  C   UNL     1       0.982   0.723   3.121  0.00  0.00    +0.327 C 
ATOM      6  O   UNL     1       0.760   1.274   4.181  0.00  0.00    -0.251 OA
ATOM      7  N   UNL     1       0.082  -0.036   2.470  0.00  0.00    -0.280 N 
ATOM      8  H   UNL     1      -0.825  -0.231   2.753  0.00  0.00    +0.152 HD
ENDROOT
BRANCH   1   9
ATOM      9  C   UNL     1       0.822  -2.016   1.231  0.00  0.00    -0.015 A 
ATOM     10  C   UNL     1       0.868  -2.697   0.029  0.00  0.00    +0.006 A 
ATOM     11  C   UNL     1       0.941  -4.077   0.019  0.00  0.00    +0.000 A 
ATOM     12  C   UNL     1       0.969  -4.777   1.212  0.00  0.00    +0.000 A 
ATOM     13  C   UNL     1       0.924  -4.095   2.414  0.00  0.00    +0.000 A 
ATOM     14  C   UNL     1       0.855  -2.715   2.423  0.00  0.00    +0.006 A 
ENDBRANCH   1   9
BRANCH   4  15
ATOM     15  N   UNL     1       3.256   1.528   2.930  0.00  0.00    -0.219 N 
ATOM     16  C   UNL     1       3.264   2.873   2.843  0.00  0.00    +0.277 C 
ATOM     17  O   UNL     1       2.309   3.458   2.366  0.00  0.00    -0.267 OA
ATOM     18  H   UNL     1       4.018   1.062   3.309  0.00  0.00    +0.174 HD
BRANCH  16  19
ATOM     19  C   UNL     1       4.420   3.630   3.321  0.00  0.00    +0.132 C 
ATOM     20  N   UNL     1       5.520   3.155   3.850  0.00  0.00    -0.148 NA
ATOM     21  N   UNL     1       6.372   4.043   4.182  0.00  0.00    -0.152 NA
ATOM     22  C   UNL     1       5.987   5.280   3.930  0.00  0.00    +0.083 C 
ATOM     23  C   UNL     1       4.608   5.138   3.306  0.00  0.00    +0.121 C 
BRANCH  22  24
ATOM     24  C   UNL     1       6.697   6.469   4.180  0.00  0.00    +0.036 A 
ATOM     25  C   UNL     1       7.965   6.635   4.740  0.00  0.00    +0.017 A 
ATOM     26  C   UNL     1       8.396   7.931   4.857  0.00  0.00    +0.011 A 
ATOM     27  C   UNL     1       7.586   8.938   4.434  0.00  0.00    -0.013 A 
ATOM     28  S   UNL     1       6.216   8.155   3.858  0.00  0.00    -0.092 S 
ATOM     29  C   UNL     1       7.858  10.420   4.470  0.00  0.00    +0.051 C 
ENDBRANCH  22  24
ENDBRANCH  16  19
ENDBRANCH   4  15
BRANCH   1  31
ATOM     30  C   UNL     1      -0.019   1.526   0.010  0.00  0.00    +0.007 C 
ATOM     31  C   UNL     1       0.002  -0.004   0.002  0.00  0.00    +0.037 C 
ENDBRANCH   1  31
TORSDOF 5
