REMARK  Name = ZINC33248055
REMARK  6 active torsions:
REMARK  status: ('A' for Active; 'I' for Inactive)
REMARK    1  A    between atoms: C_1  and  C_2
REMARK    2  A    between atoms: C_5  and  S_8
REMARK    3  A    between atoms: S_8  and  N_11
REMARK    4  A    between atoms: N_11  and  N_12
REMARK    5  A    between atoms: C_16  and  C_17
REMARK    6  A    between atoms: C_20  and  C_23
REMARK                            x       y       z     vdW  Elec       q    Type
REMARK                         _______ _______ _______ _____ _____    ______ ____
ROOT
ATOM      1  N   UNL     1       1.004   1.875   0.881  0.00  0.00    -0.167 N 
ATOM      2  C   UNL     1      -0.104   1.181   0.676  0.00  0.00    +0.273 C 
ATOM      3  O   UNL     1      -0.131  -0.029   0.788  0.00  0.00    -0.268 OA
ATOM      4  C   UNL     1      -1.308   1.956   0.296  0.00  0.00    +0.078 C 
ATOM      5  C   UNL     1      -2.564   1.524   0.022  0.00  0.00    +0.028 C 
ATOM      6  S   UNL     1      -0.650   3.619   0.300  0.00  0.00    -0.060 S 
ATOM      7  C   UNL     1       1.029   3.217   0.754  0.00  0.00    +0.137 C 
ATOM      8  S   UNL     1       2.353   4.280   0.976  0.00  0.00    -0.026 S 
ENDROOT
BRANCH   5   9
ATOM      9  C   UNL     1      -2.836   0.085  -0.095  0.00  0.00    -0.024 A 
ATOM     10  C   UNL     1      -1.906  -0.756  -0.721  0.00  0.00    +0.009 A 
ATOM     11  C   UNL     1      -2.158  -2.094  -0.825  0.00  0.00    +0.016 A 
ATOM     12  C   UNL     1      -3.348  -2.623  -0.317  0.00  0.00    +0.063 A 
ATOM     13  C   UNL     1      -4.280  -1.785   0.302  0.00  0.00    +0.016 A 
ATOM     14  C   UNL     1      -4.028  -0.447   0.413  0.00  0.00    +0.009 A 
BRANCH  12  15
ATOM     15  C   UNL     1      -3.622  -4.069  -0.436  0.00  0.00    +0.387 C 
ATOM     16  O   UNL     1      -4.656  -4.530   0.005  0.00  0.00    -0.241 OA
ATOM     17  O   UNL     1      -2.725  -4.878  -1.033  0.00  0.00    -0.241 OA
ENDBRANCH  12  15
ENDBRANCH   5   9
BRANCH   1  18
ATOM     18  N   UNL     1       2.178   1.199   1.238  0.00  0.00    -0.100 NA
ATOM     19  H   UNL     1       2.384   1.045   2.173  0.00  0.00    +0.172 HD
BRANCH  18  20
ATOM     20  S   UNL     1       3.214   0.662   0.063  0.00  0.00    +0.074 S 
ATOM     21  O   UNL     1       4.361   0.156   0.733  0.00  0.00    -0.152 OA
ATOM     22  O   UNL     1       2.442  -0.130  -0.829  0.00  0.00    -0.152 OA
BRANCH  20  27
ATOM     23  C   UNL     1       5.032   5.496  -3.057  0.00  0.00    +0.044 C 
ATOM     24  C   UNL     1       4.579   4.288  -2.278  0.00  0.00    -0.050 A 
ATOM     25  C   UNL     1       5.292   3.872  -1.169  0.00  0.00    +0.005 A 
ATOM     26  C   UNL     1       4.876   2.765  -0.455  0.00  0.00    +0.029 A 
ATOM     27  C   UNL     1       3.745   2.073  -0.848  0.00  0.00    +0.107 A 
ATOM     28  C   UNL     1       3.034   2.486  -1.960  0.00  0.00    +0.029 A 
ATOM     29  C   UNL     1       3.448   3.596  -2.672  0.00  0.00    +0.005 A 
ENDBRANCH  20  27
ENDBRANCH  18  20
ENDBRANCH   1  18
TORSDOF 5
