REMARK  Name = ZINC39659075
REMARK  8 active torsions:
REMARK  status: ('A' for Active; 'I' for Inactive)
REMARK    1  A    between atoms: C_1  and  C_2
REMARK    2  A    between atoms: C_2  and  C_32
REMARK    3  A    between atoms: C_5  and  C_8
REMARK    4  A    between atoms: C_8  and  N_9
REMARK    5  A    between atoms: C_10  and  C_12
REMARK    6  A    between atoms: C_23  and  C_25
REMARK    7  A    between atoms: C_25  and  C_26
REMARK    8  A    between atoms: C_26  and  C_27
REMARK                            x       y       z     vdW  Elec       q    Type
REMARK                         _______ _______ _______ _____ _____    ______ ____
ROOT
ATOM      1  C   UNL     1       3.741  -1.479   5.261  0.00  0.00    +0.100 C 
ATOM      2  C   UNL     1       2.389  -1.066   5.884  0.00  0.00    +0.121 C 
ATOM      3  N   UNL     1       1.963  -2.247   6.672  0.00  0.00    -0.300 N 
ATOM      4  C   UNL     1       3.215  -2.749   7.288  0.00  0.00    +0.115 C 
ATOM      5  C   UNL     1       4.282  -2.581   6.188  0.00  0.00    -0.004 C 
ATOM      6  C   UNL     1       5.610  -2.151   6.802  0.00  0.00    -0.010 C 
ATOM      7  C   UNL     1       6.157  -3.286   7.673  0.00  0.00    -0.082 C 
ATOM      8  N   UNL     1       6.341  -4.489   6.852  0.00  0.00    +0.379 N 
ATOM      9  C   UNL     1       5.045  -4.950   6.341  0.00  0.00    -0.082 C 
ATOM     10  C   UNL     1       4.451  -3.885   5.414  0.00  0.00    -0.010 C 
ATOM     11  C   UNL     1       0.719  -2.749   6.801  0.00  0.00    +0.216 C 
ATOM     12  O   UNL     1       0.530  -3.730   7.489  0.00  0.00    -0.276 OA
ATOM     13  H   UNL     1       6.950  -4.276   6.076  0.00  0.00    -0.086 HD
ATOM     14  H   UNL     1       6.758  -5.217   7.413  0.00  0.00    -0.086 HD
ENDROOT
BRANCH   1  16
ATOM     15  N   UNL     1       4.517  -1.907   2.952  0.00  0.00    -0.312 N 
ATOM     16  C   UNL     1       3.535  -2.018   3.869  0.00  0.00    +0.218 C 
ATOM     17  O   UNL     1       2.487  -2.551   3.574  0.00  0.00    -0.275 OA
ATOM     18  H   UNL     1       5.355  -1.481   3.188  0.00  0.00    +0.149 HD
BRANCH  15  19
ATOM     19  C   UNL     1       4.317  -2.431   1.599  0.00  0.00    +0.138 C 
BRANCH  19  24
ATOM     20  C   UNL     1       8.010  -0.566  -0.367  0.00  0.00    +0.074 C 
ATOM     21  C   UNL     1       6.521  -0.694  -0.694  0.00  0.00    +0.165 C 
ATOM     22  O   UNL     1       6.295  -1.893  -1.447  0.00  0.00    -0.347 OA
ATOM     23  C   UNL     1       5.399  -2.720  -0.678  0.00  0.00    +0.196 C 
ATOM     24  C   UNL     1       5.573  -2.179   0.763  0.00  0.00    +0.164 C 
ATOM     25  O   UNL     1       5.763  -0.763   0.525  0.00  0.00    -0.342 OA
ATOM     26  C   UNL     1       6.069   0.516  -1.513  0.00  0.00    +0.074 C 
ENDBRANCH  19  24
ENDBRANCH  15  19
ENDBRANCH   1  16
BRANCH  11  27
ATOM     27  C   UNL     1      -0.436  -2.092   6.091  0.00  0.00    +0.096 C 
BRANCH  27  28
ATOM     28  C   UNL     1      -1.726  -2.854   6.402  0.00  0.00    +0.013 C 
BRANCH  28  29
ATOM     29  C   UNL     1      -2.899  -2.187   5.681  0.00  0.00    -0.011 C 
ATOM     30  C   UNL     1      -3.171  -0.796   6.290  0.00  0.00    +0.003 C 
ATOM     31  C   UNL     1      -4.714  -0.663   6.259  0.00  0.00    +0.000 C 
ATOM     32  C   UNL     1      -5.187  -2.096   6.608  0.00  0.00    +0.000 C 
ATOM     33  C   UNL     1      -4.181  -3.014   5.884  0.00  0.00    +0.003 C 
ENDBRANCH  28  29
ENDBRANCH  27  28
ENDBRANCH  11  27
TORSDOF 6
