REMARK  Name = ZINC18099620
REMARK  5 active torsions:
REMARK  status: ('A' for Active; 'I' for Inactive)
REMARK    1  A    between atoms: C_3  and  S_16
REMARK    2  A    between atoms: C_6  and  N_7
REMARK    3  A    between atoms: N_7  and  C_8
REMARK    4  A    between atoms: S_16  and  N_19
REMARK    5  A    between atoms: N_19  and  C_20
REMARK                            x       y       z     vdW  Elec       q    Type
REMARK                         _______ _______ _______ _____ _____    ______ ____
ROOT
ATOM      1  C   UNL     1       0.004   1.373   0.189  0.00  0.00    +0.025 A 
ATOM      2  C   UNL     1       1.153   2.099  -0.054  0.00  0.00    +0.031 A 
ATOM      3  C   UNL     1       2.292   1.462  -0.513  0.00  0.00    +0.111 A 
ATOM      4  C   UNL     1       2.284   0.097  -0.731  0.00  0.00    +0.031 A 
ATOM      5  C   UNL     1       1.138  -0.636  -0.490  0.00  0.00    +0.025 A 
ATOM      6  C   UNL     1      -0.007   0.001  -0.029  0.00  0.00    +0.031 A 
ENDROOT
BRANCH   3   7
ATOM      7  S   UNL     1       3.756   2.393  -0.821  0.00  0.00    +0.093 S 
ATOM      8  O   UNL     1       4.518   1.651  -1.763  0.00  0.00    -0.148 OA
ATOM      9  O   UNL     1       3.343   3.732  -1.060  0.00  0.00    -0.148 OA
BRANCH   7  10
ATOM     10  N   UNL     1       4.630   2.412   0.586  0.00  0.00    -0.070 NA
BRANCH  10  11
ATOM     11  C   UNL     1       5.843   3.079   0.639  0.00  0.00    +0.201 A 
ATOM     12  N   UNL     1       6.450   3.751  -0.317  0.00  0.00    -0.231 NA
ATOM     13  C   UNL     1       7.615   4.337  -0.104  0.00  0.00    +0.120 A 
ATOM     14  C   UNL     1       8.150   4.213   1.134  0.00  0.00    +0.068 A 
ATOM     15  S   UNL     1       6.896   3.233   1.943  0.00  0.00    -0.058 S 
ENDBRANCH  10  11
ENDBRANCH   7  10
ENDBRANCH   3   7
BRANCH   6  16
ATOM     16  N   UNL     1      -1.168  -0.738   0.216  0.00  0.00    -0.320 N 
ATOM     17  H   UNL     1      -1.967  -0.292   0.538  0.00  0.00    +0.152 HD
BRANCH  16  18
ATOM     18  C   UNL     1      -1.177  -2.084   0.003  0.00  0.00    +0.079 C 
ATOM     19  C   UNL     1      -2.336  -2.780   0.113  0.00  0.00    +0.009 C 
ATOM     20  C   UNL     1      -2.268  -4.277   0.222  0.00  0.00    +0.040 C 
ATOM     21  C   UNL     1      -3.591  -4.823   0.761  0.00  0.00    +0.005 C 
ATOM     22  C   UNL     1      -4.740  -4.242  -0.069  0.00  0.00    +0.008 C 
ATOM     23  C   UNL     1      -4.873  -2.752   0.248  0.00  0.00    +0.079 C 
ATOM     24  C   UNL     1      -3.537  -2.077   0.126  0.00  0.00    +0.160 C 
ATOM     25  O   UNL     1      -3.503  -0.866   0.029  0.00  0.00    -0.292 OA
ENDBRANCH  16  18
ENDBRANCH   6  16
TORSDOF 5
