REMARK  Name = ZINC48221847
REMARK  4 active torsions:
REMARK  status: ('A' for Active; 'I' for Inactive)
REMARK    1  A    between atoms: C_3  and  C_8
REMARK    2  A    between atoms: C_9  and  C_14
REMARK    3  A    between atoms: N_20  and  C_23
REMARK    4  A    between atoms: C_23  and  C_24
REMARK                            x       y       z     vdW  Elec       q    Type
REMARK                         _______ _______ _______ _____ _____    ______ ____
ROOT
ATOM      1  C   UNL     1       5.143   0.556   1.432  0.00  0.00    +0.145 A 
ATOM      2  N   UNL     1       6.322   0.222   2.038  0.00  0.00    -0.335 N 
ATOM      3  H   UNL     1       7.145   0.735   2.024  0.00  0.00    +0.167 HD
ATOM      4  C   UNL     1       6.116  -0.991   2.678  0.00  0.00    +0.105 A 
ATOM      5  C   UNL     1       6.681  -2.001   3.467  0.00  0.00    +0.162 A 
ATOM      6  N   UNL     1       5.774  -2.916   3.689  0.00  0.00    -0.175 NA
ATOM      7  N   UNL     1       4.582  -2.543   3.055  0.00  0.00    -0.240 N 
ATOM      8  C   UNL     1       4.795  -1.345   2.427  0.00  0.00    +0.177 A 
ATOM      9  N   UNL     1       4.250  -0.376   1.674  0.00  0.00    -0.208 NA
ENDROOT
BRANCH   1  11
ATOM     10  C   UNL     1       3.659   2.167  -0.022  0.00  0.00    +0.103 A 
ATOM     11  C   UNL     1       4.909   1.778   0.635  0.00  0.00    +0.062 A 
ATOM     12  C   UNL     1       5.816   2.764   0.366  0.00  0.00    +0.117 A 
ATOM     13  N   UNL     1       5.207   3.696  -0.389  0.00  0.00    -0.283 N 
ATOM     14  H   UNL     1       5.624   4.507  -0.722  0.00  0.00    +0.188 HD
ATOM     15  N   UNL     1       3.883   3.314  -0.625  0.00  0.00    -0.173 NA
BRANCH  10  18
ATOM     16  C   UNL     1      -0.017   1.379   0.010  0.00  0.00    +0.003 A 
ATOM     17  C   UNL     1       1.167   2.088   0.002  0.00  0.00    +0.010 A 
ATOM     18  C   UNL     1       2.385   1.409  -0.013  0.00  0.00    +0.005 A 
ATOM     19  C   UNL     1       2.400   0.016  -0.021  0.00  0.00    +0.048 A 
ATOM     20  C   UNL     1       1.209  -0.685  -0.013  0.00  0.00    +0.124 A 
ATOM     21  C   UNL     1       0.002  -0.004   0.002  0.00  0.00    +0.038 A 
ATOM     22  F   UNL     1       1.221  -2.036  -0.021  0.00  0.00    -0.205 F 
ENDBRANCH  10  18
ENDBRANCH   1  11
BRANCH   7  23
ATOM     23  C   UNL     1       3.328  -3.301   3.063  0.00  0.00    +0.188 C 
BRANCH  23  24
ATOM     24  C   UNL     1       2.490  -2.872   4.240  0.00  0.00    +0.011 A 
ATOM     25  C   UNL     1       1.558  -1.890   4.311  0.00  0.00    +0.013 A 
ATOM     26  C   UNL     1       0.904  -1.672   5.510  0.00  0.00    +0.008 A 
ATOM     27  C   UNL     1       1.214  -2.447   6.578  0.00  0.00    +0.045 A 
ATOM     28  S   UNL     1       2.460  -3.530   5.899  0.00  0.00    -0.100 S 
ENDBRANCH  23  24
ENDBRANCH   7  23
TORSDOF 4
