REMARK  Name = ZINC28923139
REMARK  5 active torsions:
REMARK  status: ('A' for Active; 'I' for Inactive)
REMARK    1  A    between atoms: C_1  and  C_2
REMARK    2  A    between atoms: C_4  and  C_32
REMARK    3  A    between atoms: C_14  and  C_17
REMARK    4  A    between atoms: N_22  and  C_23
REMARK    5  A    between atoms: C_29  and  C_31
REMARK                            x       y       z     vdW  Elec       q    Type
REMARK                         _______ _______ _______ _____ _____    ______ ____
ROOT
ATOM      1  C   UNL     1       1.007   1.315  -0.177  0.00  0.00    +0.044 C 
ATOM      2  C   UNL     1       1.004   1.956   1.187  0.00  0.00    -0.037 A 
ATOM      3  C   UNL     1       2.187   2.307   1.795  0.00  0.00    +0.025 A 
ATOM      4  C   UNL     1       2.183   2.897   3.050  0.00  0.00    +0.014 A 
ATOM      5  N   UNL     1       1.045   3.130   3.674  0.00  0.00    -0.353 N 
ATOM      6  C   UNL     1      -0.112   2.814   3.134  0.00  0.00    +0.088 A 
ATOM      7  C   UNL     1      -0.217   2.211   1.860  0.00  0.00    +0.030 A 
ATOM      8  C   UNL     1      -1.573   1.910   1.410  0.00  0.00    +0.058 A 
ATOM      9  C   UNL     1      -2.602   2.277   2.267  0.00  0.00    +0.097 A 
ATOM     10  S   UNL     1      -1.798   2.981   3.670  0.00  0.00    -0.064 S 
ATOM     11  C   UNL     1      -3.966   2.076   1.986  0.00  0.00    +0.254 C 
ATOM     12  O   UNL     1      -4.836   2.239   2.822  0.00  0.00    -0.270 OA
ATOM     13  N   UNL     1      -4.242   1.687   0.712  0.00  0.00    -0.287 N 
ATOM     14  C   UNL     1      -3.195   1.734  -0.306  0.00  0.00    +0.209 C 
ATOM     15  N   UNL     1      -1.893   1.288   0.192  0.00  0.00    -0.319 N 
ATOM     16  C   UNL     1       3.487   3.273   3.704  0.00  0.00    +0.063 C 
ATOM     17  H   UNL     1      -5.250   1.337   0.447  0.00  0.00    +0.151 HD
ATOM     18  H   UNL     1      -1.306   0.555  -0.382  0.00  0.00    +0.148 HD
ATOM     19  H   UNL     1       1.050   3.599   4.670  0.00  0.00    +0.166 HD
ENDROOT
BRANCH  14  20
ATOM     20  C   UNL     1      -3.063   3.152  -0.801  0.00  0.00    +0.089 A 
ATOM     21  C   UNL     1      -4.133   3.983  -0.817  0.00  0.00    +0.075 A 
ATOM     22  S   UNL     1      -3.390   5.468  -1.478  0.00  0.00    -0.060 S 
ATOM     23  C   UNL     1      -1.779   4.848  -1.669  0.00  0.00    +0.172 A 
ATOM     24  N   UNL     1      -1.905   3.610  -1.233  0.00  0.00    -0.226 NA
ATOM     25  N   UNL     1      -0.647   5.493  -2.156  0.00  0.00    -0.219 N 
ATOM     26  C   UNL     1       0.545   4.865  -2.143  0.00  0.00    +0.223 C 
ATOM     27  O   UNL     1       0.615   3.706  -1.792  0.00  0.00    -0.275 OA
ATOM     28  C   UNL     1       1.790   5.601  -2.564  0.00  0.00    +0.110 C 
BRANCH  25  29
ATOM     29  C   UNL     1      -0.746   6.796  -2.661  0.00  0.00    +0.043 A 
ATOM     30  C   UNL     1      -0.529   7.884  -1.826  0.00  0.00    +0.024 A 
ATOM     31  C   UNL     1      -0.622   9.168  -2.328  0.00  0.00    +0.002 A 
ATOM     32  C   UNL     1      -0.941   9.370  -3.658  0.00  0.00    +0.000 A 
ATOM     33  C   UNL     1      -1.163   8.288  -4.491  0.00  0.00    +0.002 A 
ATOM     34  C   UNL     1      -1.067   7.003  -3.996  0.00  0.00    +0.024 A 
ENDBRANCH  25  29
ENDBRANCH  14  20
TORSDOF 2
