REMARK  Name = ZINC33869036
REMARK  12 active torsions:
REMARK  status: ('A' for Active; 'I' for Inactive)
REMARK    1  A    between atoms: C_1  and  C_2
REMARK    2  A    between atoms: C_2  and  C_3
REMARK    3  A    between atoms: C_3  and  C_4
REMARK    4  A    between atoms: C_4  and  N_5
REMARK    5  A    between atoms: C_10  and  C_31
REMARK    6  A    between atoms: C_13  and  C_18
REMARK    7  A    between atoms: C_13  and  C_28
REMARK    8  A    between atoms: C_18  and  C_19
REMARK    9  A    between atoms: C_22  and  N_25
REMARK   10  A    between atoms: C_34  and  O_37
REMARK   11  A    between atoms: O_37  and  C_38
REMARK   12  A    between atoms: C_38  and  C_40
REMARK                            x       y       z     vdW  Elec       q    Type
REMARK                         _______ _______ _______ _____ _____    ______ ____
ROOT
ATOM      1  N   UNL     1       1.005  -3.230   2.936  0.00  0.00    -0.242 N 
ATOM      2  C   UNL     1       2.377  -3.171   2.973  0.00  0.00    +0.228 C 
ATOM      3  O   UNL     1       3.130  -2.896   2.065  0.00  0.00    -0.275 OA
ATOM      4  C   UNL     1       2.723  -3.508   4.332  0.00  0.00    +0.111 C 
ATOM      5  C   UNL     1       3.829  -3.361   5.294  0.00  0.00    +0.097 C 
ATOM      6  N   UNL     1       3.191  -3.814   6.578  0.00  0.00    -0.293 NA
ATOM      7  C   UNL     1       1.714  -3.646   6.439  0.00  0.00    +0.138 C 
ATOM      8  C   UNL     1       1.528  -2.856   5.135  0.00  0.00    +0.121 C 
ATOM      9  C   UNL     1       0.445  -3.280   4.181  0.00  0.00    +0.228 C 
ATOM     10  O   UNL     1      -0.690  -3.602   4.461  0.00  0.00    -0.275 OA
ATOM     11  H   UNL     1       3.429  -4.773   6.782  0.00  0.00    +0.124 HD
ENDROOT
BRANCH   5  12
ATOM     12  C   UNL     1       4.986  -4.253   4.923  0.00  0.00    -0.029 A 
ATOM     13  C   UNL     1       4.889  -5.620   5.106  0.00  0.00    +0.009 A 
ATOM     14  C   UNL     1       5.949  -6.440   4.767  0.00  0.00    +0.047 A 
ATOM     15  C   UNL     1       7.110  -5.890   4.244  0.00  0.00    +0.132 A 
ATOM     16  C   UNL     1       7.204  -4.518   4.061  0.00  0.00    +0.047 A 
ATOM     17  C   UNL     1       6.140  -3.703   4.396  0.00  0.00    +0.009 A 
BRANCH  15  18
ATOM     18  O   UNL     1       8.153  -6.694   3.910  0.00  0.00    -0.426 OA
BRANCH  18  19
ATOM     19  C   UNL     1       8.042  -7.445   2.803  0.00  0.00    +0.309 C 
ATOM     20  O   UNL     1       7.065  -7.343   2.099  0.00  0.00    -0.251 OA
ATOM     21  C   UNL     1       9.136  -8.415   2.437  0.00  0.00    +0.136 C 
ENDBRANCH  18  19
ENDBRANCH  15  18
ENDBRANCH   5  12
BRANCH   7  22
ATOM     22  C   UNL     1       1.167  -2.853   7.598  0.00  0.00    +0.377 C 
ATOM     23  O   UNL     1       1.914  -2.476   8.485  0.00  0.00    -0.244 OA
ATOM     24  O   UNL     1      -0.021  -2.587   7.649  0.00  0.00    -0.244 OA
ENDBRANCH   7  22
BRANCH   1  25
ATOM     25  C   UNL     1       0.227  -3.233   1.695  0.00  0.00    +0.116 C 
BRANCH  25  26
ATOM     26  C   UNL     1      -0.101  -1.793   1.296  0.00  0.00    +0.019 C 
BRANCH  26  28
ATOM     27  C   UNL     1      -1.242  -0.355  -0.400  0.00  0.00    +0.004 C 
ATOM     28  C   UNL     1      -0.914  -1.795  -0.000  0.00  0.00    -0.002 C 
ENDBRANCH  26  28
ENDBRANCH  25  26
ENDBRANCH   1  25
BRANCH   7  29
ATOM     29  C   UNL     1       1.030  -5.013   6.362  0.00  0.00    +0.069 C 
BRANCH  29  30
ATOM     30  C   UNL     1       1.232  -5.749   7.662  0.00  0.00    -0.045 A 
ATOM     31  C   UNL     1       2.273  -6.649   7.791  0.00  0.00    +0.006 A 
ATOM     32  C   UNL     1       2.458  -7.325   8.983  0.00  0.00    +0.033 A 
ATOM     33  C   UNL     1       1.603  -7.099  10.045  0.00  0.00    +0.126 A 
ATOM     34  C   UNL     1       0.563  -6.198   9.916  0.00  0.00    +0.033 A 
ATOM     35  C   UNL     1       0.380  -5.520   8.726  0.00  0.00    +0.006 A 
BRANCH  33  36
ATOM     36  N   UNL     1       1.801  -7.824  11.321  0.00  0.00    +0.056 N 
ATOM     37  O   UNL     1       2.710  -8.612  11.434  0.00  0.00    -0.126 OA
ATOM     38  O   UNL     1       1.053  -7.626  12.250  0.00  0.00    -0.126 OA
ENDBRANCH  33  36
ENDBRANCH  29  30
ENDBRANCH   7  29
TORSDOF 10
