REMARK  Name = ZINC28846894
REMARK  8 active torsions:
REMARK  status: ('A' for Active; 'I' for Inactive)
REMARK    1  A    between atoms: C_1  and  C_2
REMARK    2  A    between atoms: C_2  and  C_4
REMARK    3  A    between atoms: C_2  and  O_16
REMARK    4  A    between atoms: N_9  and  C_10
REMARK    5  A    between atoms: O_16  and  C_17
REMARK    6  A    between atoms: C_17  and  C_19
REMARK    7  A    between atoms: N_22  and  S_25
REMARK    8  A    between atoms: S_25  and  C_28
REMARK                            x       y       z     vdW  Elec       q    Type
REMARK                         _______ _______ _______ _____ _____    ______ ____
ROOT
ATOM      1  O   UNL     1       0.671  -0.465  -1.174  0.00  0.00    -0.452 OA
ENDROOT
BRANCH   1   3
ATOM      2  C   UNL     1      -0.019   1.526   0.010  0.00  0.00    +0.062 C 
ATOM      3  C   UNL     1       0.002  -0.004   0.002  0.00  0.00    +0.259 C 
BRANCH   3   4
ATOM      4  C   UNL     1      -1.412  -0.526   0.013  0.00  0.00    +0.261 C 
ATOM      5  O   UNL     1      -1.836  -1.147  -0.938  0.00  0.00    -0.271 OA
ATOM      6  N   UNL     1      -2.204  -0.302   1.079  0.00  0.00    -0.237 N 
ATOM      7  C   UNL     1      -3.469  -0.768   1.089  0.00  0.00    +0.306 C 
ATOM      8  O   UNL     1      -3.894  -1.391   0.136  0.00  0.00    -0.252 OA
ATOM      9  N   UNL     1      -4.262  -0.544   2.156  0.00  0.00    -0.296 N 
ATOM     10  H   UNL     1      -1.865   0.195   1.840  0.00  0.00    +0.159 HD
ATOM     11  H   UNL     1      -3.922  -0.048   2.916  0.00  0.00    +0.151 HD
BRANCH   9  12
ATOM     12  C   UNL     1      -5.636  -1.052   2.166  0.00  0.00    +0.074 C 
ATOM     13  C   UNL     1      -6.554  -0.052   1.459  0.00  0.00    +0.022 C 
ATOM     14  C   UNL     1      -7.989  -0.582   1.470  0.00  0.00    +0.002 C 
ATOM     15  C   UNL     1      -8.454  -0.766   2.916  0.00  0.00    +0.000 C 
ATOM     16  C   UNL     1      -7.536  -1.765   3.623  0.00  0.00    +0.002 C 
ATOM     17  C   UNL     1      -6.101  -1.236   3.612  0.00  0.00    +0.022 C 
ENDBRANCH   9  12
ENDBRANCH   3   4
ENDBRANCH   1   3
BRANCH   1  18
ATOM     18  C   UNL     1       1.998  -0.651  -1.087  0.00  0.00    +0.311 C 
ATOM     19  O   UNL     1       2.572  -0.429  -0.047  0.00  0.00    -0.251 OA
BRANCH  18  20
ATOM     20  C   UNL     1       2.771  -1.135  -2.286  0.00  0.00    +0.100 C 
ATOM     21  C   UNL     1       2.232  -2.500  -2.722  0.00  0.00    +0.032 C 
ATOM     22  C   UNL     1       2.997  -2.974  -3.962  0.00  0.00    +0.110 C 
ATOM     23  N   UNL     1       4.436  -2.959  -3.665  0.00  0.00    -0.176 NA
ATOM     24  C   UNL     1       5.039  -1.721  -3.152  0.00  0.00    +0.110 C 
ATOM     25  C   UNL     1       4.251  -1.262  -1.921  0.00  0.00    +0.032 C 
BRANCH  23  26
ATOM     26  S   UNL     1       5.360  -4.313  -3.901  0.00  0.00    +0.067 S 
ATOM     27  O   UNL     1       6.487  -4.190  -3.045  0.00  0.00    -0.152 OA
ATOM     28  O   UNL     1       4.476  -5.423  -3.842  0.00  0.00    -0.152 OA
BRANCH  26  29
ATOM     29  C   UNL     1       5.972  -4.243  -5.552  0.00  0.00    +0.143 A 
ATOM     30  C   UNL     1       7.122  -3.693  -6.014  0.00  0.00    +0.036 A 
ATOM     31  C   UNL     1       7.400  -3.758  -7.367  0.00  0.00    +0.010 A 
ATOM     32  C   UNL     1       6.515  -4.370  -8.191  0.00  0.00    +0.047 A 
ATOM     33  S   UNL     1       5.243  -4.886  -7.050  0.00  0.00    -0.077 S 
ENDBRANCH  26  29
ENDBRANCH  23  26
ENDBRANCH  18  20
ENDBRANCH   1  18
TORSDOF 7
