REMARK  Name = ZINC13130840
REMARK  5 active torsions:
REMARK  status: ('A' for Active; 'I' for Inactive)
REMARK    1  A    between atoms: C_1  and  C_2
REMARK    2  A    between atoms: C_5  and  S_8
REMARK    3  A    between atoms: S_8  and  N_11
REMARK    4  A    between atoms: C_12  and  C_13
REMARK    5  A    between atoms: C_22  and  O_23
REMARK                            x       y       z     vdW  Elec       q    Type
REMARK                         _______ _______ _______ _____ _____    ______ ____
ROOT
ATOM      1  N   UNL     1       1.651  -4.999  -0.034  0.00  0.00    -0.136 NA
ATOM      2  C   UNL     1       1.954  -6.260  -0.043  0.00  0.00    +0.146 C 
ENDROOT
BRANCH   2   3
ATOM      3  C   UNL     1       3.363  -6.676  -0.053  0.00  0.00    +0.044 A 
ATOM      4  C   UNL     1       3.724  -8.093  -0.069  0.00  0.00    -0.006 A 
ATOM      5  C   UNL     1       2.746  -9.095  -0.075  0.00  0.00    +0.009 A 
ATOM      6  C   UNL     1       3.124 -10.405  -0.090  0.00  0.00    +0.001 A 
ATOM      7  C   UNL     1       4.470 -10.761  -0.099  0.00  0.00    +0.001 A 
ATOM      8  C   UNL     1       5.447  -9.811  -0.093  0.00  0.00    +0.008 A 
ATOM      9  C   UNL     1       5.093  -8.451  -0.078  0.00  0.00    -0.017 A 
ATOM     10  C   UNL     1       6.074  -7.443  -0.072  0.00  0.00    +0.012 A 
ATOM     11  C   UNL     1       5.723  -6.131  -0.058  0.00  0.00    +0.046 A 
ATOM     12  C   UNL     1       4.387  -5.728  -0.053  0.00  0.00    +0.126 A 
BRANCH  12  13
ATOM     13  O   UNL     1       4.082  -4.407  -0.045  0.00  0.00    -0.506 OA
ATOM     14  H   UNL     1       3.998  -4.028   0.841  0.00  0.00    +0.292 HD
ENDBRANCH  12  13
ENDBRANCH   2   3
BRANCH   1  15
ATOM     15  S   UNL     1       0.063  -4.530  -0.023  0.00  0.00    +0.099 S 
ATOM     16  O   UNL     1      -0.476  -4.950   1.223  0.00  0.00    -0.146 OA
ATOM     17  O   UNL     1      -0.490  -4.937  -1.267  0.00  0.00    -0.146 OA
BRANCH  15  22
ATOM     18  C   UNL     1      -0.018   1.503   0.010  0.00  0.00    +0.044 C 
ATOM     19  C   UNL     1       0.002  -0.004   0.002  0.00  0.00    -0.050 A 
ATOM     20  C   UNL     1       0.006  -0.689  -1.199  0.00  0.00    +0.005 A 
ATOM     21  C   UNL     1       0.025  -2.071  -1.206  0.00  0.00    +0.029 A 
ATOM     22  C   UNL     1       0.040  -2.768  -0.013  0.00  0.00    +0.112 A 
ATOM     23  C   UNL     1       0.037  -2.084   1.188  0.00  0.00    +0.029 A 
ATOM     24  C   UNL     1       0.023  -0.702   1.195  0.00  0.00    +0.005 A 
ENDBRANCH  15  22
ENDBRANCH   1  15
TORSDOF 4
