REMARK  Name = ZINC38766582
REMARK  6 active torsions:
REMARK  status: ('A' for Active; 'I' for Inactive)
REMARK    1  A    between atoms: C_1  and  C_2
REMARK    2  A    between atoms: C_5  and  C_8
REMARK    3  A    between atoms: C_8  and  O_9
REMARK    4  A    between atoms: O_9  and  C_10
REMARK    5  A    between atoms: C_13  and  C_16
REMARK    6  A    between atoms: C_24  and  C_30
REMARK                            x       y       z     vdW  Elec       q    Type
REMARK                         _______ _______ _______ _____ _____    ______ ____
ROOT
ATOM      1  C   UNL     1       1.608  -6.079  -0.040  0.00  0.00    +0.121 A 
ATOM      2  C   UNL     1       0.520  -6.939  -0.044  0.00  0.00    +0.046 A 
ATOM      3  C   UNL     1       0.721  -8.306  -0.053  0.00  0.00    +0.007 A 
ATOM      4  C   UNL     1       2.006  -8.817  -0.058  0.00  0.00    -0.042 A 
ATOM      5  C   UNL     1       3.092  -7.961  -0.053  0.00  0.00    +0.007 A 
ATOM      6  C   UNL     1       2.896  -6.594  -0.050  0.00  0.00    +0.046 A 
ENDROOT
BRANCH   4   7
ATOM      7  C   UNL     1       2.223 -10.308  -0.067  0.00  0.00    +0.047 C 
ATOM      8  C   UNL     1       3.023 -10.721   1.172  0.00  0.00    +0.105 C 
ATOM      9  C   UNL     1       3.515 -12.133   1.046  0.00  0.00    +0.219 C 
ATOM     10  O   UNL     1       3.835 -12.720   2.057  0.00  0.00    -0.275 OA
ATOM     11  N   UNL     1       3.619 -12.780  -0.122  0.00  0.00    -0.273 N 
ATOM     12  C   UNL     1       3.203 -12.203  -1.285  0.00  0.00    +0.116 C 
ATOM     13  N   UNL     1       2.958 -12.929  -2.342  0.00  0.00    -0.224 NA
ATOM     14  C   UNL     1       2.453 -12.413  -3.458  0.00  0.00    +0.121 C 
ATOM     15  N   UNL     1       2.115 -11.149  -3.560  0.00  0.00    -0.165 NA
ATOM     16  C   UNL     1       2.312 -10.287  -2.563  0.00  0.00    +0.249 C 
ATOM     17  O   UNL     1       1.909  -9.146  -2.670  0.00  0.00    -0.273 OA
ATOM     18  C   UNL     1       3.021 -10.706  -1.312  0.00  0.00    +0.148 C 
ATOM     19  C   UNL     1       2.262 -13.313  -4.651  0.00  0.00    +0.085 C 
ATOM     20  H   UNL     1       3.996 -13.674  -0.141  0.00  0.00    +0.156 HD
ENDBRANCH   4   7
BRANCH   1  21
ATOM     21  O   UNL     1       1.413  -4.734  -0.032  0.00  0.00    -0.487 OA
BRANCH  21  22
ATOM     22  C   UNL     1       0.059  -4.275  -0.021  0.00  0.00    +0.264 C 
BRANCH  22  27
ATOM     23  C   UNL     1      -0.018   1.503   0.010  0.00  0.00    +0.044 C 
ATOM     24  C   UNL     1       0.002  -0.004   0.002  0.00  0.00    -0.050 A 
ATOM     25  C   UNL     1       0.006  -0.689  -1.199  0.00  0.00    +0.004 A 
ATOM     26  C   UNL     1       0.025  -2.071  -1.206  0.00  0.00    +0.007 A 
ATOM     27  C   UNL     1       0.040  -2.768  -0.013  0.00  0.00    -0.010 A 
ATOM     28  C   UNL     1       0.037  -2.084   1.188  0.00  0.00    +0.007 A 
ATOM     29  C   UNL     1       0.023  -0.702   1.195  0.00  0.00    +0.004 A 
ENDBRANCH  22  27
ENDBRANCH  21  22
ENDBRANCH   1  21
TORSDOF 4
