REMARK  Name = ZINC12078482
REMARK  6 active torsions:
REMARK  status: ('A' for Active; 'I' for Inactive)
REMARK    1  A    between atoms: N_11  and  C_12
REMARK    2  A    between atoms: C_12  and  C_13
REMARK    3  A    between atoms: C_13  and  C_14
REMARK    4  A    between atoms: N_16  and  C_17
REMARK    5  A    between atoms: C_17  and  C_18
REMARK    6  A    between atoms: C_23  and  C_29
REMARK                            x       y       z     vdW  Elec       q    Type
REMARK                         _______ _______ _______ _____ _____    ______ ____
ROOT
ATOM      1  C   UNL     1       0.043  -2.029   1.433  0.00  0.00    +0.215 C 
ATOM      2  O   UNL     1       0.041  -2.629   0.380  0.00  0.00    -0.276 OA
ATOM      3  N   UNL     1       0.064  -2.709   2.597  0.00  0.00    -0.312 N 
ATOM      4  H   UNL     1       0.065  -2.228   3.439  0.00  0.00    +0.149 HD
ENDROOT
BRANCH   1   5
ATOM      5  C   UNL     1       0.023  -0.522   1.442  0.00  0.00    +0.117 C 
BRANCH   5   6
ATOM      6  C   UNL     1       0.002  -0.004   0.002  0.00  0.00    +0.136 C 
BRANCH   6  17
ATOM      7  C   UNL     1       2.883   4.411  -0.003  0.00  0.00    +0.002 A 
ATOM      8  C   UNL     1       3.352   3.108  -0.014  0.00  0.00    +0.002 A 
ATOM      9  C   UNL     1       2.466   2.049  -0.011  0.00  0.00    +0.028 A 
ATOM     10  C   UNL     1       1.100   2.291   0.004  0.00  0.00    +0.070 A 
ATOM     11  C   UNL     1       0.628   3.605   0.015  0.00  0.00    +0.067 A 
ATOM     12  C   UNL     1       1.525   4.662   0.012  0.00  0.00    +0.028 A 
ATOM     13  N   UNL     1      -0.763   3.532   0.028  0.00  0.00    -0.306 N 
ATOM     14  H   UNL     1      -1.371   4.288   0.038  0.00  0.00    +0.170 HD
ATOM     15  C   UNL     1      -1.120   2.234   0.019  0.00  0.00    +0.328 A 
ATOM     16  O   UNL     1      -2.265   1.822   0.021  0.00  0.00    -0.247 OA
ATOM     17  N   UNL     1      -0.018   1.461   0.010  0.00  0.00    -0.292 N 
ENDBRANCH   6  17
ENDBRANCH   5   6
ENDBRANCH   1   5
BRANCH   3  18
ATOM     18  C   UNL     1       0.083  -4.173   2.589  0.00  0.00    +0.149 C 
BRANCH  18  19
ATOM     19  C   UNL     1       0.104  -4.691   4.028  0.00  0.00    +0.195 C 
ATOM     20  C   UNL     1       0.188  -6.236   4.054  0.00  0.00    +0.085 C 
ATOM     21  C   UNL     1      -0.685  -6.574   5.251  0.00  0.00    -0.000 A 
ATOM     22  C   UNL     1      -0.818  -7.722   5.998  0.00  0.00    +0.016 A 
ATOM     23  C   UNL     1      -1.696  -7.749   7.080  0.00  0.00    -0.013 A 
ATOM     24  C   UNL     1      -2.433  -6.608   7.396  0.00  0.00    +0.032 A 
ATOM     25  C   UNL     1      -2.297  -5.464   6.640  0.00  0.00    +0.083 A 
ATOM     26  C   UNL     1      -1.422  -5.436   5.554  0.00  0.00    +0.143 A 
ATOM     27  O   UNL     1      -1.148  -4.426   4.683  0.00  0.00    -0.485 OA
ATOM     28 CL   UNL     1      -3.219  -4.050   7.043  0.00  0.00    -0.080 Cl
BRANCH  23  29
ATOM     29  C   UNL     1      -1.845  -8.982   7.891  0.00  0.00    +0.018 A 
ATOM     30  C   UNL     1      -1.118 -10.135   7.584  0.00  0.00    +0.122 A 
ATOM     31  N   UNL     1      -1.277 -11.211   8.336  0.00  0.00    -0.243 NA
ATOM     32  C   UNL     1      -2.115 -11.209   9.354  0.00  0.00    +0.221 A 
ATOM     33  N   UNL     1      -2.824 -10.145   9.674  0.00  0.00    -0.243 NA
ATOM     34  C   UNL     1      -2.721  -9.025   8.979  0.00  0.00    +0.122 A 
ENDBRANCH  23  29
ENDBRANCH  18  19
ENDBRANCH   3  18
TORSDOF 6
