REMARK  Name = ZINC14470636
REMARK  3 active torsions:
REMARK  status: ('A' for Active; 'I' for Inactive)
REMARK    1  A    between atoms: C_3  and  C_27
REMARK    2  A    between atoms: C_14  and  C_17
REMARK    3  A    between atoms: C_21  and  N_23
REMARK                            x       y       z     vdW  Elec       q    Type
REMARK                         _______ _______ _______ _____ _____    ______ ____
ROOT
ATOM      1  C   UNL     1      -3.698   2.869  -0.643  0.00  0.00    +0.002 A 
ATOM      2  C   UNL     1      -3.539   3.142   0.699  0.00  0.00    +0.021 A 
ATOM      3  C   UNL     1      -2.290   3.537   1.178  0.00  0.00    +0.073 A 
ATOM      4  C   UNL     1      -1.201   3.658   0.293  0.00  0.00    +0.049 A 
ATOM      5  C   UNL     1      -1.376   3.379  -1.051  0.00  0.00    -0.018 A 
ATOM      6  C   UNL     1      -2.627   2.986  -1.508  0.00  0.00    +0.006 A 
ATOM      7  C   UNL     1      -0.262   3.481  -2.050  0.00  0.00    +0.049 C 
ATOM      8  C   UNL     1       0.188   2.107  -2.490  0.00  0.00    -0.023 C 
ATOM      9  C   UNL     1       1.491   2.070  -2.619  0.00  0.00    -0.030 C 
ATOM     10  C   UNL     1       2.095   3.421  -2.290  0.00  0.00    +0.033 C 
ATOM     11  C   UNL     1       1.002   4.108  -1.424  0.00  0.00    +0.029 C 
ATOM     12  C   UNL     1       1.150   3.592   0.010  0.00  0.00    +0.105 C 
ATOM     13  N   UNL     1       0.021   4.060   0.814  0.00  0.00    -0.335 N 
ATOM     14  H   UNL     1       0.051   5.062   0.932  0.00  0.00    +0.147 HD
ENDROOT
BRANCH  12  15
ATOM     15  C   UNL     1       1.171   2.086   0.002  0.00  0.00    -0.025 A 
ATOM     16  C   UNL     1       0.019   1.377   0.290  0.00  0.00    +0.007 A 
ATOM     17  C   UNL     1       0.038  -0.005   0.283  0.00  0.00    +0.022 A 
ATOM     18  C   UNL     1       1.210  -0.679  -0.013  0.00  0.00    +0.071 A 
ATOM     19  C   UNL     1       2.361   0.030  -0.301  0.00  0.00    +0.145 A 
ATOM     20  C   UNL     1       2.342   1.413  -0.294  0.00  0.00    +0.039 A 
ATOM     21 CL   UNL     1       1.234  -2.415  -0.023  0.00  0.00    -0.081 Cl
BRANCH  19  22
ATOM     22  N   UNL     1       3.615  -0.690  -0.619  0.00  0.00    +0.058 N 
ATOM     23  O   UNL     1       4.629  -0.065  -0.872  0.00  0.00    -0.126 OA
ATOM     24  O   UNL     1       3.632  -1.908  -0.626  0.00  0.00    -0.126 OA
ENDBRANCH  19  22
ENDBRANCH  12  15
BRANCH   3  25
ATOM     25  C   UNL     1      -2.115   3.821   2.571  0.00  0.00    +0.101 C 
ATOM     26  N   UNL     1      -1.976   4.047   3.676  0.00  0.00    -0.191 NA
ENDBRANCH   3  25
TORSDOF 3
