REMARK  Name = ZINC01134618
REMARK  6 active torsions:
REMARK  status: ('A' for Active; 'I' for Inactive)
REMARK    1  A    between atoms: C_1  and  C_2
REMARK    2  A    between atoms: C_3  and  C_26
REMARK    3  A    between atoms: C_4  and  C_14
REMARK    4  A    between atoms: C_16  and  N_23
REMARK    5  A    between atoms: C_18  and  O_20
REMARK    6  A    between atoms: O_20  and  C_21
REMARK                            x       y       z     vdW  Elec       q    Type
REMARK                         _______ _______ _______ _____ _____    ______ ____
ROOT
ATOM      1  C   UNL     1      -0.028   1.103   0.006  0.00  0.00    +0.061 C 
ATOM      2  C   UNL     1      -0.760   1.524   1.255  0.00  0.00    +0.014 C 
ATOM      3  C   UNL     1      -0.087   1.657   2.409  0.00  0.00    +0.043 C 
ATOM      4  C   UNL     1      -0.784   2.067   3.674  0.00  0.00    +0.090 C 
ATOM      5  C   UNL     1      -2.123   2.693   3.375  0.00  0.00    +0.024 C 
ATOM      6  C   UNL     1      -2.716   2.512   2.177  0.00  0.00    +0.015 C 
ATOM      7  N   UNL     1      -2.104   1.773   1.203  0.00  0.00    -0.321 N 
ATOM      8  C   UNL     1      -4.062   3.125   1.875  0.00  0.00    +0.051 C 
ATOM      9  C   UNL     1      -4.215   4.434   2.652  0.00  0.00    +0.014 C 
ATOM     10  C   UNL     1      -4.061   4.135   4.146  0.00  0.00    +0.080 C 
ATOM     11  C   UNL     1      -2.732   3.469   4.377  0.00  0.00    +0.162 C 
ATOM     12  O   UNL     1      -2.175   3.603   5.449  0.00  0.00    -0.292 OA
ATOM     13  H   UNL     1      -2.705   1.376   0.371  0.00  0.00    +0.152 HD
ENDROOT
BRANCH   3  14
ATOM     14  C   UNL     1       1.307   1.406   2.434  0.00  0.00    +0.245 C 
ATOM     15  O   UNL     1       1.724   0.319   2.790  0.00  0.00    -0.270 OA
ATOM     16  N   UNL     1       2.172   2.371   2.063  0.00  0.00    -0.298 N 
ATOM     17  C   UNL     1       1.693   3.722   1.741  0.00  0.00    +0.108 C 
ATOM     18  C   UNL     1       2.475   4.734   2.593  0.00  0.00    +0.019 C 
ATOM     19  C   UNL     1       3.975   4.529   2.368  0.00  0.00    +0.003 C 
ATOM     20  C   UNL     1       4.371   3.118   2.812  0.00  0.00    +0.019 C 
ATOM     21  C   UNL     1       3.611   2.090   1.968  0.00  0.00    +0.108 C 
ENDBRANCH   3  14
BRANCH   4  22
ATOM     22  C   UNL     1      -0.988   0.852   4.542  0.00  0.00    -0.029 A 
ATOM     23  C   UNL     1      -1.821  -0.167   4.118  0.00  0.00    +0.041 A 
ATOM     24  C   UNL     1      -2.008  -1.285   4.909  0.00  0.00    +0.177 A 
ATOM     25  C   UNL     1      -1.368  -1.382   6.134  0.00  0.00    +0.250 A 
ATOM     26  C   UNL     1      -0.534  -0.354   6.563  0.00  0.00    +0.169 A 
ATOM     27  C   UNL     1      -0.347   0.761   5.763  0.00  0.00    +0.054 A 
ATOM     28  O   UNL     1      -1.555  -2.480   6.915  0.00  0.00    -0.282 OA
BRANCH  24  29
ATOM     29  N   UNL     1      -2.896  -2.376   4.449  0.00  0.00    +0.060 N 
ATOM     30  O   UNL     1      -3.459  -2.291   3.372  0.00  0.00    -0.126 OA
ATOM     31  O   UNL     1      -3.065  -3.360   5.148  0.00  0.00    -0.126 OA
ENDBRANCH  24  29
BRANCH  26  32
ATOM     32  O   UNL     1       0.097  -0.445   7.765  0.00  0.00    -0.491 OA
ATOM     33  C   UNL     1       0.850   0.692   8.190  0.00  0.00    +0.277 C 
ENDBRANCH  26  32
ENDBRANCH   4  22
TORSDOF 4
