REMARK  Name = ZINC12183456
REMARK  9 active torsions:
REMARK  status: ('A' for Active; 'I' for Inactive)
REMARK    1  A    between atoms: C_1  and  C_2
REMARK    2  A    between atoms: C_2  and  C_3
REMARK    3  A    between atoms: C_2  and  C_4
REMARK    4  A    between atoms: N_16  and  C_18
REMARK    5  A    between atoms: C_18  and  C_19
REMARK    6  A    between atoms: N_21  and  C_22
REMARK    7  A    between atoms: C_22  and  C_23
REMARK    8  A    between atoms: C_22  and  C_24
REMARK    9  A    between atoms: C_22  and  C_25
REMARK                            x       y       z     vdW  Elec       q    Type
REMARK                         _______ _______ _______ _____ _____    ______ ____
ROOT
ATOM      1  C   UNL     1      -2.984   1.515   3.908  0.00  0.00    +0.123 A 
ATOM      2  N   UNL     1      -3.180   2.380   4.850  0.00  0.00    -0.233 NA
ATOM      3  C   UNL     1      -2.465   3.534   4.943  0.00  0.00    +0.077 A 
ATOM      4  C   UNL     1      -2.695   4.451   5.968  0.00  0.00    +0.028 A 
ATOM      5  C   UNL     1      -1.950   5.610   6.031  0.00  0.00    +0.002 A 
ATOM      6  C   UNL     1      -0.974   5.877   5.083  0.00  0.00    +0.001 A 
ATOM      7  C   UNL     1      -0.730   4.984   4.059  0.00  0.00    +0.014 A 
ATOM      8  C   UNL     1      -1.470   3.810   3.981  0.00  0.00    +0.045 A 
ATOM      9  C   UNL     1      -1.254   2.820   2.911  0.00  0.00    +0.172 A 
ATOM     10  N   UNL     1      -2.046   1.680   2.922  0.00  0.00    -0.230 N 
ATOM     11  C   UNL     1      -1.688   0.918   1.870  0.00  0.00    +0.353 A 
ATOM     12  O   UNL     1      -2.171  -0.158   1.565  0.00  0.00    -0.244 OA
ATOM     13  N   UNL     1      -0.698   1.558   1.213  0.00  0.00    -0.203 N 
ATOM     14  N   UNL     1      -0.441   2.755   1.897  0.00  0.00    -0.148 NA
ENDROOT
BRANCH   1  16
ATOM     15  C   UNL     1      -4.322  -0.032   5.310  0.00  0.00    +0.015 C 
ATOM     16  C   UNL     1      -3.829   0.267   3.893  0.00  0.00    +0.050 C 
ATOM     17  C   UNL     1      -5.030   0.475   2.968  0.00  0.00    +0.015 C 
ENDBRANCH   1  16
BRANCH  13  18
ATOM     18  C   UNL     1      -0.013   1.086   0.008  0.00  0.00    +0.244 C 
BRANCH  18  19
ATOM     19  C   UNL     1      -0.742   1.585  -1.213  0.00  0.00    +0.235 C 
ATOM     20  O   UNL     1      -1.736   2.268  -1.088  0.00  0.00    -0.274 OA
ATOM     21  N   UNL     1      -0.288   1.272  -2.443  0.00  0.00    -0.309 N 
ATOM     22  H   UNL     1       0.507   0.726  -2.543  0.00  0.00    +0.149 HD
BRANCH  21  23
ATOM     23  C   UNL     1      -0.997   1.758  -3.630  0.00  0.00    +0.026 C 
ATOM     24  C   UNL     1      -1.018   3.288  -3.622  0.00  0.00    +0.031 C 
ATOM     25  C   UNL     1      -0.281   1.264  -4.889  0.00  0.00    +0.031 C 
ATOM     26  C   UNL     1      -2.432   1.228  -3.619  0.00  0.00    +0.031 C 
ENDBRANCH  21  23
ENDBRANCH  18  19
ENDBRANCH  13  18
TORSDOF 4
