REMARK  Name = ZINC40312909
REMARK  9 active torsions:
REMARK  status: ('A' for Active; 'I' for Inactive)
REMARK    1  A    between atoms: C_1  and  O_2
REMARK    2  A    between atoms: O_2  and  C_3
REMARK    3  A    between atoms: C_3  and  C_5
REMARK    4  A    between atoms: C_5  and  C_6
REMARK    5  A    between atoms: C_6  and  C_7
REMARK    6  A    between atoms: C_7  and  C_8
REMARK    7  A    between atoms: C_8  and  C_9
REMARK    8  A    between atoms: C_9  and  N_10
REMARK    9  A    between atoms: C_22  and  C_24
REMARK                            x       y       z     vdW  Elec       q    Type
REMARK                         _______ _______ _______ _____ _____    ______ ____
ROOT
ATOM      1  N   UNL     1      -4.895  -9.135   0.087  0.00  0.00    -0.299 N 
ATOM      2  C   UNL     1      -5.746  -8.092   0.030  0.00  0.00    +0.303 C 
ATOM      3  O   UNL     1      -5.321  -6.955   0.101  0.00  0.00    -0.253 OA
ATOM      4  N   UNL     1      -7.069  -8.309  -0.107  0.00  0.00    -0.273 N 
ATOM      5  C   UNL     1      -8.001  -7.186  -0.292  0.00  0.00    +0.116 C 
ATOM      6  C   UNL     1      -8.950  -7.118   0.911  0.00  0.00    +0.074 C 
ATOM      7  C   UNL     1      -9.436  -8.508   1.226  0.00  0.00    +0.040 A 
ATOM      8  C   UNL     1      -8.850  -9.646   0.797  0.00  0.00    +0.062 A 
ATOM      9  N   UNL     1      -9.550 -10.679   1.272  0.00  0.00    -0.348 N 
ATOM     10  C   UNL     1     -10.553 -10.226   1.979  0.00  0.00    +0.171 A 
ATOM     11  N   UNL     1     -10.515  -8.874   1.972  0.00  0.00    -0.349 N 
ATOM     12  H   UNL     1     -11.139  -8.278   2.415  0.00  0.00    +0.166 HD
ATOM     13  C   UNL     1      -7.617  -9.677  -0.081  0.00  0.00    +0.156 C 
ATOM     14  H   UNL     1      -5.239 -10.042   0.103  0.00  0.00    +0.150 HD
ATOM     15  H   UNL     1      -9.347 -11.615   1.118  0.00  0.00    +0.167 HD
ENDROOT
BRANCH  13  16
ATOM     16  C   UNL     1      -7.987 -10.109  -1.477  0.00  0.00    -0.017 A 
ATOM     17  C   UNL     1      -7.335 -11.177  -2.064  0.00  0.00    +0.009 A 
ATOM     18  C   UNL     1      -7.671 -11.577  -3.344  0.00  0.00    +0.050 A 
ATOM     19  C   UNL     1      -8.662 -10.906  -4.042  0.00  0.00    +0.166 A 
ATOM     20  C   UNL     1      -9.319  -9.830  -3.450  0.00  0.00    +0.167 A 
ATOM     21  C   UNL     1      -8.981  -9.439  -2.165  0.00  0.00    +0.055 A 
ATOM     22  O   UNL     1     -10.242  -9.345  -4.331  0.00  0.00    -0.453 OA
ATOM     23  C   UNL     1      -9.863  -9.872  -5.615  0.00  0.00    +0.466 C 
ATOM     24  O   UNL     1      -9.174 -11.095  -5.293  0.00  0.00    -0.453 OA
ENDBRANCH  13  16
BRANCH   1  25
ATOM     25  C   UNL     1      -3.449  -8.900   0.127  0.00  0.00    +0.106 C 
BRANCH  25  26
ATOM     26  C   UNL     1      -2.716 -10.241   0.189  0.00  0.00    +0.019 C 
BRANCH  26  27
ATOM     27  C   UNL     1      -1.206  -9.995   0.230  0.00  0.00    +0.002 C 
BRANCH  27  28
ATOM     28  C   UNL     1      -0.472 -11.336   0.293  0.00  0.00    +0.011 C 
BRANCH  28  29
ATOM     29  C   UNL     1       1.037 -11.090   0.334  0.00  0.00    +0.120 C 
BRANCH  29  30
ATOM     30  C   UNL     1       1.760 -12.411   0.396  0.00  0.00    +0.307 C 
ATOM     31  O   UNL     1       1.132 -13.443   0.406  0.00  0.00    -0.251 OA
BRANCH  30  33
ATOM     32  C   UNL     1       3.720 -13.727   0.497  0.00  0.00    +0.280 C 
ATOM     33  O   UNL     1       3.101 -12.441   0.439  0.00  0.00    -0.468 OA
ENDBRANCH  30  33
ENDBRANCH  29  30
ENDBRANCH  28  29
ENDBRANCH  27  28
ENDBRANCH  26  27
ENDBRANCH  25  26
ENDBRANCH   1  25
TORSDOF 8
