REMARK  Name = ZINC39464591
REMARK  6 active torsions:
REMARK  status: ('A' for Active; 'I' for Inactive)
REMARK    1  A    between atoms: C_1  and  O_2
REMARK    2  A    between atoms: O_2  and  C_3
REMARK    3  A    between atoms: C_8  and  C_9
REMARK    4  A    between atoms: C_14  and  O_15
REMARK    5  A    between atoms: P_23  and  O_26
REMARK    6  A    between atoms: O_26  and  C_27
REMARK                            x       y       z     vdW  Elec       q    Type
REMARK                         _______ _______ _______ _____ _____    ______ ____
ROOT
ATOM      1  C   UNL     1       0.606  -0.607  -1.055  0.00  0.00    +0.128 A 
ATOM      2  C   UNL     1       1.172   0.156  -2.061  0.00  0.00    +0.051 A 
ATOM      3  C   UNL     1       1.791  -0.452  -3.144  0.00  0.00    -0.020 A 
ATOM      4  C   UNL     1       1.843  -1.829  -3.221  0.00  0.00    -0.041 A 
ATOM      5  C   UNL     1       1.280  -2.604  -2.222  0.00  0.00    +0.016 A 
ATOM      6  C   UNL     1       0.663  -2.002  -1.131  0.00  0.00    +0.028 A 
ATOM      7  C   UNL     1       2.504  -2.526  -4.384  0.00  0.00    +0.052 C 
ATOM      8  C   UNL     1       3.437  -1.553  -5.104  0.00  0.00    +0.108 C 
ATOM      9  N   UNL     1       2.689  -0.327  -5.420  0.00  0.00    -0.224 NA
ATOM     10  C   UNL     1       2.392   0.432  -4.206  0.00  0.00    +0.130 C 
ATOM     11  C   UNL     1       1.427   1.585  -4.500  0.00  0.00    +0.196 C 
ATOM     12  O   UNL     1       2.058   2.489  -5.428  0.00  0.00    -0.294 OA
ATOM     13  P   UNL     1       2.721   1.870  -6.777  0.00  0.00    +0.421 P 
ATOM     14  O   UNL     1       3.760   2.784  -7.303  0.00  0.00    -0.239 OA
ATOM     15  N   UNL     1       3.402   0.434  -6.321  0.00  0.00    -0.156 NA
ATOM     16  H   UNL     1       4.259   0.142  -6.669  0.00  0.00    +0.153 HD
ENDROOT
BRANCH   6  17
ATOM     17  C   UNL     1       0.065  -2.833  -0.058  0.00  0.00    +0.027 A 
ATOM     18  C   UNL     1       0.878  -3.633   0.743  0.00  0.00    +0.012 A 
ATOM     19  C   UNL     1       0.316  -4.404   1.740  0.00  0.00    +0.001 A 
ATOM     20  C   UNL     1      -1.052  -4.387   1.948  0.00  0.00    +0.004 A 
ATOM     21  C   UNL     1      -1.867  -3.597   1.159  0.00  0.00    +0.046 A 
ATOM     22  C   UNL     1      -1.316  -2.813   0.158  0.00  0.00    +0.125 A 
BRANCH  22  23
ATOM     23  O   UNL     1      -2.116  -2.033  -0.614  0.00  0.00    -0.506 OA
ATOM     24  H   UNL     1      -2.447  -2.474  -1.409  0.00  0.00    +0.292 HD
ENDBRANCH  22  23
ENDBRANCH   6  17
BRANCH   1  26
ATOM     25  C   UNL     1      -0.017   1.425   0.010  0.00  0.00    +0.277 C 
ATOM     26  O   UNL     1       0.002  -0.004   0.002  0.00  0.00    -0.494 OA
ENDBRANCH   1  26
BRANCH  13  27
ATOM     27  O   UNL     1       1.586   1.621  -7.891  0.00  0.00    -0.299 OA
ATOM     28  C   UNL     1       1.886   1.281  -9.246  0.00  0.00    +0.206 C 
ENDBRANCH  13  27
TORSDOF 4
