REMARK  Name = ZINC40381856
REMARK  5 active torsions:
REMARK  status: ('A' for Active; 'I' for Inactive)
REMARK    1  A    between atoms: C_1  and  N_2
REMARK    2  A    between atoms: N_2  and  C_3
REMARK    3  A    between atoms: C_6  and  S_9
REMARK    4  A    between atoms: S_9  and  N_12
REMARK    5  A    between atoms: C_13  and  C_15
REMARK                            x       y       z     vdW  Elec       q    Type
REMARK                         _______ _______ _______ _____ _____    ______ ____
ROOT
ATOM      1  C   UNL     1      -0.496   1.402  -0.023  0.00  0.00    +0.138 C 
ATOM      2  N   UNL     1      -0.275  -0.046  -0.013  0.00  0.00    -0.269 N 
ATOM      3  C   UNL     1      -0.188  -0.723  -1.175  0.00  0.00    +0.267 C 
ATOM      4  O   UNL     1      -0.113  -1.938  -1.167  0.00  0.00    -0.268 OA
ENDROOT
BRANCH   3   5
ATOM      5  C   UNL     1      -0.183   0.003  -2.447  0.00  0.00    +0.105 A 
ATOM      6  C   UNL     1      -0.247  -0.558  -3.706  0.00  0.00    +0.054 A 
ATOM      7  C   UNL     1      -0.215   0.493  -4.627  0.00  0.00    +0.078 A 
ATOM      8  C   UNL     1      -0.134   1.655  -3.930  0.00  0.00    +0.126 A 
ATOM      9  N   UNL     1      -0.120   1.371  -2.604  0.00  0.00    -0.341 N 
ATOM     10  H   UNL     1      -0.071   2.021  -1.886  0.00  0.00    +0.167 HD
ATOM     11 CL   UNL     1      -0.068   3.246  -4.623  0.00  0.00    -0.063 Cl
ATOM     12 CL   UNL     1      -0.269   0.340  -6.355  0.00  0.00    -0.080 Cl
ENDBRANCH   3   5
BRANCH   2  13
ATOM     13  C   UNL     1      -0.155  -0.726   1.204  0.00  0.00    +0.036 A 
ATOM     14  C   UNL     1       0.225  -2.062   1.220  0.00  0.00    +0.025 A 
ATOM     15  C   UNL     1       0.343  -2.730   2.422  0.00  0.00    +0.030 A 
ATOM     16  C   UNL     1       0.082  -2.071   3.610  0.00  0.00    +0.105 A 
ATOM     17  C   UNL     1      -0.297  -0.741   3.597  0.00  0.00    +0.030 A 
ATOM     18  C   UNL     1      -0.410  -0.065   2.398  0.00  0.00    +0.025 A 
BRANCH  16  19
ATOM     19  S   UNL     1       0.233  -2.928   5.142  0.00  0.00    +0.056 S 
ATOM     20  O   UNL     1      -0.594  -2.243   6.073  0.00  0.00    -0.153 OA
ATOM     21  O   UNL     1       0.070  -4.310   4.852  0.00  0.00    -0.153 OA
BRANCH  19  22
ATOM     22  N   UNL     1       1.793  -2.733   5.661  0.00  0.00    -0.204 NA
ATOM     23  H   UNL     1       2.420  -2.218   5.130  0.00  0.00    +0.144 HD
ATOM     24  H   UNL     1       2.080  -3.135   6.496  0.00  0.00    +0.144 HD
ENDBRANCH  19  22
ENDBRANCH  16  19
ENDBRANCH   2  13
TORSDOF 4
