REMARK  Name = ZINC24498083
REMARK  10 active torsions:
REMARK  status: ('A' for Active; 'I' for Inactive)
REMARK    1  A    between atoms: C_1  and  C_2
REMARK    2  A    between atoms: C_2  and  C_26
REMARK    3  A    between atoms: C_4  and  N_10
REMARK    4  A    between atoms: C_6  and  C_8
REMARK    5  A    between atoms: C_6  and  C_9
REMARK    6  A    between atoms: C_11  and  C_13
REMARK    7  A    between atoms: C_13  and  C_14
REMARK    8  A    between atoms: C_14  and  C_15
REMARK    9  A    between atoms: C_15  and  N_16
REMARK   10  A    between atoms: N_19  and  C_20
REMARK                            x       y       z     vdW  Elec       q    Type
REMARK                         _______ _______ _______ _____ _____    ______ ____
ROOT
ATOM      1  N   UNL     1       1.238   3.033  -3.503  0.00  0.00    -0.313 N 
ATOM      2  C   UNL     1       0.781   4.120  -4.156  0.00  0.00    +0.213 C 
ATOM      3  O   UNL     1      -0.030   4.849  -3.626  0.00  0.00    -0.276 OA
ATOM      4  H   UNL     1       1.974   2.372  -3.984  0.00  0.00    +0.149 HD
ENDROOT
BRANCH   1   8
ATOM      5  C   UNL     1      -2.142   0.480  -1.024  0.00  0.00    -0.010 C 
ATOM      6  C   UNL     1      -1.041   1.551  -0.853  0.00  0.00    -0.072 C 
ATOM      7  C   UNL     1      -0.531   1.911  -2.245  0.00  0.00    +0.009 C 
ATOM      8  C   UNL     1       0.755   2.732  -2.150  0.00  0.00    +0.070 C 
ATOM      9  C   UNL     1       1.806   1.898  -1.415  0.00  0.00    +0.009 C 
ATOM     10  C   UNL     1       1.321   1.577  -0.002  0.00  0.00    -0.072 C 
ATOM     11  N   UNL     1      -0.012   1.005   0.008  0.00  0.00    +0.386 N 
ATOM     12  C   UNL     1       1.397   2.833   0.870  0.00  0.00    -0.010 C 
ATOM     13  C   UNL     1       2.294   0.539   0.599  0.00  0.00    -0.010 C 
ATOM     14  C   UNL     1      -1.702   2.779  -0.216  0.00  0.00    -0.010 C 
ATOM     15  H   UNL     1      -0.329   1.089   1.058  0.00  0.00    -0.084 HD
ATOM     16  H   UNL     1       0.152  -0.054  -0.243  0.00  0.00    -0.084 HD
ENDBRANCH   1   8
BRANCH   2  17
ATOM     17  C   UNL     1       1.277   4.429  -5.545  0.00  0.00    +0.097 C 
BRANCH  17  18
ATOM     18  C   UNL     1       0.605   5.705  -6.055  0.00  0.00    +0.028 C 
BRANCH  18  19
ATOM     19  C   UNL     1       1.109   6.019  -7.465  0.00  0.00    +0.106 C 
BRANCH  19  20
ATOM     20  N   UNL     1       0.465   7.242  -7.953  0.00  0.00    -0.299 N 
ATOM     21  C   UNL     1       0.758   7.713  -9.181  0.00  0.00    +0.300 C 
ATOM     22  O   UNL     1       1.556   7.124  -9.884  0.00  0.00    -0.253 OA
ATOM     23  N   UNL     1       0.166   8.838  -9.629  0.00  0.00    -0.297 N 
ATOM     24  H   UNL     1      -0.257   7.774  -7.317  0.00  0.00    +0.150 HD
ATOM     25  H   UNL     1      -0.556   9.371  -8.993  0.00  0.00    +0.151 HD
BRANCH  23  26
ATOM     26  C   UNL     1       0.485   9.351 -10.964  0.00  0.00    +0.074 C 
ATOM     27  C   UNL     1       1.743  10.217 -10.891  0.00  0.00    +0.022 C 
ATOM     28  C   UNL     1       2.076  10.753 -12.285  0.00  0.00    +0.002 C 
ATOM     29  C   UNL     1       0.906  11.595 -12.800  0.00  0.00    +0.000 C 
ATOM     30  C   UNL     1      -0.352  10.728 -12.874  0.00  0.00    +0.002 C 
ATOM     31  C   UNL     1      -0.685  10.192 -11.480  0.00  0.00    +0.022 C 
ENDBRANCH  23  26
ENDBRANCH  19  20
ENDBRANCH  18  19
ENDBRANCH  17  18
ENDBRANCH   2  17
TORSDOF 6
