REMARK  Name = ZINC06282895
REMARK  10 active torsions:
REMARK  status: ('A' for Active; 'I' for Inactive)
REMARK    1  A    between atoms: C_1  and  O_2
REMARK    2  A    between atoms: O_2  and  C_3
REMARK    3  A    between atoms: C_8  and  C_15
REMARK    4  A    between atoms: C_15  and  C_17
REMARK    5  A    between atoms: C_15  and  N_71
REMARK    6  A    between atoms: N_21  and  C_22
REMARK    7  A    between atoms: C_28  and  C_29
REMARK    8  A    between atoms: C_28  and  N_71
REMARK    9  A    between atoms: C_35  and  C_36
REMARK   10  A    between atoms: C_35  and  N_71
REMARK                            x       y       z     vdW  Elec       q    Type
REMARK                         _______ _______ _______ _____ _____    ______ ____
ROOT
ATOM      1  C   UNL     1      -1.972   8.462   3.095  0.00  0.00    +0.040 C 
ENDROOT
BRANCH   1   7
ATOM      2  C   UNL     1      -0.755   2.435   1.009  0.00  0.00    +0.122 A 
ATOM      3  C   UNL     1      -0.016   3.333   0.240  0.00  0.00    +0.046 A 
ATOM      4  C   UNL     1      -0.098   4.675   0.473  0.00  0.00    +0.013 A 
ATOM      5  C   UNL     1      -0.921   5.154   1.499  0.00  0.00    -0.001 A 
ATOM      6  C   UNL     1      -1.027   6.586   1.776  0.00  0.00    +0.017 A 
ATOM      7  C   UNL     1      -1.841   6.994   2.783  0.00  0.00    +0.011 A 
ATOM      8  C   UNL     1      -2.565   6.048   3.538  0.00  0.00    +0.251 A 
ATOM      9  O   UNL     1      -3.291   6.436   4.437  0.00  0.00    -0.268 OA
ATOM     10  N   UNL     1      -2.476   4.730   3.291  0.00  0.00    -0.322 N 
ATOM     11  H   UNL     1      -2.989   4.107   3.829  0.00  0.00    +0.169 HD
ATOM     12  C   UNL     1      -1.666   4.251   2.283  0.00  0.00    +0.053 A 
ATOM     13  C   UNL     1      -1.575   2.888   2.027  0.00  0.00    +0.072 A 
BRANCH   2  15
ATOM     14  C   UNL     1       0.199   0.700  -0.305  0.00  0.00    +0.277 C 
ATOM     15  O   UNL     1      -0.665   1.103   0.759  0.00  0.00    -0.495 OA
ENDBRANCH   2  15
ENDBRANCH   1   7
BRANCH   1  16
ATOM     16  C   UNL     1      -1.420   8.735   4.470  0.00  0.00    +0.143 A 
ATOM     17  N   UNL     1      -2.095   8.758   5.594  0.00  0.00    -0.115 NA
ATOM     18  N   UNL     1      -1.270   9.025   6.547  0.00  0.00    -0.023 NA
ATOM     19  N   UNL     1      -0.087   9.171   6.061  0.00  0.00    -0.044 NA
ATOM     20  N   UNL     1      -0.137   8.995   4.784  0.00  0.00    -0.227 N 
BRANCH  20  21
ATOM     21  C   UNL     1       0.990   9.067   3.851  0.00  0.00    +0.111 C 
ATOM     22  C   UNL     1       1.952   7.909   4.122  0.00  0.00    +0.027 C 
ATOM     23  C   UNL     1       3.129   7.985   3.147  0.00  0.00    +0.002 C 
ATOM     24  C   UNL     1       3.864   9.313   3.338  0.00  0.00    +0.000 C 
ATOM     25  C   UNL     1       2.902  10.472   3.067  0.00  0.00    +0.002 C 
ATOM     26  C   UNL     1       1.725  10.396   4.041  0.00  0.00    +0.027 C 
ENDBRANCH  20  21
ENDBRANCH   1  16
BRANCH   1  27
ATOM     27  N   UNL     1      -3.402   8.834   3.071  0.00  0.00    +0.397 N 
ATOM     28  H   UNL     1      -3.892   8.324   3.816  0.00  0.00    -0.079 HD
BRANCH  27  29
ATOM     29  C   UNL     1      -3.551  10.286   3.305  0.00  0.00    -0.041 C 
BRANCH  29  30
ATOM     30  C   UNL     1      -2.733  11.067   2.309  0.00  0.00    -0.064 A 
ATOM     31  C   UNL     1      -1.448  11.464   2.630  0.00  0.00    +0.002 A 
ATOM     32  C   UNL     1      -0.696  12.177   1.715  0.00  0.00    +0.000 A 
ATOM     33  C   UNL     1      -1.232  12.502   0.483  0.00  0.00    +0.000 A 
ATOM     34  C   UNL     1      -2.519  12.110   0.164  0.00  0.00    +0.000 A 
ATOM     35  C   UNL     1      -3.269  11.392   1.077  0.00  0.00    +0.002 A 
ENDBRANCH  29  30
ENDBRANCH  27  29
BRANCH  27  36
ATOM     36  C   UNL     1      -3.998   8.468   1.769  0.00  0.00    -0.001 C 
BRANCH  36  37
ATOM     37  C   UNL     1      -5.499   8.497   1.898  0.00  0.00    +0.089 A 
ATOM     38  C   UNL     1      -6.298   9.526   1.564  0.00  0.00    +0.042 A 
ATOM     39  C   UNL     1      -7.623   9.124   1.848  0.00  0.00    +0.041 A 
ATOM     40  C   UNL     1      -7.555   7.874   2.339  0.00  0.00    +0.195 A 
ATOM     41  O   UNL     1      -6.266   7.497   2.362  0.00  0.00    -0.470 OA
ENDBRANCH  36  37
ENDBRANCH  27  36
ENDBRANCH   1  27
TORSDOF 9
