REMARK  Name = ZINC57710753
REMARK  3 active torsions:
REMARK  status: ('A' for Active; 'I' for Inactive)
REMARK    1  A    between atoms: C_1  and  C_2
REMARK    2  A    between atoms: N_7  and  S_8
REMARK    3  A    between atoms: S_8  and  C_11
REMARK                            x       y       z     vdW  Elec       q    Type
REMARK                         _______ _______ _______ _____ _____    ______ ____
ROOT
ATOM      1  S   UNL     1       0.075  -4.553   1.809  0.00  0.00    +0.104 S 
ATOM      2  O   UNL     1      -1.169  -4.864   1.196  0.00  0.00    -0.146 OA
ATOM      3  O   UNL     1       1.321  -4.829   1.185  0.00  0.00    -0.146 OA
ENDROOT
BRANCH   1  10
ATOM      4  C   UNL     1      -0.018   1.503   0.010  0.00  0.00    +0.064 C 
ATOM      5  C   UNL     1       0.002  -0.004   0.002  0.00  0.00    +0.022 A 
ATOM      6  C   UNL     1       0.006  -0.662  -1.157  0.00  0.00    +0.069 A 
ATOM      7  S   UNL     1       0.032  -2.365  -0.622  0.00  0.00    -0.057 S 
ATOM      8  C   UNL     1       0.036  -2.068   1.139  0.00  0.00    +0.192 A 
ATOM      9  N   UNL     1       0.023  -0.690   1.181  0.00  0.00    -0.336 N 
ATOM     10  N   UNL     1       0.053  -2.928   2.127  0.00  0.00    -0.103 NA
ATOM     11  H   UNL     1       0.024  -0.220   2.029  0.00  0.00    +0.168 HD
ENDBRANCH   1  10
BRANCH   1  12
ATOM     12  C   UNL     1       0.094  -5.388   3.361  0.00  0.00    +0.149 A 
ATOM     13  C   UNL     1       1.299  -5.693   3.968  0.00  0.00    +0.069 A 
ATOM     14  C   UNL     1       1.313  -6.348   5.186  0.00  0.00    +0.022 A 
ATOM     15  C   UNL     1       0.123  -6.698   5.798  0.00  0.00    +0.003 A 
ATOM     16  C   UNL     1      -1.081  -6.393   5.192  0.00  0.00    +0.022 A 
ATOM     17  C   UNL     1      -1.097  -5.732   3.976  0.00  0.00    +0.069 A 
ATOM     18 CL   UNL     1      -2.610  -5.342   3.219  0.00  0.00    -0.081 Cl
ATOM     19 CL   UNL     1       2.793  -5.255   3.200  0.00  0.00    -0.081 Cl
ENDBRANCH   1  12
TORSDOF 2
