REMARK  Name = ZINC59290014
REMARK  9 active torsions:
REMARK  status: ('A' for Active; 'I' for Inactive)
REMARK    1  A    between atoms: C_1  and  C_2
REMARK    2  A    between atoms: C_4  and  C_33
REMARK    3  A    between atoms: C_9  and  C_10
REMARK    4  A    between atoms: C_10  and  N_11
REMARK    5  A    between atoms: C_12  and  C_14
REMARK    6  A    between atoms: C_14  and  C_15
REMARK    7  A    between atoms: C_15  and  C_16
REMARK    8  A    between atoms: C_16  and  N_17
REMARK    9  A    between atoms: C_27  and  C_32
REMARK                            x       y       z     vdW  Elec       q    Type
REMARK                         _______ _______ _______ _____ _____    ______ ____
ROOT
ATOM      1  C   UNL     1      -3.046   1.858   5.907  0.00  0.00    +0.028 C 
ENDROOT
BRANCH   1   2
ATOM      2  C   UNL     1      -3.064   1.245   4.505  0.00  0.00    +0.097 C 
BRANCH   2   4
ATOM      3  N   UNL     1      -1.472   0.890   2.645  0.00  0.00    -0.311 N 
ATOM      4  C   UNL     1      -1.695   1.365   3.887  0.00  0.00    +0.213 C 
ATOM      5  O   UNL     1      -0.794   1.890   4.506  0.00  0.00    -0.276 OA
ATOM      6  H   UNL     1      -2.193   0.471   2.150  0.00  0.00    +0.149 HD
BRANCH   3   7
ATOM      7  C   UNL     1      -0.142   1.008   2.044  0.00  0.00    +0.145 C 
BRANCH   7  16
ATOM      8  C   UNL     1      -0.574   2.676  -0.273  0.00  0.00    +0.044 C 
ATOM      9  C   UNL     1      -0.364   1.192  -0.431  0.00  0.00    -0.039 A 
ATOM     10  C   UNL     1      -0.371   0.607  -1.705  0.00  0.00    +0.024 A 
ATOM     11  C   UNL     1      -0.180  -0.727  -1.837  0.00  0.00    +0.016 A 
ATOM     12  N   UNL     1       0.018  -1.510  -0.747  0.00  0.00    -0.326 N 
ATOM     13  H   UNL     1       0.153  -2.464  -0.860  0.00  0.00    +0.169 HD
ATOM     14  C   UNL     1       0.030  -0.978   0.490  0.00  0.00    +0.254 A 
ATOM     15  O   UNL     1       0.210  -1.695   1.461  0.00  0.00    -0.268 OA
ATOM     16  C   UNL     1      -0.159   0.404   0.663  0.00  0.00    +0.037 A 
ATOM     17  C   UNL     1      -0.189  -1.348  -3.210  0.00  0.00    +0.063 C 
ENDBRANCH   7  16
ENDBRANCH   3   7
ENDBRANCH   2   4
ENDBRANCH   1   2
BRANCH   1  18
ATOM     18  C   UNL     1      -4.436   1.735   6.535  0.00  0.00    +0.110 C 
BRANCH  18  19
ATOM     19  N   UNL     1      -4.423   2.338   7.870  0.00  0.00    -0.276 N 
ATOM     20  C   UNL     1      -4.612   3.669   8.005  0.00  0.00    +0.250 C 
ATOM     21  O   UNL     1      -4.769   4.361   7.018  0.00  0.00    -0.270 OA
ATOM     22  C   UNL     1      -4.629   4.286   9.344  0.00  0.00    +0.058 A 
ATOM     23  C   UNL     1      -4.478   5.657   9.530  0.00  0.00    +0.015 A 
ATOM     24  C   UNL     1      -4.517   6.178  10.807  0.00  0.00    +0.001 A 
ATOM     25  C   UNL     1      -4.708   5.351  11.903  0.00  0.00    +0.002 A 
ATOM     26  C   UNL     1      -4.854   3.985  11.735  0.00  0.00    +0.024 A 
ATOM     27  C   UNL     1      -4.809   3.451  10.465  0.00  0.00    +0.050 A 
ATOM     28  N   UNL     1      -4.906   2.084  10.198  0.00  0.00    -0.249 N 
ATOM     29  C   UNL     1      -4.213   1.491   9.043  0.00  0.00    +0.109 C 
ATOM     30  C   UNL     1      -4.803   0.093   8.839  0.00  0.00    +0.055 C 
ATOM     31  C   UNL     1      -5.699  -0.115  10.074  0.00  0.00    +0.100 C 
ATOM     32  C   UNL     1      -5.604   1.163  10.865  0.00  0.00    +0.222 C 
ATOM     33  O   UNL     1      -6.106   1.335  11.956  0.00  0.00    -0.275 OA
ATOM     34  C   UNL     1      -2.716   1.385   9.343  0.00  0.00    +0.054 C 
ENDBRANCH  18  19
ENDBRANCH   1  18
TORSDOF 6
