REMARK  Name = ZINC20607328
REMARK  6 active torsions:
REMARK  status: ('A' for Active; 'I' for Inactive)
REMARK    1  A    between atoms: C_1  and  C_2
REMARK    2  A    between atoms: C_2  and  C_3
REMARK    3  A    between atoms: C_3  and  C_4
REMARK    4  A    between atoms: C_4  and  N_5
REMARK    5  A    between atoms: C_12  and  C_22
REMARK    6  A    between atoms: C_14  and  C_18
REMARK                            x       y       z     vdW  Elec       q    Type
REMARK                         _______ _______ _______ _____ _____    ______ ____
ROOT
ATOM      1  N   UNL     1      -1.917   6.933  -0.303  0.00  0.00    -0.323 N 
ATOM      2  C   UNL     1      -1.544   5.607  -0.262  0.00  0.00    +0.159 A 
ATOM      3  N   UNL     1      -0.331   5.097  -0.225  0.00  0.00    -0.224 NA
ATOM      4  C   UNL     1      -0.106   3.782  -0.187  0.00  0.00    +0.101 A 
ATOM      5  C   UNL     1       1.158   3.038  -0.144  0.00  0.00    +0.065 A 
ATOM      6  C   UNL     1       1.203   1.662  -0.108  0.00  0.00    +0.068 A 
ATOM      7  C   UNL     1       2.547   1.061  -0.067  0.00  0.00    +0.035 A 
ATOM      8  C   UNL     1       2.875  -0.316  -0.027  0.00  0.00    -0.037 A 
ATOM      9  C   UNL     1       4.201  -0.683   0.007  0.00  0.00    +0.036 A 
ATOM     10  C   UNL     1       5.196   0.283   0.002  0.00  0.00    +0.145 A 
ATOM     11  N   UNL     1       4.883   1.564  -0.036  0.00  0.00    -0.235 NA
ATOM     12  C   UNL     1       3.630   1.962  -0.069  0.00  0.00    +0.112 A 
ATOM     13  S   UNL     1       2.853   3.558  -0.124  0.00  0.00    -0.065 S 
ATOM     14  C   UNL     1       1.790  -1.362  -0.021  0.00  0.00    +0.044 C 
ATOM     15  N   UNL     1      -0.011   0.965  -0.115  0.00  0.00    -0.320 N 
ATOM     16  H   UNL     1      -0.013  -0.135  -0.083  0.00  0.00    +0.169 HD
ATOM     17  C   UNL     1      -1.192   1.601  -0.159  0.00  0.00    +0.265 A 
ATOM     18  O   UNL     1      -2.222   0.946  -0.168  0.00  0.00    -0.267 OA
ATOM     19  C   UNL     1      -1.268   2.983  -0.190  0.00  0.00    +0.106 A 
ATOM     20  S   UNL     1      -2.559   4.197  -0.246  0.00  0.00    -0.047 S 
ATOM     21  H   UNL     1      -1.149   7.721  -0.307  0.00  0.00    +0.148 HD
ENDROOT
BRANCH  10  22
ATOM     22  C   UNL     1       6.643  -0.134   0.040  0.00  0.00    +0.434 C 
ATOM     23  F   UNL     1       7.453   1.003   0.143  0.00  0.00    -0.164 F 
ATOM     24  F   UNL     1       6.861  -0.963   1.145  0.00  0.00    -0.164 F 
ATOM     25  F   UNL     1       6.960  -0.827  -1.133  0.00  0.00    -0.164 F 
ENDBRANCH  10  22
BRANCH   1  26
ATOM     26  C   UNL     1      -3.337   7.294  -0.341  0.00  0.00    +0.103 C 
BRANCH  26  27
ATOM     27  C   UNL     1      -3.475   8.817  -0.383  0.00  0.00    +0.018 C 
BRANCH  27  29
ATOM     28  C   UNL     1      -5.095  10.717  -0.464  0.00  0.00    +0.004 C 
ATOM     29  C   UNL     1      -4.957   9.194  -0.423  0.00  0.00    -0.002 C 
ENDBRANCH  27  29
ENDBRANCH  26  27
ENDBRANCH   1  26
TORSDOF 4
