REMARK  Name = ZINC10228386
REMARK  11 active torsions:
REMARK  status: ('A' for Active; 'I' for Inactive)
REMARK    1  A    between atoms: C_1  and  C_2
REMARK    2  A    between atoms: C_2  and  N_3
REMARK    3  A    between atoms: N_3  and  C_4
REMARK    4  A    between atoms: C_4  and  C_5
REMARK    5  A    between atoms: C_10  and  C_12
REMARK    6  A    between atoms: N_15  and  S_18
REMARK    7  A    between atoms: S_18  and  C_21
REMARK    8  A    between atoms: C_22  and  C_30
REMARK    9  A    between atoms: C_23  and  C_29
REMARK   10  A    between atoms: C_25  and  C_28
REMARK   11  A    between atoms: C_26  and  C_27
REMARK                            x       y       z     vdW  Elec       q    Type
REMARK                         _______ _______ _______ _____ _____    ______ ____
ROOT
ATOM      1  C   UNL     1      -4.383   2.757   4.062  0.00  0.00    +0.078 C 
ATOM      2  C   UNL     1      -4.895   1.426   3.508  0.00  0.00    +0.030 C 
ATOM      3  C   UNL     1      -5.345   0.534   4.670  0.00  0.00    +0.110 C 
ATOM      4  N   UNL     1      -6.328   1.269   5.477  0.00  0.00    -0.177 NA
ATOM      5  C   UNL     1      -5.971   2.601   5.984  0.00  0.00    +0.110 C 
ATOM      6  C   UNL     1      -5.513   3.470   4.809  0.00  0.00    +0.030 C 
ENDROOT
BRANCH   1   8
ATOM      7  N   UNL     1      -2.813   3.272   2.221  0.00  0.00    -0.297 N 
ATOM      8  C   UNL     1      -3.907   3.624   2.925  0.00  0.00    +0.219 C 
ATOM      9  O   UNL     1      -4.508   4.639   2.644  0.00  0.00    -0.275 OA
BRANCH   7  11
ATOM     10  C   UNL     1      -0.977   2.502   3.641  0.00  0.00    +0.024 C 
ATOM     11  C   UNL     1      -2.036   2.094   2.615  0.00  0.00    +0.105 C 
ENDBRANCH   7  11
BRANCH   7  12
ATOM     12  C   UNL     1      -2.401   4.067   1.062  0.00  0.00    +0.150 C 
BRANCH  12  13
ATOM     13  C   UNL     1      -1.455   5.152   1.508  0.00  0.00    +0.007 A 
ATOM     14  C   UNL     1      -0.104   5.120   1.606  0.00  0.00    +0.013 A 
ATOM     15  C   UNL     1       0.565   6.250   2.038  0.00  0.00    +0.008 A 
ATOM     16  C   UNL     1      -0.151   7.356   2.355  0.00  0.00    +0.045 A 
ATOM     17  S   UNL     1      -1.824   6.815   2.045  0.00  0.00    -0.100 S 
ENDBRANCH  12  13
ENDBRANCH   7  12
ENDBRANCH   1   8
BRANCH   4  18
ATOM     18  S   UNL     1      -7.810   0.609   5.810  0.00  0.00    +0.061 S 
ATOM     19  O   UNL     1      -7.660  -0.800   5.702  0.00  0.00    -0.153 OA
ATOM     20  O   UNL     1      -8.277   1.237   6.996  0.00  0.00    -0.153 OA
BRANCH  18  21
ATOM     21  C   UNL     1      -8.901   1.101   4.517  0.00  0.00    +0.112 A 
ATOM     22  C   UNL     1      -9.219   0.213   3.506  0.00  0.00    -0.021 A 
ATOM     23  C   UNL     1     -10.079   0.597   2.494  0.00  0.00    -0.045 A 
ATOM     24  C   UNL     1     -10.613   1.872   2.488  0.00  0.00    +0.007 A 
ATOM     25  C   UNL     1     -10.292   2.761   3.497  0.00  0.00    -0.045 A 
ATOM     26  C   UNL     1      -9.435   2.375   4.511  0.00  0.00    -0.021 A 
ATOM     27  C   UNL     1      -9.085   3.345   5.610  0.00  0.00    +0.046 C 
ATOM     28  C   UNL     1     -10.875   4.151   3.490  0.00  0.00    +0.044 C 
ATOM     29  C   UNL     1     -10.430  -0.372   1.395  0.00  0.00    +0.044 C 
ATOM     30  C   UNL     1      -8.632  -1.175   3.510  0.00  0.00    +0.046 C 
ENDBRANCH  18  21
ENDBRANCH   4  18
TORSDOF 6
