REMARK  Name = ZINC17723239
REMARK  7 active torsions:
REMARK  status: ('A' for Active; 'I' for Inactive)
REMARK    1  A    between atoms: C_1  and  C_2
REMARK    2  A    between atoms: C_2  and  C_28
REMARK    3  A    between atoms: N_6  and  C_7
REMARK    4  A    between atoms: C_10  and  S_13
REMARK    5  A    between atoms: S_13  and  N_16
REMARK    6  A    between atoms: C_23  and  O_26
REMARK    7  A    between atoms: O_26  and  C_27
REMARK                            x       y       z     vdW  Elec       q    Type
REMARK                         _______ _______ _______ _____ _____    ______ ____
ROOT
ATOM      1  C   UNL     1      -0.019   1.526   0.010  0.00  0.00    +0.037 C 
ATOM      2  C   UNL     1       0.002  -0.004   0.002  0.00  0.00    +0.059 C 
ATOM      3  C   UNL     1      -1.419  -0.531   0.029  0.00  0.00    +0.030 A 
ATOM      4  C   UNL     1      -1.783  -1.704   0.634  0.00  0.00    +0.029 A 
ATOM      5  C   UNL     1      -3.094  -2.266   0.643  0.00  0.00    +0.117 A 
ATOM      6  N   UNL     1      -3.446  -3.422   1.197  0.00  0.00    -0.240 NA
ATOM      7  S   UNL     1      -4.176  -1.140  -0.224  0.00  0.00    -0.032 S 
ATOM      8  S   UNL     1      -2.715   0.268  -0.685  0.00  0.00    -0.052 S 
ATOM      9  C   UNL     1      -0.696  -2.451   1.376  0.00  0.00    +0.010 A 
ATOM     10  C   UNL     1      -0.919  -3.748   1.815  0.00  0.00    +0.010 A 
ATOM     11  C   UNL     1       0.091  -4.421   2.480  0.00  0.00    +0.004 A 
ATOM     12  C   UNL     1       1.310  -3.804   2.700  0.00  0.00    +0.047 A 
ATOM     13  C   UNL     1       1.535  -2.505   2.267  0.00  0.00    +0.141 A 
ATOM     14  C   UNL     1       0.523  -1.818   1.605  0.00  0.00    +0.078 A 
ATOM     15  N   UNL     1       0.712  -0.493   1.191  0.00  0.00    -0.331 N 
ATOM     16  C   UNL     1       0.712  -0.500  -1.259  0.00  0.00    +0.037 C 
ATOM     17  H   UNL     1       1.305   0.095   1.684  0.00  0.00    +0.147 HD
ENDROOT
BRANCH   6  18
ATOM     18  C   UNL     1      -4.742  -3.842   1.131  0.00  0.00    +0.065 A 
ATOM     19  C   UNL     1      -5.786  -2.947   1.390  0.00  0.00    +0.029 A 
ATOM     20  C   UNL     1      -7.093  -3.380   1.321  0.00  0.00    +0.030 A 
ATOM     21  C   UNL     1      -7.374  -4.695   0.996  0.00  0.00    +0.105 A 
ATOM     22  C   UNL     1      -6.348  -5.587   0.738  0.00  0.00    +0.030 A 
ATOM     23  C   UNL     1      -5.035  -5.168   0.797  0.00  0.00    +0.029 A 
BRANCH  21  24
ATOM     24  S   UNL     1      -9.048  -5.238   0.911  0.00  0.00    +0.056 S 
ATOM     25  O   UNL     1      -9.031  -6.643   1.122  0.00  0.00    -0.153 OA
ATOM     26  O   UNL     1      -9.804  -4.355   1.728  0.00  0.00    -0.153 OA
BRANCH  24  27
ATOM     27  N   UNL     1      -9.562  -5.000  -0.645  0.00  0.00    -0.204 NA
ATOM     28  H   UNL     1     -10.236  -5.583  -1.028  0.00  0.00    +0.144 HD
ATOM     29  H   UNL     1      -9.189  -4.277  -1.173  0.00  0.00    +0.144 HD
ENDBRANCH  24  27
ENDBRANCH  21  24
ENDBRANCH   6  18
BRANCH  13  30
ATOM     30  O   UNL     1       2.737  -1.908   2.488  0.00  0.00    -0.493 OA
ATOM     31  C   UNL     1       3.727  -2.677   3.175  0.00  0.00    +0.277 C 
ENDBRANCH  13  30
TORSDOF 4
