REMARK  Name = ZINC16254787
REMARK  9 active torsions:
REMARK  status: ('A' for Active; 'I' for Inactive)
REMARK    1  A    between atoms: C_4  and  C_7
REMARK    2  A    between atoms: C_7  and  N_8
REMARK    3  A    between atoms: C_9  and  C_30
REMARK    4  A    between atoms: C_12  and  S_13
REMARK    5  A    between atoms: S_13  and  C_14
REMARK    6  A    between atoms: C_14  and  C_15
REMARK    7  A    between atoms: C_15  and  C_17
REMARK    8  A    between atoms: C_18  and  N_29
REMARK    9  A    between atoms: N_19  and  C_26
REMARK                            x       y       z     vdW  Elec       q    Type
REMARK                         _______ _______ _______ _____ _____    ______ ____
ROOT
ATOM      1  S   UNL     1      -2.973   6.203   1.105  0.00  0.00    -0.078 S 
ENDROOT
BRANCH   1   6
ATOM      2  N   UNL     1      -1.041   4.472   2.154  0.00  0.00    -0.297 N 
ATOM      3  C   UNL     1      -1.042   3.240   2.769  0.00  0.00    +0.172 A 
ATOM      4  N   UNL     1      -2.296   2.853   2.853  0.00  0.00    -0.128 NA
ATOM      5  N   UNL     1      -3.065   3.744   2.336  0.00  0.00    -0.122 NA
ATOM      6  C   UNL     1      -2.352   4.753   1.890  0.00  0.00    +0.193 A 
BRANCH   3   7
ATOM      7  C   UNL     1       0.136   2.498   3.247  0.00  0.00    +0.056 A 
ATOM      8  C   UNL     1       0.239   1.180   3.611  0.00  0.00    +0.019 A 
ATOM      9  C   UNL     1       1.462   0.702   4.027  0.00  0.00    +0.008 A 
ATOM     10  C   UNL     1       2.525   1.547   4.064  0.00  0.00    +0.046 A 
ATOM     11  S   UNL     1       1.806   3.080   3.497  0.00  0.00    -0.094 S 
ENDBRANCH   3   7
BRANCH   2  12
ATOM     12  C   UNL     1       0.123   5.306   1.845  0.00  0.00    +0.161 C 
BRANCH  12  16
ATOM     13  C   UNL     1       1.587   4.326  -2.046  0.00  0.00    +0.000 A 
ATOM     14  C   UNL     1       0.630   5.312  -1.896  0.00  0.00    +0.000 A 
ATOM     15  C   UNL     1       0.156   5.629  -0.636  0.00  0.00    +0.005 A 
ATOM     16  C   UNL     1       0.640   4.960   0.473  0.00  0.00    -0.028 A 
ATOM     17  C   UNL     1       1.601   3.978   0.323  0.00  0.00    +0.005 A 
ATOM     18  C   UNL     1       2.071   3.657  -0.937  0.00  0.00    +0.000 A 
ENDBRANCH  12  16
ENDBRANCH   2  12
ENDBRANCH   1   6
BRANCH   1  19
ATOM     19  C   UNL     1      -4.746   5.841   1.130  0.00  0.00    +0.157 C 
BRANCH  19  20
ATOM     20  C   UNL     1      -5.500   6.978   0.491  0.00  0.00    +0.182 C 
ATOM     21  O   UNL     1      -4.897   7.940   0.060  0.00  0.00    -0.291 OA
BRANCH  20  22
ATOM     22  C   UNL     1      -6.907   6.925   0.393  0.00  0.00    +0.120 A 
ATOM     23  C   UNL     1      -7.644   8.028  -0.069  0.00  0.00    +0.116 A 
ATOM     24  N   UNL     1      -9.004   7.927  -0.152  0.00  0.00    -0.278 N 
ATOM     25  C   UNL     1      -9.643   6.803   0.209  0.00  0.00    +0.331 A 
ATOM     26  O   UNL     1     -10.854   6.765   0.121  0.00  0.00    -0.246 OA
ATOM     27  N   UNL     1      -8.992   5.719   0.663  0.00  0.00    -0.274 N 
ATOM     28  H   UNL     1      -9.511   4.904   0.920  0.00  0.00    +0.173 HD
ATOM     29  C   UNL     1      -7.648   5.716   0.776  0.00  0.00    +0.266 A 
ATOM     30  O   UNL     1      -7.062   4.732   1.187  0.00  0.00    -0.267 OA
BRANCH  24  31
ATOM     31  C   UNL     1      -9.781   9.070  -0.638  0.00  0.00    +0.094 C 
ATOM     32  C   UNL     1     -10.851   8.797  -1.696  0.00  0.00    +0.027 C 
ATOM     33  C   UNL     1      -9.555   9.514  -2.084  0.00  0.00    +0.027 C 
ENDBRANCH  24  31
BRANCH  23  34
ATOM     34  N   UNL     1      -7.013   9.178  -0.433  0.00  0.00    -0.344 N 
ATOM     35  H   UNL     1      -6.097   9.148  -0.751  0.00  0.00    +0.144 HD
ATOM     36  H   UNL     1      -7.480  10.026  -0.376  0.00  0.00    +0.144 HD
ENDBRANCH  23  34
ENDBRANCH  20  22
ENDBRANCH  19  20
ENDBRANCH   1  19
TORSDOF 9
