REMARK  Name = ZINC06530525
REMARK  10 active torsions:
REMARK  status: ('A' for Active; 'I' for Inactive)
REMARK    1  A    between atoms: C_1  and  C_2
REMARK    2  A    between atoms: C_7  and  N_12
REMARK    3  A    between atoms: C_9  and  C_11
REMARK    4  A    between atoms: C_13  and  C_15
REMARK    5  A    between atoms: C_15  and  N_53
REMARK    6  A    between atoms: C_16  and  C_17
REMARK    7  A    between atoms: C_16  and  N_53
REMARK    8  A    between atoms: C_17  and  C_18
REMARK    9  A    between atoms: C_21  and  S_24
REMARK   10  A    between atoms: S_24  and  N_27
REMARK                            x       y       z     vdW  Elec       q    Type
REMARK                         _______ _______ _______ _____ _____    ______ ____
ROOT
ATOM      1  N   UNL     1      -4.212  -0.044   1.456  0.00  0.00    +0.385 N 
ATOM      2  H   UNL     1      -4.932   0.507   0.973  0.00  0.00    -0.085 HD
ATOM      3  H   UNL     1      -4.074  -0.933   0.962  0.00  0.00    -0.085 HD
ENDROOT
BRANCH   1   4
ATOM      4  C   UNL     1      -4.653  -0.318   2.837  0.00  0.00    +0.015 C 
BRANCH   4   6
ATOM      5  N   UNL     1      -6.547  -1.455   3.948  0.00  0.00    -0.314 N 
ATOM      6  C   UNL     1      -5.947  -1.089   2.798  0.00  0.00    +0.196 C 
ATOM      7  O   UNL     1      -6.449  -1.379   1.733  0.00  0.00    -0.278 OA
ATOM      8  H   UNL     1      -6.146  -1.223   4.800  0.00  0.00    +0.149 HD
BRANCH   5  14
ATOM      9  C   UNL     1     -10.668  -2.511   6.468  0.00  0.00    +0.008 C 
ATOM     10  C   UNL     1      -9.894  -2.749   5.170  0.00  0.00    -0.009 C 
ATOM     11  C   UNL     1      -9.594  -4.242   5.021  0.00  0.00    +0.003 C 
ATOM     12  C   UNL     1      -8.820  -4.480   3.723  0.00  0.00    +0.002 C 
ATOM     13  C   UNL     1      -7.506  -3.698   3.762  0.00  0.00    +0.022 C 
ATOM     14  C   UNL     1      -7.806  -2.205   3.911  0.00  0.00    +0.076 C 
ATOM     15  C   UNL     1      -8.580  -1.966   5.209  0.00  0.00    +0.009 C 
ATOM     16  C   UNL     1      -7.740  -2.439   6.397  0.00  0.00    +0.009 C 
ENDBRANCH   5  14
ENDBRANCH   4   6
ENDBRANCH   1   4
BRANCH   1  17
ATOM     17  C   UNL     1      -2.945   0.711   1.462  0.00  0.00    -0.077 C 
BRANCH  17  18
ATOM     18  C   UNL     1      -2.514   0.980   0.019  0.00  0.00    +0.016 C 
BRANCH  18  19
ATOM     19  C   UNL     1      -1.219   1.751   0.017  0.00  0.00    -0.049 A 
ATOM     20  C   UNL     1      -0.013   1.076   0.008  0.00  0.00    +0.005 A 
ATOM     21  C   UNL     1       1.175   1.783   0.000  0.00  0.00    +0.029 A 
ATOM     22  C   UNL     1       1.156   3.165   0.008  0.00  0.00    +0.105 A 
ATOM     23  C   UNL     1      -0.050   3.840   0.023  0.00  0.00    +0.029 A 
ATOM     24  C   UNL     1      -1.238   3.133   0.030  0.00  0.00    +0.005 A 
BRANCH  22  25
ATOM     25  S   UNL     1       2.670   4.067  -0.002  0.00  0.00    +0.056 S 
ATOM     26  O   UNL     1       2.387   5.342   0.558  0.00  0.00    -0.153 OA
ATOM     27  O   UNL     1       3.661   3.202   0.535  0.00  0.00    -0.153 OA
BRANCH  25  28
ATOM     28  N   UNL     1       3.076   4.326  -1.587  0.00  0.00    -0.204 NA
ATOM     29  H   UNL     1       3.579   5.117  -1.835  0.00  0.00    +0.144 HD
ATOM     30  H   UNL     1       2.811   3.686  -2.266  0.00  0.00    +0.144 HD
ENDBRANCH  25  28
ENDBRANCH  22  25
ENDBRANCH  18  19
ENDBRANCH  17  18
ENDBRANCH   1  17
TORSDOF 8
