REMARK  Name = ZINC66783377
REMARK  5 active torsions:
REMARK  status: ('A' for Active; 'I' for Inactive)
REMARK    1  A    between atoms: C_1  and  C_2
REMARK    2  A    between atoms: C_6  and  C_7
REMARK    3  A    between atoms: N_9  and  N_10
REMARK    4  A    between atoms: C_11  and  C_13
REMARK    5  A    between atoms: N_19  and  C_20
REMARK                            x       y       z     vdW  Elec       q    Type
REMARK                         _______ _______ _______ _____ _____    ______ ____
ROOT
ATOM      1  N   UNL     1      -1.458  -0.620   5.264  0.00  0.00    -0.229 N 
ATOM      2  C   UNL     1      -1.009  -1.544   6.136  0.00  0.00    +0.278 C 
ATOM      3  O   UNL     1      -1.110  -2.728   5.873  0.00  0.00    -0.267 OA
ATOM      4  H   UNL     1      -1.377   0.324   5.474  0.00  0.00    +0.173 HD
ENDROOT
BRANCH   2   5
ATOM      5  C   UNL     1      -0.398  -1.124   7.401  0.00  0.00    +0.128 A 
ATOM      6  C   UNL     1      -0.132   0.146   7.780  0.00  0.00    +0.116 A 
ATOM      7  N   UNL     1       0.435   0.103   9.026  0.00  0.00    -0.339 N 
ATOM      8  H   UNL     1       0.726   0.872   9.541  0.00  0.00    +0.167 HD
ATOM      9  C   UNL     1       0.520  -1.182   9.418  0.00  0.00    +0.163 A 
ATOM     10  S   UNL     1       1.161  -1.732  10.907  0.00  0.00    -0.013 S 
ATOM     11  N   UNL     1       0.012  -1.962   8.444  0.00  0.00    -0.284 N 
BRANCH  11  12
ATOM     12  C   UNL     1      -0.086  -3.358   8.469  0.00  0.00    +0.049 A 
ATOM     13  C   UNL     1       0.963  -4.138   7.999  0.00  0.00    +0.026 A 
ATOM     14  C   UNL     1       0.863  -5.515   8.025  0.00  0.00    +0.002 A 
ATOM     15  C   UNL     1      -0.279  -6.118   8.519  0.00  0.00    +0.000 A 
ATOM     16  C   UNL     1      -1.325  -5.344   8.988  0.00  0.00    +0.002 A 
ATOM     17  C   UNL     1      -1.229  -3.966   8.970  0.00  0.00    +0.026 A 
ENDBRANCH  11  12
ENDBRANCH   2   5
BRANCH   1  20
ATOM     18  C   UNL     1      -2.490  -0.097   3.184  0.00  0.00    +0.267 C 
ATOM     19  O   UNL     1      -2.389   1.087   3.447  0.00  0.00    -0.268 OA
ATOM     20  N   UNL     1      -2.041  -1.021   4.056  0.00  0.00    -0.230 N 
ATOM     21  H   UNL     1      -2.122  -1.965   3.846  0.00  0.00    +0.173 HD
BRANCH  18  27
ATOM     22  C   UNL     1      -3.624   1.769   0.962  0.00  0.00    +0.045 C 
ATOM     23  C   UNL     1      -3.620   0.263   0.897  0.00  0.00    -0.031 A 
ATOM     24  C   UNL     1      -4.125  -0.423  -0.180  0.00  0.00    +0.011 A 
ATOM     25  C   UNL     1      -4.090  -1.779  -0.174  0.00  0.00    +0.046 A 
ATOM     26  S   UNL     1      -3.371  -2.165   1.295  0.00  0.00    -0.092 S 
ATOM     27  C   UNL     1      -3.101  -0.517   1.919  0.00  0.00    +0.078 A 
ENDBRANCH  18  27
ENDBRANCH   1  20
TORSDOF 4
