REMARK  Name = ZINC62536870
REMARK  4 active torsions:
REMARK  status: ('A' for Active; 'I' for Inactive)
REMARK    1  A    between atoms: C_1  and  C_2
REMARK    2  A    between atoms: C_6  and  C_9
REMARK    3  A    between atoms: C_13  and  C_16
REMARK    4  A    between atoms: C_13  and  C_17
REMARK                            x       y       z     vdW  Elec       q    Type
REMARK                         _______ _______ _______ _____ _____    ______ ____
ROOT
ATOM      1  C   UNL     1       0.800   1.924  -1.050  0.00  0.00    +0.045 C 
ATOM      2  C   UNL     1       0.533   0.449  -0.895  0.00  0.00    -0.028 A 
ATOM      3  C   UNL     1       0.642  -0.390  -1.990  0.00  0.00    +0.052 A 
ATOM      4  C   UNL     1       0.395  -1.745  -1.849  0.00  0.00    +0.142 A 
ATOM      5  C   UNL     1       0.036  -2.258  -0.603  0.00  0.00    +0.080 A 
ATOM      6  C   UNL     1      -0.070  -1.414   0.490  0.00  0.00    -0.007 A 
ATOM      7  C   UNL     1       0.185  -0.062   0.343  0.00  0.00    +0.049 A 
ATOM      8 CL   UNL     1       0.060   0.997   1.713  0.00  0.00    -0.083 Cl
ATOM      9  C   UNL     1      -0.454  -1.968   1.837  0.00  0.00    +0.047 C 
ATOM     10  N   UNL     1      -0.222  -3.630  -0.474  0.00  0.00    -0.282 N 
ATOM     11  C   UNL     1       0.660  -4.520  -0.981  0.00  0.00    +0.226 C 
ATOM     12  O   UNL     1       0.421  -5.708  -0.936  0.00  0.00    -0.275 OA
ATOM     13  C   UNL     1       1.942  -4.029  -1.603  0.00  0.00    +0.076 C 
ATOM     14  C   UNL     1       1.658  -3.415  -2.973  0.00  0.00    +0.244 C 
ATOM     15  O   UNL     1       0.505  -2.580  -2.916  0.00  0.00    -0.489 OA
ATOM     16  C   UNL     1       2.910  -5.202  -1.763  0.00  0.00    +0.024 C 
ATOM     17  C   UNL     1       2.574  -2.972  -0.696  0.00  0.00    +0.024 C 
ATOM     18  H   UNL     1      -1.025  -3.937  -0.026  0.00  0.00    +0.155 HD
ENDROOT
TORSDOF 0
