REMARK  Name = ZINC38598547
REMARK  6 active torsions:
REMARK  status: ('A' for Active; 'I' for Inactive)
REMARK    1  A    between atoms: C_1  and  C_2
REMARK    2  A    between atoms: C_5  and  N_8
REMARK    3  A    between atoms: C_13  and  C_16
REMARK    4  A    between atoms: C_16  and  N_18
REMARK    5  A    between atoms: C_25  and  S_29
REMARK    6  A    between atoms: S_29  and  C_32
REMARK                            x       y       z     vdW  Elec       q    Type
REMARK                         _______ _______ _______ _____ _____    ______ ____
ROOT
ATOM      1  C   UNL     1       2.495  -4.997   1.285  0.00  0.00    +0.265 C 
ATOM      2  O   UNL     1       2.455  -3.783   1.331  0.00  0.00    -0.271 OA
ENDROOT
BRANCH   1   3
ATOM      3  N   UNL     1       3.665  -5.626   1.319  0.00  0.00    -0.155 NA
ATOM      4  C   UNL     1       4.794  -4.926   1.405  0.00  0.00    +0.164 A 
ATOM      5  N   UNL     1       6.066  -5.399   1.445  0.00  0.00    -0.335 N 
ATOM      6  H   UNL     1       6.230  -6.354   1.411  0.00  0.00    +0.168 HD
ATOM      7  C   UNL     1       7.125  -4.516   1.534  0.00  0.00    +0.055 A 
ATOM      8  C   UNL     1       8.500  -4.785   1.589  0.00  0.00    +0.028 A 
ATOM      9  C   UNL     1       9.411  -3.759   1.678  0.00  0.00    +0.029 A 
ATOM     10  C   UNL     1       9.001  -2.436   1.716  0.00  0.00    +0.089 A 
ATOM     11  C   UNL     1       7.649  -2.144   1.664  0.00  0.00    +0.044 A 
ATOM     12  C   UNL     1       6.737  -3.169   1.575  0.00  0.00    +0.040 A 
ATOM     13  S   UNL     1       4.968  -3.256   1.479  0.00  0.00    -0.052 S 
BRANCH  10  14
ATOM     14  S   UNL     1      10.188  -1.139   1.831  0.00  0.00    -0.006 S 
ATOM     15  O   UNL     1       9.492  -0.065   2.449  0.00  0.00    -0.170 OA
ATOM     16  O   UNL     1      11.313  -1.733   2.464  0.00  0.00    -0.170 OA
ATOM     17  C   UNL     1      10.587  -0.719   0.113  0.00  0.00    +0.200 C 
ENDBRANCH  10  14
ENDBRANCH   1   3
BRANCH   1  23
ATOM     18  N   UNL     1       0.057  -4.168  -0.021  0.00  0.00    -0.242 N 
ATOM     19  C   UNL     1       0.066  -4.857  -1.202  0.00  0.00    +0.097 C 
ATOM     20  C   UNL     1       0.642  -6.087  -1.243  0.00  0.00    +0.065 C 
ATOM     21  C   UNL     1       1.225  -6.611  -0.078  0.00  0.00    +0.185 C 
ATOM     22  O   UNL     1       1.733  -7.715  -0.090  0.00  0.00    -0.290 OA
ATOM     23  C   UNL     1       1.216  -5.790   1.188  0.00  0.00    +0.231 C 
ATOM     24  N   UNL     1       0.072  -4.872   1.155  0.00  0.00    -0.217 NA
ATOM     25  H   UNL     1      -0.793  -5.372   1.288  0.00  0.00    +0.146 HD
BRANCH  18  30
ATOM     26  C   UNL     1      -0.018   1.503   0.010  0.00  0.00    +0.044 C 
ATOM     27  C   UNL     1       0.002  -0.004   0.002  0.00  0.00    -0.050 A 
ATOM     28  C   UNL     1       0.006  -0.687  -1.200  0.00  0.00    +0.005 A 
ATOM     29  C   UNL     1       0.024  -2.068  -1.212  0.00  0.00    +0.025 A 
ATOM     30  C   UNL     1       0.039  -2.771  -0.013  0.00  0.00    +0.049 A 
ATOM     31  C   UNL     1       0.036  -2.081   1.193  0.00  0.00    +0.025 A 
ATOM     32  C   UNL     1       0.023  -0.700   1.197  0.00  0.00    +0.005 A 
ENDBRANCH  18  30
ENDBRANCH   1  23
TORSDOF 4
