REMARK  Name = ZINC66079105
REMARK  6 active torsions:
REMARK  status: ('A' for Active; 'I' for Inactive)
REMARK    1  A    between atoms: C_1  and  C_2
REMARK    2  A    between atoms: C_4  and  C_26
REMARK    3  A    between atoms: N_10  and  C_12
REMARK    4  A    between atoms: C_12  and  N_13
REMARK    5  A    between atoms: N_13  and  C_14
REMARK    6  A    between atoms: C_14  and  C_19
REMARK                            x       y       z     vdW  Elec       q    Type
REMARK                         _______ _______ _______ _____ _____    ______ ____
ROOT
ATOM      1  N   UNL     1       3.161  -2.529  -1.509  0.00  0.00    +0.398 N 
ATOM      2  H   UNL     1       2.704  -3.078  -2.222  0.00  0.00    -0.082 HD
ATOM      3  H   UNL     1       3.163  -1.558  -1.782  0.00  0.00    -0.082 HD
ENDROOT
BRANCH   1   4
ATOM      4  C   UNL     1       4.545  -2.995  -1.345  0.00  0.00    -0.040 C 
ATOM      5  C   UNL     1       5.240  -2.199  -0.220  0.00  0.00    -0.008 C 
ATOM      6  C   UNL     1       6.693  -2.019  -0.725  0.00  0.00    -0.001 C 
ATOM      7  C   UNL     1       6.500  -1.782  -2.243  0.00  0.00    -0.001 C 
ATOM      8  C   UNL     1       5.346  -2.729  -2.631  0.00  0.00    -0.008 C 
BRANCH   4   9
ATOM      9  C   UNL     1       4.559  -4.467  -1.022  0.00  0.00    -0.058 A 
ATOM     10  C   UNL     1       3.546  -5.286  -1.486  0.00  0.00    +0.004 A 
ATOM     11  C   UNL     1       3.559  -6.636  -1.190  0.00  0.00    +0.020 A 
ATOM     12  C   UNL     1       4.585  -7.168  -0.430  0.00  0.00    +0.041 A 
ATOM     13  C   UNL     1       5.598  -6.347   0.034  0.00  0.00    +0.020 A 
ATOM     14  C   UNL     1       5.588  -4.998  -0.267  0.00  0.00    +0.004 A 
ATOM     15 CL   UNL     1       4.601  -8.863  -0.057  0.00  0.00    -0.084 Cl
ENDBRANCH   4   9
ENDBRANCH   1   4
BRANCH   1  16
ATOM     16  C   UNL     1       2.440  -2.680  -0.238  0.00  0.00    +0.070 C 
BRANCH  16  26
ATOM     17  C   UNL     1      -0.287   1.358  -0.503  0.00  0.00    +0.068 C 
ATOM     18  C   UNL     1      -0.213  -0.147  -0.500  0.00  0.00    +0.071 A 
ATOM     19  C   UNL     1      -1.438  -0.942  -0.627  0.00  0.00    +0.072 A 
ATOM     20  C   UNL     1      -2.772  -0.664  -0.762  0.00  0.00    +0.144 A 
ATOM     21  O   UNL     1      -3.431  -1.827  -0.832  0.00  0.00    -0.359 OA
ATOM     22  N   UNL     1      -2.512  -2.901  -0.743  0.00  0.00    -0.072 NA
ATOM     23  C   UNL     1      -1.310  -2.412  -0.619  0.00  0.00    +0.181 A 
ATOM     24  C   UNL     1       0.048  -2.973  -0.483  0.00  0.00    +0.295 A 
ATOM     25  O   UNL     1       0.224  -4.177  -0.469  0.00  0.00    -0.264 OA
ATOM     26  N   UNL     1       1.091  -2.124  -0.374  0.00  0.00    -0.245 N 
ATOM     27  N   UNL     1       0.936  -0.740  -0.391  0.00  0.00    -0.174 NA
ATOM     28  C   UNL     1      -3.389   0.709  -0.819  0.00  0.00    +0.090 C 
ENDBRANCH  16  26
ENDBRANCH   1  16
TORSDOF 4
