REMARK  Name = ZINC10271824
REMARK  14 active torsions:
REMARK  status: ('A' for Active; 'I' for Inactive)
REMARK    1  A    between atoms: C_1  and  C_2
REMARK    2  A    between atoms: C_5  and  O_8
REMARK    3  A    between atoms: O_8  and  C_9
REMARK    4  A    between atoms: C_9  and  C_10
REMARK    5  A    between atoms: C_10  and  N_11
REMARK    6  A    between atoms: C_15  and  C_42
REMARK    7  A    between atoms: N_19  and  O_20
REMARK    8  A    between atoms: O_20  and  C_21
REMARK    9  A    between atoms: C_23  and  N_36
REMARK   10  A    between atoms: C_25  and  O_35
REMARK   11  A    between atoms: C_27  and  O_34
REMARK   12  A    between atoms: C_29  and  C_32
REMARK   13  A    between atoms: C_32  and  O_33
REMARK   14  A    between atoms: C_37  and  C_39
REMARK                            x       y       z     vdW  Elec       q    Type
REMARK                         _______ _______ _______ _____ _____    ______ ____
ROOT
ATOM      1  N   UNL     1      -1.762   4.471  -5.633  0.00  0.00    -0.262 N 
ATOM      2  C   UNL     1      -2.147   5.074  -4.440  0.00  0.00    +0.046 A 
ATOM      3  C   UNL     1      -3.107   6.041  -4.164  0.00  0.00    +0.024 A 
ATOM      4  C   UNL     1      -3.298   6.479  -2.868  0.00  0.00    +0.005 A 
ATOM      5  C   UNL     1      -2.540   5.964  -1.831  0.00  0.00    -0.050 A 
ATOM      6  C   UNL     1      -1.582   5.003  -2.086  0.00  0.00    +0.015 A 
ATOM      7  C   UNL     1      -1.387   4.551  -3.386  0.00  0.00    +0.030 A 
ATOM      8  C   UNL     1      -0.462   3.561  -3.987  0.00  0.00    +0.174 C 
ATOM      9  N   UNL     1       0.429   2.833  -3.377  0.00  0.00    -0.076 NA
ATOM     10  C   UNL     1      -0.780   3.575  -5.439  0.00  0.00    +0.273 C 
ATOM     11  O   UNL     1      -0.247   2.898  -6.296  0.00  0.00    -0.268 OA
ATOM     12  C   UNL     1      -2.760   6.452  -0.422  0.00  0.00    +0.044 C 
ENDROOT
BRANCH   1  13
ATOM     13  C   UNL     1      -2.353   4.776  -6.939  0.00  0.00    +0.155 C 
BRANCH  13  14
ATOM     14  C   UNL     1      -3.544   3.848  -7.189  0.00  0.00    +0.248 C 
BRANCH  14  15
ATOM     15  O   UNL     1      -4.571   4.123  -6.235  0.00  0.00    -0.490 OA
BRANCH  15  20
ATOM     16  C   UNL     1      -9.275   1.045  -6.582  0.00  0.00    +0.044 C 
ATOM     17  C   UNL     1      -8.017   1.869  -6.489  0.00  0.00    -0.050 A 
ATOM     18  C   UNL     1      -7.897   2.839  -5.511  0.00  0.00    +0.007 A 
ATOM     19  C   UNL     1      -6.745   3.595  -5.424  0.00  0.00    +0.046 A 
ATOM     20  C   UNL     1      -5.706   3.381  -6.319  0.00  0.00    +0.121 A 
ATOM     21  C   UNL     1      -5.831   2.410  -7.302  0.00  0.00    +0.046 A 
ATOM     22  C   UNL     1      -6.983   1.653  -7.382  0.00  0.00    +0.007 A 
ENDBRANCH  15  20
ENDBRANCH  14  15
ENDBRANCH  13  14
ENDBRANCH   1  13
BRANCH   9  23
ATOM     23  O   UNL     1       0.598   2.949  -1.976  0.00  0.00    -0.359 OA
BRANCH  23  24
ATOM     24  C   UNL     1       1.609   2.093  -1.440  0.00  0.00    +0.360 C 
ATOM     25  C   UNL     1       1.248   1.716  -0.001  0.00  0.00    +0.175 C 
ATOM     26  C   UNL     1       2.364   0.847   0.587  0.00  0.00    +0.172 C 
ATOM     27  C   UNL     1       3.689   1.612   0.502  0.00  0.00    +0.176 C 
ATOM     28  C   UNL     1       3.956   1.993  -0.957  0.00  0.00    +0.179 C 
ATOM     29  O   UNL     1       2.866   2.774  -1.451  0.00  0.00    -0.330 OA
BRANCH  25  30
ATOM     30  N   UNL     1      -0.011   0.966   0.007  0.00  0.00    -0.304 N 
ATOM     31  C   UNL     1      -1.187   1.624   0.017  0.00  0.00    +0.210 C 
ATOM     32  O   UNL     1      -1.204   2.837   0.023  0.00  0.00    -0.276 OA
ATOM     33  C   UNL     1      -2.482   0.853   0.018  0.00  0.00    +0.109 C 
ATOM     34  H   UNL     1       0.002  -0.004   0.002  0.00  0.00    +0.149 HD
ENDBRANCH  25  30
BRANCH  27  35
ATOM     35  O   UNL     1       3.609   2.796   1.298  0.00  0.00    -0.387 OA
ATOM     36  H   UNL     1       4.413   3.332   1.287  0.00  0.00    +0.210 HD
ENDBRANCH  27  35
BRANCH  26  37
ATOM     37  O   UNL     1       2.070   0.551   1.954  0.00  0.00    -0.387 OA
ATOM     38  H   UNL     1       2.737   0.003   2.390  0.00  0.00    +0.210 HD
ENDBRANCH  26  37
BRANCH  28  39
ATOM     39  C   UNL     1       5.247   2.809  -1.042  0.00  0.00    +0.190 C 
BRANCH  39  40
ATOM     40  O   UNL     1       5.558   3.067  -2.413  0.00  0.00    -0.392 OA
ATOM     41  H   UNL     1       6.366   3.582  -2.543  0.00  0.00    +0.210 HD
ENDBRANCH  39  40
ENDBRANCH  28  39
ENDBRANCH  23  24
ENDBRANCH   9  23
TORSDOF 11
