REMARK  Name = ZINC35310524
REMARK  8 active torsions:
REMARK  status: ('A' for Active; 'I' for Inactive)
REMARK    1  A    between atoms: C_1  and  C_2
REMARK    2  A    between atoms: C_5  and  C_38
REMARK    3  A    between atoms: C_6  and  C_8
REMARK    4  A    between atoms: C_8  and  N_9
REMARK    5  A    between atoms: C_21  and  C_24
REMARK    6  A    between atoms: N_26  and  C_27
REMARK    7  A    between atoms: C_32  and  C_37
REMARK    8  A    between atoms: C_34  and  C_36
REMARK                            x       y       z     vdW  Elec       q    Type
REMARK                         _______ _______ _______ _____ _____    ______ ____
ROOT
ATOM      1  N   UNL     1       3.102  -3.296   2.308  0.00  0.00    -0.309 N 
ATOM      2  C   UNL     1       3.651  -4.562   2.186  0.00  0.00    +0.068 A 
ATOM      3  C   UNL     1       4.440  -5.180   1.228  0.00  0.00    +0.028 A 
ATOM      4  C   UNL     1       4.833  -6.491   1.403  0.00  0.00    +0.002 A 
ATOM      5  C   UNL     1       4.445  -7.196   2.533  0.00  0.00    +0.002 A 
ATOM      6  C   UNL     1       3.661  -6.598   3.494  0.00  0.00    +0.028 A 
ATOM      7  C   UNL     1       3.255  -5.271   3.332  0.00  0.00    +0.065 A 
ATOM      8  N   UNL     1       2.500  -4.427   4.083  0.00  0.00    -0.327 N 
ATOM      9  C   UNL     1       2.414  -3.265   3.486  0.00  0.00    +0.177 A 
ATOM     10  N   UNL     1       1.727  -2.173   3.974  0.00  0.00    -0.302 N 
ATOM     11  C   UNL     1       0.355  -1.891   3.529  0.00  0.00    +0.108 C 
ATOM     12  C   UNL     1      -0.544  -1.755   4.762  0.00  0.00    +0.032 C 
ATOM     13  C   UNL     1       0.041  -0.698   5.701  0.00  0.00    +0.078 C 
ATOM     14  C   UNL     1       1.432  -1.139   6.165  0.00  0.00    +0.032 C 
ATOM     15  C   UNL     1       2.352  -1.272   4.953  0.00  0.00    +0.108 C 
ATOM     16  H   UNL     1       2.091  -4.651   4.934  0.00  0.00    +0.169 HD
ENDROOT
BRANCH  13  17
ATOM     17  C   UNL     1      -0.859  -0.537   6.899  0.00  0.00    +0.216 C 
ATOM     18  O   UNL     1      -1.869  -1.201   6.992  0.00  0.00    -0.276 OA
ATOM     19  N   UNL     1      -0.542   0.346   7.867  0.00  0.00    -0.312 N 
ATOM     20  H   UNL     1       0.266   0.877   7.792  0.00  0.00    +0.149 HD
BRANCH  19  21
ATOM     21  C   UNL     1      -1.417   0.503   9.031  0.00  0.00    +0.076 C 
ATOM     22  C   UNL     1      -2.535   1.493   8.698  0.00  0.00    +0.022 C 
ATOM     23  C   UNL     1      -3.450   1.657   9.914  0.00  0.00    +0.002 C 
ATOM     24  C   UNL     1      -2.636   2.185  11.097  0.00  0.00    +0.003 C 
ATOM     25  C   UNL     1      -1.518   1.196  11.429  0.00  0.00    -0.009 C 
ATOM     26  C   UNL     1      -0.603   1.032  10.213  0.00  0.00    +0.009 C 
ATOM     27  C   UNL     1       0.007   2.386   9.848  0.00  0.00    +0.009 C 
ATOM     28  C   UNL     1      -0.704   1.724  12.612  0.00  0.00    +0.008 C 
ENDBRANCH  19  21
ENDBRANCH  13  17
BRANCH   1  29
ATOM     29  C   UNL     1       3.240  -2.194   1.352  0.00  0.00    +0.160 C 
BRANCH  29  35
ATOM     30  C   UNL     1       4.821   1.841   3.854  0.00  0.00    +0.044 C 
ATOM     31  C   UNL     1       5.116   0.645   2.986  0.00  0.00    -0.050 A 
ATOM     32  C   UNL     1       6.415   0.380   2.592  0.00  0.00    +0.003 A 
ATOM     33  C   UNL     1       6.686  -0.717   1.796  0.00  0.00    +0.004 A 
ATOM     34  C   UNL     1       5.658  -1.550   1.395  0.00  0.00    -0.046 A 
ATOM     35  C   UNL     1       4.360  -1.286   1.790  0.00  0.00    -0.025 A 
ATOM     36  C   UNL     1       4.090  -0.191   2.589  0.00  0.00    +0.009 A 
ATOM     37  C   UNL     1       5.953  -2.746   0.527  0.00  0.00    +0.044 C 
ENDBRANCH  29  35
ENDBRANCH   1  29
TORSDOF 4
