REMARK  Name = ZINC63108161
REMARK  10 active torsions:
REMARK  status: ('A' for Active; 'I' for Inactive)
REMARK    1  A    between atoms: C_1  and  C_2
REMARK    2  A    between atoms: C_2  and  C_4
REMARK    3  A    between atoms: C_2  and  N_20
REMARK    4  A    between atoms: N_6  and  C_7
REMARK    5  A    between atoms: C_10  and  S_13
REMARK    6  A    between atoms: S_13  and  N_16
REMARK    7  A    between atoms: N_16  and  C_17
REMARK    8  A    between atoms: C_17  and  C_18
REMARK    9  A    between atoms: C_17  and  C_19
REMARK   10  A    between atoms: C_23  and  C_26
REMARK                            x       y       z     vdW  Elec       q    Type
REMARK                         _______ _______ _______ _____ _____    ______ ____
ROOT
ATOM      1  C   UNL     1       0.098   1.050   0.889  0.00  0.00    -0.004 C 
ATOM      2  C   UNL     1      -0.002  -0.148  -0.058  0.00  0.00    +0.016 C 
ENDROOT
BRANCH   2   3
ATOM      3  N   UNL     1       0.911  -1.207   0.395  0.00  0.00    +0.387 N 
ATOM      4  C   UNL     1       0.872  -2.324  -0.557  0.00  0.00    -0.077 C 
ATOM      5  C   UNL     1       1.760  -3.462  -0.049  0.00  0.00    -0.011 C 
ATOM      6  C   UNL     1       3.199  -2.958   0.090  0.00  0.00    +0.014 C 
ATOM      7  C   UNL     1       3.217  -1.746   1.026  0.00  0.00    -0.011 C 
ATOM      8  C   UNL     1       2.276  -0.671   0.478  0.00  0.00    -0.077 C 
ATOM      9  H   UNL     1       0.623  -1.533   1.305  0.00  0.00    -0.081 HD
BRANCH   6  10
ATOM     10  C   UNL     1       4.063  -4.051   0.663  0.00  0.00    -0.039 C 
ATOM     11  C   UNL     1       5.151  -4.613   0.089  0.00  0.00    -0.001 A 
ATOM     12  C   UNL     1       5.830  -4.384  -1.192  0.00  0.00    +0.010 A 
ATOM     13  C   UNL     1       6.923  -5.120  -1.497  0.00  0.00    +0.001 A 
ATOM     14  C   UNL     1       7.423  -6.094  -0.621  0.00  0.00    +0.002 A 
ATOM     15  C   UNL     1       6.854  -6.361   0.574  0.00  0.00    +0.026 A 
ATOM     16  C   UNL     1       5.700  -5.647   0.996  0.00  0.00    +0.043 A 
ATOM     17  N   UNL     1       4.978  -5.721   2.088  0.00  0.00    -0.380 N 
ATOM     18  C   UNL     1       3.893  -4.737   2.000  0.00  0.00    +0.145 C 
ATOM     19  H   UNL     1       5.138  -6.323   2.832  0.00  0.00    +0.160 HD
ENDBRANCH   6  10
ENDBRANCH   2   3
BRANCH   2  20
ATOM     20  C   UNL     1      -1.415  -0.671  -0.059  0.00  0.00    +0.203 C 
ATOM     21  O   UNL     1      -1.739  -1.546   0.717  0.00  0.00    -0.277 OA
ATOM     22  N   UNL     1      -2.320  -0.166  -0.921  0.00  0.00    -0.287 N 
ATOM     23  H   UNL     1      -2.045   0.484  -1.586  0.00  0.00    +0.155 HD
BRANCH  22  24
ATOM     24  C   UNL     1      -3.655  -0.580  -0.856  0.00  0.00    +0.033 A 
ATOM     25  C   UNL     1      -4.416  -0.658  -2.014  0.00  0.00    +0.025 A 
ATOM     26  C   UNL     1      -5.734  -1.067  -1.947  0.00  0.00    +0.030 A 
ATOM     27  C   UNL     1      -6.295  -1.397  -0.727  0.00  0.00    +0.105 A 
ATOM     28  C   UNL     1      -5.540  -1.319   0.429  0.00  0.00    +0.030 A 
ATOM     29  C   UNL     1      -4.220  -0.917   0.367  0.00  0.00    +0.025 A 
BRANCH  27  30
ATOM     30  S   UNL     1      -7.977  -1.917  -0.645  0.00  0.00    +0.059 S 
ATOM     31  O   UNL     1      -8.422  -1.645   0.677  0.00  0.00    -0.153 OA
ATOM     32  O   UNL     1      -8.623  -1.383  -1.792  0.00  0.00    -0.153 OA
BRANCH  30  33
ATOM     33  N   UNL     1      -7.989  -3.564  -0.819  0.00  0.00    -0.187 NA
ATOM     34  H   UNL     1      -8.408  -3.966  -1.596  0.00  0.00    +0.148 HD
BRANCH  33  35
ATOM     35  C   UNL     1      -7.366  -4.413   0.200  0.00  0.00    +0.070 C 
ATOM     36  C   UNL     1      -8.168  -5.708   0.344  0.00  0.00    +0.025 C 
ATOM     37  C   UNL     1      -5.933  -4.745  -0.219  0.00  0.00    +0.025 C 
ENDBRANCH  33  35
ENDBRANCH  30  33
ENDBRANCH  27  30
ENDBRANCH  22  24
ENDBRANCH   2  20
TORSDOF 7
