REMARK  Name = ZINC39685736
REMARK  11 active torsions:
REMARK  status: ('A' for Active; 'I' for Inactive)
REMARK    1  A    between atoms: C_1  and  C_2
REMARK    2  A    between atoms: C_2  and  C_3
REMARK    3  A    between atoms: C_2  and  C_4
REMARK    4  A    between atoms: C_4  and  C_6
REMARK    5  A    between atoms: C_4  and  N_13
REMARK    6  A    between atoms: N_8  and  C_9
REMARK    7  A    between atoms: C_9  and  C_10
REMARK    8  A    between atoms: C_9  and  C_11
REMARK    9  A    between atoms: C_9  and  C_12
REMARK   10  A    between atoms: C_14  and  C_16
REMARK   11  A    between atoms: C_27  and  C_29
REMARK                            x       y       z     vdW  Elec       q    Type
REMARK                         _______ _______ _______ _____ _____    ______ ____
ROOT
ATOM      1  C   UNL     1      -0.553  -4.000   1.290  0.00  0.00    +0.100 C 
ATOM      2  C   UNL     1      -1.636  -4.804   0.536  0.00  0.00    +0.121 C 
ATOM      3  N   UNL     1      -1.764  -6.067   1.300  0.00  0.00    -0.296 N 
ATOM      4  C   UNL     1      -1.657  -5.652   2.720  0.00  0.00    +0.115 C 
ATOM      5  C   UNL     1      -0.571  -4.559   2.722  0.00  0.00    -0.004 C 
ATOM      6  C   UNL     1      -0.932  -3.458   3.715  0.00  0.00    -0.010 C 
ATOM      7  C   UNL     1      -0.886  -4.024   5.137  0.00  0.00    -0.082 C 
ATOM      8  N   UNL     1       0.459  -4.540   5.417  0.00  0.00    +0.379 N 
ATOM      9  C   UNL     1       0.762  -5.660   4.519  0.00  0.00    -0.082 C 
ATOM     10  C   UNL     1       0.786  -5.164   3.070  0.00  0.00    -0.010 C 
ATOM     11  C   UNL     1      -1.936  -7.312   0.815  0.00  0.00    +0.249 C 
ATOM     12  O   UNL     1      -1.921  -7.504  -0.386  0.00  0.00    -0.270 OA
ATOM     13  H   UNL     1       1.136  -3.805   5.276  0.00  0.00    -0.086 HD
ATOM     14  H   UNL     1       0.504  -4.856   6.374  0.00  0.00    -0.086 HD
ENDROOT
BRANCH  11  15
ATOM     15  C   UNL     1      -2.145  -8.443   1.740  0.00  0.00    +0.072 A 
ATOM     16  C   UNL     1      -2.853  -8.255   2.930  0.00  0.00    +0.019 A 
ATOM     17  C   UNL     1      -3.045  -9.313   3.790  0.00  0.00    +0.039 A 
ATOM     18  C   UNL     1      -2.536 -10.566   3.478  0.00  0.00    +0.126 A 
ATOM     19  C   UNL     1      -1.833 -10.762   2.301  0.00  0.00    +0.077 A 
ATOM     20  C   UNL     1      -1.639  -9.709   1.427  0.00  0.00    +0.138 A 
ATOM     21  F   UNL     1      -0.958  -9.901   0.276  0.00  0.00    -0.205 F 
ATOM     22  F   UNL     1      -2.728 -11.600   4.327  0.00  0.00    -0.205 F 
ENDBRANCH  11  15
BRANCH   1  24
ATOM     23  N   UNL     1      -2.139  -2.133   1.631  0.00  0.00    -0.303 N 
ATOM     24  C   UNL     1      -0.897  -2.533   1.295  0.00  0.00    +0.219 C 
ATOM     25  O   UNL     1      -0.056  -1.712   0.995  0.00  0.00    -0.275 OA
ATOM     26  H   UNL     1      -2.791  -2.782   1.938  0.00  0.00    +0.149 HD
BRANCH  23  27
ATOM     27  C   UNL     1      -2.505  -0.718   1.534  0.00  0.00    +0.161 C 
BRANCH  27  28
ATOM     28  C   UNL     1      -3.634  -0.424   2.488  0.00  0.00    +0.234 C 
ATOM     29  O   UNL     1      -4.222  -1.335   3.031  0.00  0.00    -0.274 OA
ATOM     30  N   UNL     1      -3.990   0.852   2.738  0.00  0.00    -0.309 N 
ATOM     31  H   UNL     1      -3.477   1.582   2.357  0.00  0.00    +0.149 HD
BRANCH  30  32
ATOM     32  C   UNL     1      -5.152   1.135   3.583  0.00  0.00    +0.026 C 
ATOM     33  C   UNL     1      -4.930   0.535   4.973  0.00  0.00    +0.031 C 
ATOM     34  C   UNL     1      -5.337   2.649   3.706  0.00  0.00    +0.031 C 
ATOM     35  C   UNL     1      -6.403   0.518   2.955  0.00  0.00    +0.031 C 
ENDBRANCH  30  32
ENDBRANCH  27  28
BRANCH  27  37
ATOM     36  C   UNL     1      -1.765  -0.575  -0.848  0.00  0.00    +0.009 C 
ATOM     37  C   UNL     1      -2.950  -0.403   0.104  0.00  0.00    +0.012 C 
ATOM     38  C   UNL     1      -4.073  -1.359  -0.302  0.00  0.00    +0.009 C 
ENDBRANCH  27  37
ENDBRANCH  23  27
ENDBRANCH   1  24
TORSDOF 6
