REMARK  Name = ZINC05028013
REMARK  5 active torsions:
REMARK  status: ('A' for Active; 'I' for Inactive)
REMARK    1  A    between atoms: C_1  and  C_2
REMARK    2  A    between atoms: C_9  and  C_12
REMARK    3  A    between atoms: C_12  and  C_24
REMARK    4  A    between atoms: C_13  and  C_14
REMARK    5  A    between atoms: C_16  and  N_21
REMARK                            x       y       z     vdW  Elec       q    Type
REMARK                         _______ _______ _______ _____ _____    ______ ____
ROOT
ATOM      1  C   UNL     1       0.007   1.556   0.396  0.00  0.00    +0.094 C 
ATOM      2  C   UNL     1      -1.159   2.134  -0.015  0.00  0.00    +0.030 C 
ENDROOT
BRANCH   1  11
ATOM      3  C   UNL     1      -1.687  -4.669   3.982  0.00  0.00    +0.044 C 
ATOM      4  C   UNL     1      -0.879  -3.585   3.316  0.00  0.00    -0.048 A 
ATOM      5  C   UNL     1       0.503  -3.691   3.265  0.00  0.00    +0.005 A 
ATOM      6  C   UNL     1       1.259  -2.708   2.661  0.00  0.00    +0.028 A 
ATOM      7  C   UNL     1       0.630  -1.606   2.099  0.00  0.00    +0.066 A 
ATOM      8  C   UNL     1      -0.771  -1.498   2.151  0.00  0.00    +0.090 A 
ATOM      9  C   UNL     1      -1.516  -2.507   2.769  0.00  0.00    +0.033 A 
ATOM     10  N   UNL     1      -1.106  -0.336   1.539  0.00  0.00    -0.227 NA
ATOM     11  C   UNL     1      -0.021   0.267   1.112  0.00  0.00    +0.150 A 
ATOM     12  N   UNL     1       1.081  -0.479   1.438  0.00  0.00    -0.337 N 
ATOM     13  H   UNL     1       2.033  -0.250   1.236  0.00  0.00    +0.167 HD
ENDBRANCH   1  11
BRANCH   2  14
ATOM     14  C   UNL     1      -2.416   1.384   0.060  0.00  0.00    -0.020 A 
ATOM     15  C   UNL     1      -3.579   2.006   0.533  0.00  0.00    +0.044 A 
ATOM     16  C   UNL     1      -4.757   1.297   0.601  0.00  0.00    +0.174 A 
ATOM     17  C   UNL     1      -4.794  -0.035   0.203  0.00  0.00    +0.223 A 
ATOM     18  C   UNL     1      -3.642  -0.658  -0.267  0.00  0.00    +0.067 A 
ATOM     19  C   UNL     1      -2.460   0.043  -0.345  0.00  0.00    +0.027 A 
ATOM     20 BR   UNL     1      -3.703  -2.470  -0.805  0.00  0.00    -0.046 Br
ATOM     21  O   UNL     1      -5.958  -0.729   0.272  0.00  0.00    -0.284 OA
BRANCH  16  22
ATOM     22  N   UNL     1      -5.986   1.953   1.100  0.00  0.00    +0.060 N 
ATOM     23  O   UNL     1      -5.955   3.120   1.449  0.00  0.00    -0.126 OA
ATOM     24  O   UNL     1      -7.029   1.327   1.161  0.00  0.00    -0.126 OA
ENDBRANCH  16  22
ENDBRANCH   2  14
BRANCH   1  25
ATOM     25  C   UNL     1       1.259   2.197   0.126  0.00  0.00    +0.103 C 
ATOM     26  N   UNL     1       2.252   2.706  -0.088  0.00  0.00    -0.191 NA
ENDBRANCH   1  25
TORSDOF 4
