REMARK  Name = ZINC24958478
REMARK  9 active torsions:
REMARK  status: ('A' for Active; 'I' for Inactive)
REMARK    1  A    between atoms: C_1  and  C_2
REMARK    2  A    between atoms: C_7  and  S_15
REMARK    3  A    between atoms: S_15  and  C_16
REMARK    4  A    between atoms: C_16  and  C_17
REMARK    5  A    between atoms: N_19  and  C_20
REMARK    6  A    between atoms: C_21  and  C_33
REMARK    7  A    between atoms: C_22  and  C_32
REMARK    8  A    between atoms: C_23  and  C_31
REMARK    9  A    between atoms: N_24  and  C_25
REMARK                            x       y       z     vdW  Elec       q    Type
REMARK                         _______ _______ _______ _____ _____    ______ ____
ROOT
ATOM      1  C   UNL     1      -0.787   0.900  -1.352  0.00  0.00    +0.229 C 
ATOM      2  O   UNL     1      -1.996   0.902  -1.259  0.00  0.00    -0.275 OA
ATOM      3  N   UNL     1      -0.198   1.327  -2.487  0.00  0.00    -0.270 N 
ATOM      4  H   UNL     1       0.898   1.406  -2.542  0.00  0.00    +0.156 HD
ENDROOT
BRANCH   3   5
ATOM      5  C   UNL     1      -0.974   1.668  -3.585  0.00  0.00    +0.128 A 
ATOM      6  C   UNL     1      -1.098   0.935  -4.756  0.00  0.00    +0.095 A 
ATOM      7  C   UNL     1      -2.020   1.692  -5.612  0.00  0.00    -0.010 A 
ATOM      8  C   UNL     1      -2.369   2.793  -4.927  0.00  0.00    +0.027 A 
ATOM      9  N   UNL     1      -1.742   2.784  -3.707  0.00  0.00    -0.300 N 
ATOM     10  C   UNL     1      -3.301   3.869  -5.420  0.00  0.00    +0.064 C 
ATOM     11  C   UNL     1      -2.482   1.311  -6.995  0.00  0.00    +0.047 C 
BRANCH   9  12
ATOM     12  C   UNL     1      -1.875   3.779  -2.729  0.00  0.00    +0.048 A 
ATOM     13  C   UNL     1      -3.091   3.966  -2.087  0.00  0.00    +0.026 A 
ATOM     14  C   UNL     1      -3.217   4.945  -1.120  0.00  0.00    +0.002 A 
ATOM     15  C   UNL     1      -2.136   5.745  -0.799  0.00  0.00    +0.000 A 
ATOM     16  C   UNL     1      -0.924   5.564  -1.440  0.00  0.00    +0.002 A 
ATOM     17  C   UNL     1      -0.791   4.584  -2.404  0.00  0.00    +0.026 A 
ENDBRANCH   9  12
BRANCH   6  18
ATOM     18  C   UNL     1      -0.459  -0.308  -5.067  0.00  0.00    +0.103 C 
ATOM     19  N   UNL     1       0.048  -1.294  -5.313  0.00  0.00    -0.191 NA
ENDBRANCH   6  18
ENDBRANCH   3   5
BRANCH   1  20
ATOM     20  C   UNL     1       0.057   0.418  -0.200  0.00  0.00    +0.173 C 
BRANCH  20  21
ATOM     21  S   UNL     1      -1.018  -0.085   1.166  0.00  0.00    -0.076 S 
BRANCH  21  28
ATOM     22  C   UNL     1       0.336  -2.639   7.593  0.00  0.00    +0.044 C 
ATOM     23  C   UNL     1       0.210  -2.089   6.196  0.00  0.00    -0.038 A 
ATOM     24  C   UNL     1       1.313  -1.848   5.452  0.00  0.00    +0.052 A 
ATOM     25  C   UNL     1       1.194  -1.328   4.142  0.00  0.00    +0.162 A 
ATOM     26  N   UNL     1       2.090  -0.998   3.230  0.00  0.00    -0.129 NA
ATOM     27  N   UNL     1       1.499  -0.564   2.175  0.00  0.00    -0.122 NA
ATOM     28  C   UNL     1       0.195  -0.587   2.341  0.00  0.00    +0.197 A 
ATOM     29  N   UNL     1      -0.043  -1.067   3.595  0.00  0.00    -0.270 N 
ATOM     30  C   UNL     1      -1.201  -1.306   4.315  0.00  0.00    +0.058 A 
ATOM     31  C   UNL     1      -1.112  -1.818   5.622  0.00  0.00    +0.002 A 
ATOM     32  C   UNL     1      -2.277  -2.060   6.354  0.00  0.00    +0.010 A 
ATOM     33  C   UNL     1      -3.505  -1.795   5.789  0.00  0.00    +0.001 A 
ATOM     34  C   UNL     1      -3.591  -1.290   4.501  0.00  0.00    +0.002 A 
ATOM     35  C   UNL     1      -2.449  -1.046   3.765  0.00  0.00    +0.027 A 
ENDBRANCH  21  28
ENDBRANCH  20  21
ENDBRANCH   1  20
TORSDOF 6
