REMARK  Name = ZINC39459824
REMARK  7 active torsions:
REMARK  status: ('A' for Active; 'I' for Inactive)
REMARK    1  A    between atoms: C_1  and  S_2
REMARK    2  A    between atoms: S_2  and  C_3
REMARK    3  A    between atoms: C_8  and  S_19
REMARK    4  A    between atoms: C_10  and  C_12
REMARK    5  A    between atoms: C_17  and  O_18
REMARK    6  A    between atoms: S_19  and  O_22
REMARK    7  A    between atoms: O_22  and  C_23
REMARK                            x       y       z     vdW  Elec       q    Type
REMARK                         _______ _______ _______ _____ _____    ______ ____
ROOT
ATOM      1  C   UNL     1      -1.701  -0.352  -0.851  0.00  0.00    +0.101 A 
ATOM      2  C   UNL     1      -2.232  -1.583  -1.068  0.00  0.00    +0.146 A 
ATOM      3  N   UNL     1      -3.562  -1.499  -0.958  0.00  0.00    -0.235 NA
ATOM      4  C   UNL     1      -3.899  -0.249  -0.676  0.00  0.00    +0.140 A 
ATOM      5  N   UNL     1      -2.745   0.498  -0.596  0.00  0.00    -0.269 N 
ATOM      6  C   UNL     1      -2.797   1.837  -0.309  0.00  0.00    +0.205 A 
ATOM      7  C   UNL     1      -3.974   2.451  -0.095  0.00  0.00    +0.058 A 
ATOM      8  C   UNL     1      -5.185   1.717  -0.164  0.00  0.00    -0.008 A 
ATOM      9  C   UNL     1      -5.145   0.368  -0.462  0.00  0.00    +0.055 A 
ENDROOT
BRANCH   8  10
ATOM     10  C   UNL     1      -6.482   2.392   0.072  0.00  0.00    +0.024 A 
ATOM     11  C   UNL     1      -6.862   2.746   1.365  0.00  0.00    +0.012 A 
ATOM     12  C   UNL     1      -8.072   3.375   1.579  0.00  0.00    +0.001 A 
ATOM     13  C   UNL     1      -8.909   3.656   0.514  0.00  0.00    +0.004 A 
ATOM     14  C   UNL     1      -8.543   3.309  -0.773  0.00  0.00    +0.046 A 
ATOM     15  C   UNL     1      -7.329   2.683  -1.004  0.00  0.00    +0.125 A 
BRANCH  15  16
ATOM     16  O   UNL     1      -6.964   2.347  -2.269  0.00  0.00    -0.506 OA
ATOM     17  H   UNL     1      -7.250   1.464  -2.539  0.00  0.00    +0.292 HD
ENDBRANCH  15  16
ENDBRANCH   8  10
BRANCH   6  18
ATOM     18  S   UNL     1      -1.303   2.765  -0.218  0.00  0.00    +0.167 S 
ATOM     19  O   UNL     1      -1.677   4.114   0.025  0.00  0.00    -0.130 OA
ATOM     20  O   UNL     1      -0.431   2.049   0.646  0.00  0.00    -0.130 OA
BRANCH  18  21
ATOM     21  O   UNL     1      -0.668   2.732  -1.601  0.00  0.00    -0.341 OA
BRANCH  21  22
ATOM     22  C   UNL     1      -1.280   3.535  -2.510  0.00  0.00    +0.157 A 
ATOM     23  C   UNL     1      -2.322   3.042  -3.282  0.00  0.00    +0.048 A 
ATOM     24  C   UNL     1      -2.944   3.861  -4.205  0.00  0.00    +0.004 A 
ATOM     25  C   UNL     1      -2.528   5.170  -4.360  0.00  0.00    +0.000 A 
ATOM     26  C   UNL     1      -1.490   5.664  -3.592  0.00  0.00    +0.004 A 
ATOM     27  C   UNL     1      -0.869   4.851  -2.663  0.00  0.00    +0.048 A 
ENDBRANCH  21  22
ENDBRANCH  18  21
ENDBRANCH   6  18
BRANCH   1  29
ATOM     28  C   UNL     1       0.795  -1.340  -1.709  0.00  0.00    +0.091 C 
ATOM     29  S   UNL     1       0.009   0.071  -0.882  0.00  0.00    -0.109 S 
ENDBRANCH   1  29
TORSDOF 6
