REMARK  Name = ZINC46618049
REMARK  9 active torsions:
REMARK  status: ('A' for Active; 'I' for Inactive)
REMARK    1  A    between atoms: C_1  and  C_2
REMARK    2  A    between atoms: C_7  and  C_9
REMARK    3  A    between atoms: C_7  and  C_10
REMARK    4  A    between atoms: N_13  and  C_17
REMARK    5  A    between atoms: C_17  and  C_18
REMARK    6  A    between atoms: N_20  and  C_21
REMARK    7  A    between atoms: C_21  and  C_22
REMARK    8  A    between atoms: N_28  and  C_29
REMARK    9  A    between atoms: N_28  and  C_30
REMARK                            x       y       z     vdW  Elec       q    Type
REMARK                         _______ _______ _______ _____ _____    ______ ____
ROOT
ATOM      1  C   UNL     1      -0.061   1.649   0.498  0.00  0.00    +0.007 C 
ATOM      2  C   UNL     1      -0.046   0.132   0.299  0.00  0.00    -0.011 C 
ATOM      3  C   UNL     1       0.612  -0.200  -1.042  0.00  0.00    +0.038 C 
ATOM      4  C   UNL     1       0.646  -1.713  -1.232  0.00  0.00    +0.113 C 
ATOM      5  C   UNL     1       1.417  -2.381  -0.099  0.00  0.00    +0.041 C 
ATOM      6  C   UNL     1       0.756  -2.041   1.240  0.00  0.00    -0.032 C 
ATOM      7  C   UNL     1       0.748  -0.523   1.431  0.00  0.00    +0.009 C 
ATOM      8  C   UNL     1      -0.682  -2.564   1.246  0.00  0.00    +0.011 C 
ATOM      9  C   UNL     1       1.542  -2.695   2.378  0.00  0.00    +0.011 C 
ATOM     10  C   UNL     1       1.261  -2.063  -2.567  0.00  0.00    +0.247 C 
ATOM     11  O   UNL     1       2.385  -1.813  -2.946  0.00  0.00    -0.273 OA
ATOM     12  N   UNL     1       0.296  -2.715  -3.249  0.00  0.00    -0.215 N 
ATOM     13  C   UNL     1      -0.829  -2.819  -2.531  0.00  0.00    +0.310 C 
ATOM     14  O   UNL     1      -1.838  -3.366  -2.931  0.00  0.00    -0.252 OA
ATOM     15  N   UNL     1      -0.717  -2.252  -1.315  0.00  0.00    -0.285 N 
ATOM     16  H   UNL     1      -1.402  -2.208  -0.629  0.00  0.00    +0.151 HD
ENDROOT
BRANCH  12  17
ATOM     17  C   UNL     1       0.458  -3.241  -4.606  0.00  0.00    +0.213 C 
BRANCH  17  18
ATOM     18  C   UNL     1       0.970  -4.657  -4.537  0.00  0.00    +0.231 C 
ATOM     19  O   UNL     1       1.179  -5.175  -3.461  0.00  0.00    -0.274 OA
ATOM     20  N   UNL     1       1.197  -5.348  -5.673  0.00  0.00    -0.310 N 
ATOM     21  H   UNL     1       1.030  -4.933  -6.534  0.00  0.00    +0.149 HD
BRANCH  20  22
ATOM     22  C   UNL     1       1.694  -6.724  -5.606  0.00  0.00    +0.139 C 
BRANCH  22  23
ATOM     23  C   UNL     1       1.861  -7.266  -7.002  0.00  0.00    -0.026 A 
ATOM     24  C   UNL     1       0.816  -7.921  -7.640  0.00  0.00    +0.023 A 
ATOM     25  C   UNL     1       1.001  -8.405  -8.919  0.00  0.00    +0.084 A 
ATOM     26  N   UNL     1       2.155  -8.253  -9.540  0.00  0.00    -0.350 N 
ATOM     27  C   UNL     1       3.176  -7.635  -8.966  0.00  0.00    +0.098 A 
ATOM     28  C   UNL     1       3.058  -7.117  -7.680  0.00  0.00    +0.047 A 
ATOM     29  N   UNL     1       4.375  -7.497  -9.656  0.00  0.00    -0.323 N 
ATOM     30  C   UNL     1       4.504  -8.035 -11.013  0.00  0.00    +0.130 C 
ATOM     31  C   UNL     1       5.508  -6.814  -9.028  0.00  0.00    +0.130 C 
ATOM     32  H   UNL     1       2.259  -8.603 -10.438  0.00  0.00    +0.166 HD
ENDBRANCH  22  23
ENDBRANCH  20  22
ENDBRANCH  17  18
ENDBRANCH  12  17
TORSDOF 4
