REMARK  Name = ZINC11332845
REMARK  6 active torsions:
REMARK  status: ('A' for Active; 'I' for Inactive)
REMARK    1  A    between atoms: C_8  and  C_13
REMARK    2  A    between atoms: C_13  and  C_14
REMARK    3  A    between atoms: C_14  and  C_15
REMARK    4  A    between atoms: N_17  and  C_18
REMARK    5  A    between atoms: C_18  and  C_19
REMARK    6  A    between atoms: C_22  and  C_24
REMARK                            x       y       z     vdW  Elec       q    Type
REMARK                         _______ _______ _______ _____ _____    ______ ____
ROOT
ATOM      1  C   UNL     1       3.718  -0.979  -0.180  0.00  0.00    +0.213 C 
ATOM      2  O   UNL     1       4.258  -0.685  -1.226  0.00  0.00    -0.276 OA
ATOM      3  N   UNL     1       4.095  -2.089   0.484  0.00  0.00    -0.308 N 
ATOM      4  H   UNL     1       3.663  -2.324   1.320  0.00  0.00    +0.149 HD
ENDROOT
BRANCH   1   5
ATOM      5  C   UNL     1       2.625  -0.102   0.376  0.00  0.00    +0.096 C 
BRANCH   5   6
ATOM      6  C   UNL     1       2.393   1.082  -0.564  0.00  0.00    +0.022 C 
BRANCH   6  14
ATOM      7  C   UNL     1      -1.322   6.012  -0.250  0.00  0.00    +0.000 A 
ATOM      8  C   UNL     1      -2.445   5.310   0.148  0.00  0.00    +0.002 A 
ATOM      9  C   UNL     1      -2.408   3.932   0.228  0.00  0.00    +0.023 A 
ATOM     10  C   UNL     1      -1.240   3.250  -0.091  0.00  0.00    +0.037 A 
ATOM     11  C   UNL     1      -0.119   3.957  -0.501  0.00  0.00    -0.025 A 
ATOM     12  C   UNL     1      -0.161   5.336  -0.575  0.00  0.00    +0.005 A 
ATOM     13  C   UNL     1       1.145   3.222  -0.869  0.00  0.00    +0.049 C 
ATOM     14  C   UNL     1       1.284   1.972   0.000  0.00  0.00    +0.080 C 
ATOM     15  C   UNL     1      -0.014   1.209   0.009  0.00  0.00    +0.221 C 
ATOM     16  O   UNL     1       0.002  -0.004   0.002  0.00  0.00    -0.275 OA
ATOM     17  N   UNL     1      -1.191   1.858   0.018  0.00  0.00    -0.285 N 
ATOM     18  H   UNL     1      -2.016   1.355   0.105  0.00  0.00    +0.155 HD
ENDBRANCH   6  14
ENDBRANCH   5   6
ENDBRANCH   1   5
BRANCH   3  19
ATOM     19  C   UNL     1       5.157  -2.941  -0.057  0.00  0.00    +0.178 C 
BRANCH  19  20
ATOM     20  C   UNL     1       5.386  -4.108   0.869  0.00  0.00    +0.123 A 
ATOM     21  C   UNL     1       4.754  -5.296   0.806  0.00  0.00    +0.047 A 
ATOM     22  C   UNL     1       5.268  -6.093   1.849  0.00  0.00    +0.050 A 
ATOM     23  C   UNL     1       6.188  -5.335   2.503  0.00  0.00    +0.135 A 
ATOM     24  O   UNL     1       6.248  -4.133   1.898  0.00  0.00    -0.458 OA
BRANCH  23  25
ATOM     25  C   UNL     1       6.982  -5.756   3.676  0.00  0.00    +0.017 A 
ATOM     26  C   UNL     1       6.816  -7.035   4.212  0.00  0.00    +0.012 A 
ATOM     27  C   UNL     1       7.564  -7.424   5.304  0.00  0.00    +0.016 A 
ATOM     28  C   UNL     1       8.470  -6.546   5.875  0.00  0.00    +0.018 A 
ATOM     29  C   UNL     1       8.635  -5.275   5.351  0.00  0.00    +0.016 A 
ATOM     30  C   UNL     1       7.897  -4.876   4.256  0.00  0.00    +0.012 A 
ATOM     31 BR   UNL     1       9.486  -7.085   7.376  0.00  0.00    -0.050 Br
ENDBRANCH  23  25
ENDBRANCH  19  20
ENDBRANCH   3  19
TORSDOF 6
