REMARK  Name = ZINC27529510
REMARK  14 active torsions:
REMARK  status: ('A' for Active; 'I' for Inactive)
REMARK    1  A    between atoms: C_4  and  C_7
REMARK    2  A    between atoms: N_11  and  C_12
REMARK    3  A    between atoms: C_12  and  C_13
REMARK    4  A    between atoms: C_13  and  C_15
REMARK    5  A    between atoms: C_13  and  O_40
REMARK    6  A    between atoms: C_15  and  O_16
REMARK    7  A    between atoms: O_16  and  C_17
REMARK    8  A    between atoms: C_20  and  O_23
REMARK    9  A    between atoms: O_23  and  C_24
REMARK   10  A    between atoms: C_24  and  C_25
REMARK   11  A    between atoms: C_25  and  C_27
REMARK   12  A    between atoms: C_25  and  O_39
REMARK   13  A    between atoms: C_27  and  N_28
REMARK   14  A    between atoms: C_32  and  C_33
REMARK                            x       y       z     vdW  Elec       q    Type
REMARK                         _______ _______ _______ _____ _____    ______ ____
ROOT
ATOM      1  C   UNL     1       6.729  -0.089   0.468  0.00  0.00    +0.121 A 
ATOM      2  C   UNL     1       7.749  -0.510   1.308  0.00  0.00    +0.049 A 
ATOM      3  C   UNL     1       9.042  -0.601   0.832  0.00  0.00    +0.049 A 
ATOM      4  C   UNL     1       9.322  -0.264  -0.484  0.00  0.00    +0.121 A 
ATOM      5  C   UNL     1       8.303   0.161  -1.323  0.00  0.00    +0.049 A 
ATOM      6  C   UNL     1       7.009   0.249  -0.848  0.00  0.00    +0.049 A 
ENDROOT
BRANCH   1   7
ATOM      7  O   UNL     1       5.454  -0.003   0.935  0.00  0.00    -0.489 OA
BRANCH   7   8
ATOM      8  C   UNL     1       5.238  -0.367   2.300  0.00  0.00    +0.261 C 
BRANCH   8   9
ATOM      9  C   UNL     1       3.756  -0.207   2.642  0.00  0.00    +0.169 C 
BRANCH   9  10
ATOM     10  O   UNL     1       2.987  -1.138   1.877  0.00  0.00    -0.387 OA
ATOM     11  H   UNL     1       3.012  -1.099   0.778  0.00  0.00    +0.210 HD
ENDBRANCH   9  10
BRANCH   9  12
ATOM     12  C   UNL     1       3.544  -0.476   4.133  0.00  0.00    +0.141 C 
BRANCH  12  17
ATOM     13  C   UNL     1       1.138  -1.113   4.562  0.00  0.00    +0.102 C 
ATOM     14  N   UNL     1      -0.008  -0.616   4.891  0.00  0.00    -0.371 N 
ATOM     15  C   UNL     1       0.113   0.833   5.105  0.00  0.00    +0.133 C 
ATOM     16  C   UNL     1       1.599   1.131   4.825  0.00  0.00    +0.127 C 
ATOM     17  N   UNL     1       2.151  -0.192   4.488  0.00  0.00    -0.312 N 
ATOM     18  H   UNL     1      -0.888  -1.270   4.972  0.00  0.00    +0.161 HD
BRANCH  13  22
ATOM     19  C   UNL     1       1.715  -5.247   3.763  0.00  0.00    +0.000 A 
ATOM     20  C   UNL     1       0.594  -4.601   3.272  0.00  0.00    +0.001 A 
ATOM     21  C   UNL     1       0.402  -3.259   3.529  0.00  0.00    +0.011 A 
ATOM     22  C   UNL     1       1.339  -2.554   4.283  0.00  0.00    +0.013 A 
ATOM     23  C   UNL     1       2.466  -3.212   4.775  0.00  0.00    +0.011 A 
ATOM     24  C   UNL     1       2.648  -4.554   4.512  0.00  0.00    +0.001 A 
ENDBRANCH  13  22
ENDBRANCH  12  17
ENDBRANCH   9  12
ENDBRANCH   8   9
ENDBRANCH   7   8
ENDBRANCH   1   7
BRANCH   4  25
ATOM     25  O   UNL     1      10.596  -0.351  -0.952  0.00  0.00    -0.489 OA
BRANCH  25  26
ATOM     26  C   UNL     1      11.596  -0.797  -0.032  0.00  0.00    +0.261 C 
BRANCH  26  27
ATOM     27  C   UNL     1      12.955  -0.830  -0.734  0.00  0.00    +0.169 C 
BRANCH  27  28
ATOM     28  O   UNL     1      13.338   0.498  -1.094  0.00  0.00    -0.387 OA
ATOM     29  H   UNL     1      14.293   0.675  -1.611  0.00  0.00    +0.210 HD
ENDBRANCH  27  28
BRANCH  27  30
ATOM     30  C   UNL     1      14.002  -1.424   0.210  0.00  0.00    +0.141 C 
BRANCH  30  31
ATOM     31  N   UNL     1      15.270  -1.586  -0.505  0.00  0.00    -0.312 N 
ATOM     32  C   UNL     1      15.655  -2.747  -1.326  0.00  0.00    +0.127 C 
ATOM     33  C   UNL     1      17.064  -2.374  -1.826  0.00  0.00    +0.133 C 
ATOM     34  N   UNL     1      17.319  -1.056  -1.228  0.00  0.00    -0.371 N 
ATOM     35  C   UNL     1      16.303  -0.685  -0.522  0.00  0.00    +0.102 C 
ATOM     36  H   UNL     1      18.201  -0.405  -1.308  0.00  0.00    +0.161 HD
BRANCH  35  37
ATOM     37  C   UNL     1      16.259   0.603   0.208  0.00  0.00    +0.013 A 
ATOM     38  C   UNL     1      16.731   1.767  -0.397  0.00  0.00    +0.011 A 
ATOM     39  C   UNL     1      16.682   2.965   0.286  0.00  0.00    +0.001 A 
ATOM     40  C   UNL     1      16.176   3.011   1.572  0.00  0.00    +0.000 A 
ATOM     41  C   UNL     1      15.710   1.858   2.180  0.00  0.00    +0.001 A 
ATOM     42  C   UNL     1      15.749   0.655   1.505  0.00  0.00    +0.011 A 
ENDBRANCH  35  37
ENDBRANCH  30  31
ENDBRANCH  27  30
ENDBRANCH  26  27
ENDBRANCH  25  26
ENDBRANCH   4  25
TORSDOF 14
