REMARK  Name = ZINC55731073
REMARK  5 active torsions:
REMARK  status: ('A' for Active; 'I' for Inactive)
REMARK    1  A    between atoms: C_1  and  C_2
REMARK    2  A    between atoms: C_2  and  C_3
REMARK    3  A    between atoms: C_2  and  C_4
REMARK    4  A    between atoms: C_4  and  C_6
REMARK    5  A    between atoms: C_4  and  N_23
REMARK                            x       y       z     vdW  Elec       q    Type
REMARK                         _______ _______ _______ _____ _____    ______ ____
ROOT
ATOM      1  C   UNL     1      -0.175  -0.037  -2.513  0.00  0.00    +0.236 C 
ATOM      2  O   UNL     1      -0.805  -0.821  -3.191  0.00  0.00    -0.274 OA
ATOM      3  N   UNL     1      -0.222   1.282  -2.788  0.00  0.00    -0.295 N 
ATOM      4  C   UNL     1       0.444   2.260  -1.915  0.00  0.00    +0.114 C 
ATOM      5  C   UNL     1       1.565   2.949  -2.700  0.00  0.00    +0.072 C 
ATOM      6  C   UNL     1       1.043   3.345  -4.061  0.00  0.00    +0.023 A 
ATOM      7  C   UNL     1      -0.067   2.824  -4.627  0.00  0.00    -0.002 A 
ATOM      8  C   UNL     1      -0.225   3.453  -5.921  0.00  0.00    +0.006 A 
ATOM      9  C   UNL     1      -1.176   3.311  -6.937  0.00  0.00    +0.010 A 
ATOM     10  C   UNL     1      -1.009   4.088  -8.056  0.00  0.00    +0.002 A 
ATOM     11  C   UNL     1       0.046   4.976  -8.186  0.00  0.00    +0.017 A 
ATOM     12  C   UNL     1       1.001   5.138  -7.196  0.00  0.00    +0.042 A 
ATOM     13  C   UNL     1       0.858   4.360  -6.048  0.00  0.00    +0.061 A 
ATOM     14  N   UNL     1       1.601   4.269  -4.907  0.00  0.00    -0.357 N 
ATOM     15  H   UNL     1       2.404   4.780  -4.721  0.00  0.00    +0.166 HD
ATOM     16 BR   UNL     1       2.434   6.355  -7.394  0.00  0.00    -0.048 Br
ATOM     17  C   UNL     1      -0.937   1.782  -3.976  0.00  0.00    +0.145 C 
ENDROOT
BRANCH   1  18
ATOM     18  C   UNL     1       0.661  -0.537  -1.363  0.00  0.00    +0.163 C 
BRANCH  18  19
ATOM     19  N   UNL     1       1.268  -1.821  -1.723  0.00  0.00    -0.288 N 
ATOM     20  C   UNL     1       2.407  -2.220  -1.123  0.00  0.00    +0.298 C 
ATOM     21  O   UNL     1       2.931  -1.514  -0.283  0.00  0.00    -0.253 OA
ATOM     22  N   UNL     1       2.965  -3.401  -1.453  0.00  0.00    -0.313 N 
ATOM     23  H   UNL     1       0.850  -2.385  -2.393  0.00  0.00    +0.151 HD
ATOM     24  H   UNL     1       2.547  -3.964  -2.123  0.00  0.00    +0.146 HD
ATOM     25  H   UNL     1       3.785  -3.688  -1.022  0.00  0.00    +0.146 HD
ENDBRANCH  18  19
BRANCH  18  27
ATOM     26  C   UNL     1      -0.849   0.624   0.253  0.00  0.00    +0.009 C 
ATOM     27  C   UNL     1      -0.225  -0.720  -0.130  0.00  0.00    +0.012 C 
ATOM     28  C   UNL     1      -1.334  -1.726  -0.443  0.00  0.00    +0.009 C 
ENDBRANCH  18  27
ENDBRANCH   1  18
TORSDOF 3
