REMARK  Name = ZINC04309248
REMARK  5 active torsions:
REMARK  status: ('A' for Active; 'I' for Inactive)
REMARK    1  A    between atoms: C_1  and  C_2
REMARK    2  A    between atoms: C_2  and  C_22
REMARK    3  A    between atoms: N_5  and  C_9
REMARK    4  A    between atoms: C_9  and  C_10
REMARK    5  A    between atoms: N_12  and  C_13
REMARK                            x       y       z     vdW  Elec       q    Type
REMARK                         _______ _______ _______ _____ _____    ______ ____
ROOT
ATOM      1  C   UNL     1      -2.598  -3.394   1.230  0.00  0.00    +0.235 C 
ATOM      2  O   UNL     1      -1.712  -3.761   0.486  0.00  0.00    -0.274 OA
ATOM      3  N   UNL     1      -3.594  -4.239   1.560  0.00  0.00    -0.283 N 
ATOM      4  H   UNL     1      -4.266  -3.968   2.205  0.00  0.00    +0.155 HD
ENDROOT
BRANCH   3   5
ATOM      5  C   UNL     1      -3.660  -5.508   0.972  0.00  0.00    +0.053 A 
ATOM      6  C   UNL     1      -2.492  -6.194   0.667  0.00  0.00    +0.046 A 
ATOM      7  C   UNL     1      -2.559  -7.446   0.086  0.00  0.00    +0.061 A 
ATOM      8  C   UNL     1      -3.791  -8.017  -0.191  0.00  0.00    +0.061 A 
ATOM      9  C   UNL     1      -4.956  -7.335   0.112  0.00  0.00    +0.043 A 
ATOM     10  C   UNL     1      -4.894  -6.085   0.697  0.00  0.00    +0.064 A 
ATOM     11 CL   UNL     1      -6.356  -5.233   1.084  0.00  0.00    -0.082 Cl
ATOM     12 CL   UNL     1      -3.872  -9.590  -0.921  0.00  0.00    -0.082 Cl
ATOM     13 CL   UNL     1      -1.100  -8.305  -0.296  0.00  0.00    -0.082 Cl
ENDBRANCH   3   5
BRANCH   1  14
ATOM     14  C   UNL     1      -2.583  -1.993   1.785  0.00  0.00    +0.214 C 
BRANCH  14  19
ATOM     15  C   UNL     1       0.006   1.519   0.045  0.00  0.00    +0.041 C 
ATOM     16  C   UNL     1       0.020  -0.011   0.027  0.00  0.00    +0.107 C 
ATOM     17  C   UNL     1      -1.389  -0.558   0.143  0.00  0.00    +0.246 C 
ATOM     18  O   UNL     1      -2.308  -0.383  -0.628  0.00  0.00    -0.273 OA
ATOM     19  N   UNL     1      -1.406  -1.280   1.280  0.00  0.00    -0.215 N 
ATOM     20  C   UNL     1      -0.217  -1.265   1.893  0.00  0.00    +0.310 C 
ATOM     21  O   UNL     1       0.013  -1.845   2.936  0.00  0.00    -0.252 OA
ATOM     22  N   UNL     1       0.696  -0.537   1.225  0.00  0.00    -0.285 N 
ATOM     23  C   UNL     1       0.698  -0.526  -1.244  0.00  0.00    +0.041 C 
ATOM     24  H   UNL     1       1.619  -0.388   1.482  0.00  0.00    +0.151 HD
ENDBRANCH  14  19
ENDBRANCH   1  14
TORSDOF 3
