REMARK  Name = ZINC12806191
REMARK  5 active torsions:
REMARK  status: ('A' for Active; 'I' for Inactive)
REMARK    1  A    between atoms: C_4  and  N_7
REMARK    2  A    between atoms: C_13  and  N_16
REMARK    3  A    between atoms: C_17  and  C_19
REMARK    4  A    between atoms: N_22  and  S_25
REMARK    5  A    between atoms: S_25  and  C_28
REMARK                            x       y       z     vdW  Elec       q    Type
REMARK                         _______ _______ _______ _____ _____    ______ ____
ROOT
ATOM      1  N   UNL     1       0.343   0.642  -1.189  0.00  0.00    -0.312 N 
ATOM      2  C   UNL     1       1.091  -0.324  -0.622  0.00  0.00    +0.216 C 
ATOM      3  O   UNL     1       1.719  -0.091   0.389  0.00  0.00    -0.276 OA
ATOM      4  H   UNL     1      -0.159   0.456  -1.998  0.00  0.00    +0.149 HD
ENDROOT
BRANCH   1  11
ATOM      5  N   UNL     1      -2.887   5.218   1.221  0.00  0.00    -0.269 N 
ATOM      6  C   UNL     1      -2.002   5.292   0.207  0.00  0.00    +0.306 C 
ATOM      7  O   UNL     1      -2.106   6.171  -0.627  0.00  0.00    -0.252 OA
ATOM      8  N   UNL     1      -1.003   4.392   0.117  0.00  0.00    -0.285 N 
ATOM      9  C   UNL     1      -0.085   4.405  -1.030  0.00  0.00    +0.111 C 
ATOM     10  C   UNL     1      -0.062   3.009  -1.658  0.00  0.00    +0.041 C 
ATOM     11  C   UNL     1       0.288   1.976  -0.585  0.00  0.00    +0.076 C 
ATOM     12  C   UNL     1      -0.780   1.995   0.511  0.00  0.00    +0.041 C 
ATOM     13  C   UNL     1      -0.811   3.380   1.165  0.00  0.00    +0.111 C 
ATOM     14  H   UNL     1      -2.744   4.588   1.945  0.00  0.00    +0.156 HD
BRANCH   5  18
ATOM     15  C   UNL     1      -6.239   7.693   1.246  0.00  0.00    +0.000 A 
ATOM     16  C   UNL     1      -5.646   7.322   2.439  0.00  0.00    +0.002 A 
ATOM     17  C   UNL     1      -4.535   6.502   2.434  0.00  0.00    +0.023 A 
ATOM     18  C   UNL     1      -4.013   6.049   1.229  0.00  0.00    +0.035 A 
ATOM     19  C   UNL     1      -4.608   6.427   0.033  0.00  0.00    +0.023 A 
ATOM     20  C   UNL     1      -5.722   7.243   0.045  0.00  0.00    +0.002 A 
ENDBRANCH   5  18
ENDBRANCH   1  11
BRANCH   2  21
ATOM     21  C   UNL     1       1.148  -1.696  -1.244  0.00  0.00    +0.077 C 
ATOM     22  C   UNL     1      -0.260  -2.295  -1.288  0.00  0.00    +0.030 C 
ATOM     23  C   UNL     1      -0.203  -3.674  -1.953  0.00  0.00    +0.110 C 
ATOM     24  N   UNL     1       0.782  -4.500  -1.242  0.00  0.00    -0.176 NA
ATOM     25  C   UNL     1       2.144  -3.979  -1.064  0.00  0.00    +0.110 C 
ATOM     26  C   UNL     1       2.061  -2.597  -0.409  0.00  0.00    +0.030 C 
BRANCH  24  27
ATOM     27  S   UNL     1       0.365  -5.992  -0.655  0.00  0.00    +0.067 S 
ATOM     28  O   UNL     1      -0.743  -6.437  -1.426  0.00  0.00    -0.152 OA
ATOM     29  O   UNL     1       1.570  -6.738  -0.550  0.00  0.00    -0.152 OA
BRANCH  27  30
ATOM     30  C   UNL     1      -0.226  -5.758   0.988  0.00  0.00    +0.143 A 
ATOM     31  C   UNL     1      -1.489  -5.511   1.414  0.00  0.00    +0.036 A 
ATOM     32  C   UNL     1      -1.724  -5.364   2.768  0.00  0.00    +0.010 A 
ATOM     33  C   UNL     1      -0.682  -5.460   3.630  0.00  0.00    +0.047 A 
ATOM     34  S   UNL     1       0.684  -5.775   2.524  0.00  0.00    -0.077 S 
ENDBRANCH  27  30
ENDBRANCH  24  27
ENDBRANCH   2  21
TORSDOF 5
