REMARK  Name = ZINC15417269
REMARK  11 active torsions:
REMARK  status: ('A' for Active; 'I' for Inactive)
REMARK    1  A    between atoms: C_1  and  C_2
REMARK    2  A    between atoms: C_2  and  C_3
REMARK    3  A    between atoms: C_3  and  C_4
REMARK    4  A    between atoms: C_4  and  N_5
REMARK    5  A    between atoms: C_6  and  N_30
REMARK    6  A    between atoms: C_7  and  N_14
REMARK    7  A    between atoms: N_14  and  C_15
REMARK    8  A    between atoms: C_15  and  C_16
REMARK    9  A    between atoms: C_17  and  C_19
REMARK   10  A    between atoms: C_19  and  N_59
REMARK   11  A    between atoms: C_27  and  C_29
REMARK                            x       y       z     vdW  Elec       q    Type
REMARK                         _______ _______ _______ _____ _____    ______ ____
ROOT
ATOM      1  N   UNL     1      -1.581  -0.544  -0.235  0.00  0.00    -0.266 N 
ATOM      2  C   UNL     1      -0.268  -0.232  -0.234  0.00  0.00    +0.203 C 
ATOM      3  O   UNL     1       0.560  -1.095  -0.439  0.00  0.00    -0.277 OA
ENDROOT
BRANCH   1   6
ATOM      4  N   UNL     1      -2.150  -3.885  -1.655  0.00  0.00    -0.280 N 
ATOM      5  C   UNL     1      -1.743  -2.576  -1.547  0.00  0.00    +0.127 A 
ATOM      6  C   UNL     1      -1.987  -1.888  -0.376  0.00  0.00    +0.140 A 
ATOM      7  C   UNL     1      -2.643  -2.552   0.678  0.00  0.00    +0.277 A 
ATOM      8  O   UNL     1      -2.866  -1.970   1.725  0.00  0.00    -0.266 OA
ATOM      9  N   UNL     1      -3.025  -3.834   0.519  0.00  0.00    -0.273 N 
ATOM     10  H   UNL     1      -3.498  -4.305   1.264  0.00  0.00    +0.173 HD
ATOM     11  C   UNL     1      -2.779  -4.489  -0.629  0.00  0.00    +0.331 A 
ATOM     12  O   UNL     1      -3.132  -5.647  -0.744  0.00  0.00    -0.246 OA
BRANCH   5  13
ATOM     13  N   UNL     1      -1.101  -1.959  -2.595  0.00  0.00    -0.343 N 
ATOM     14  H   UNL     1      -0.763  -1.056  -2.492  0.00  0.00    +0.144 HD
ATOM     15  H   UNL     1      -0.986  -2.428  -3.436  0.00  0.00    +0.144 HD
ENDBRANCH   5  13
BRANCH   4  16
ATOM     16  C   UNL     1      -1.897  -4.627  -2.892  0.00  0.00    +0.128 C 
BRANCH  16  17
ATOM     17  C   UNL     1      -0.538  -5.324  -2.800  0.00  0.00    +0.021 C 
BRANCH  17  19
ATOM     18  C   UNL     1       1.085  -6.795  -4.001  0.00  0.00    +0.004 C 
ATOM     19  C   UNL     1      -0.274  -6.099  -4.093  0.00  0.00    -0.002 C 
ENDBRANCH  17  19
ENDBRANCH  16  17
ENDBRANCH   4  16
ENDBRANCH   1   6
BRANCH   1  20
ATOM     20  C   UNL     1      -2.585   0.513  -0.090  0.00  0.00    +0.110 C 
ATOM     21  C   UNL     1      -3.054   0.964  -1.475  0.00  0.00    +0.025 C 
ENDBRANCH   1  20
BRANCH   2  22
ATOM     22  C   UNL     1       0.169   1.187   0.024  0.00  0.00    +0.020 C 
BRANCH  22  32
ATOM     23  C   UNL     1       2.145   0.361   1.154  0.00  0.00    -0.055 C 
ATOM     24  C   UNL     1       3.604   0.714   1.466  0.00  0.00    +0.103 C 
ATOM     25  N   UNL     1       4.345   0.761   0.199  0.00  0.00    -0.354 N 
ATOM     26  C   UNL     1       5.689   0.726   0.015  0.00  0.00    +0.086 A 
ATOM     27  C   UNL     1       5.934   0.787  -1.312  0.00  0.00    +0.019 A 
ATOM     28  C   UNL     1       4.689   0.865  -1.970  0.00  0.00    +0.021 A 
ATOM     29  C   UNL     1       3.736   0.849  -1.026  0.00  0.00    +0.005 A 
ATOM     30  C   UNL     1       2.240   0.912  -1.208  0.00  0.00    -0.023 C 
ATOM     31  C   UNL     1       1.888   1.996  -2.230  0.00  0.00    -0.007 C 
ATOM     32  N   UNL     1       1.642   1.270   0.101  0.00  0.00    +0.392 N 
ATOM     33  H   UNL     1       1.910   2.233   0.337  0.00  0.00    -0.080 HD
ENDBRANCH  22  32
ENDBRANCH   2  22
TORSDOF 8
