REMARK  Name = ZINC04939021
REMARK  7 active torsions:
REMARK  status: ('A' for Active; 'I' for Inactive)
REMARK    1  A    between atoms: C_1  and  N_2
REMARK    2  A    between atoms: N_7  and  C_10
REMARK    3  A    between atoms: N_11  and  C_14
REMARK    4  A    between atoms: C_14  and  C_15
REMARK    5  A    between atoms: N_17  and  C_18
REMARK    6  A    between atoms: C_18  and  C_19
REMARK    7  A    between atoms: C_19  and  C_20
REMARK                            x       y       z     vdW  Elec       q    Type
REMARK                         _______ _______ _______ _____ _____    ______ ____
ROOT
ATOM      1  C   UNL     1      -7.255   1.322   2.339  0.00  0.00    +0.233 C 
ATOM      2  O   UNL     1      -6.859   2.020   3.248  0.00  0.00    -0.274 OA
ATOM      3  N   UNL     1      -6.430   1.013   1.318  0.00  0.00    -0.314 N 
ATOM      4  H   UNL     1      -6.747   0.455   0.591  0.00  0.00    +0.149 HD
ENDROOT
BRANCH   1   5
ATOM      5  C   UNL     1      -8.668   0.800   2.349  0.00  0.00    +0.219 C 
BRANCH   5  16
ATOM      6  C   UNL     1     -11.729   3.644   6.812  0.00  0.00    +0.155 C 
ATOM      7  N   UNL     1     -11.193   3.608   5.449  0.00  0.00    -0.280 N 
ATOM      8  C   UNL     1     -10.493   2.495   5.010  0.00  0.00    +0.168 A 
ATOM      9  C   UNL     1      -9.990   2.488   3.715  0.00  0.00    +0.152 A 
ATOM     10  C   UNL     1     -10.216   3.606   2.883  0.00  0.00    +0.282 A 
ATOM     11  O   UNL     1      -9.788   3.621   1.742  0.00  0.00    -0.265 OA
ATOM     12  N   UNL     1     -10.904   4.660   3.368  0.00  0.00    -0.262 N 
ATOM     13  C   UNL     1     -11.381   4.656   4.625  0.00  0.00    +0.333 A 
ATOM     14  O   UNL     1     -11.998   5.623   5.028  0.00  0.00    -0.246 OA
ATOM     15  C   UNL     1     -11.136   5.826   2.512  0.00  0.00    +0.157 C 
ATOM     16  N   UNL     1      -9.354   1.273   3.555  0.00  0.00    -0.316 N 
ATOM     17  C   UNL     1      -9.479   0.607   4.719  0.00  0.00    +0.202 A 
ATOM     18  N   UNL     1     -10.152   1.334   5.574  0.00  0.00    -0.218 NA
ENDBRANCH   5  16
ENDBRANCH   1   5
BRANCH   3  19
ATOM     19  C   UNL     1      -5.056   1.520   1.308  0.00  0.00    +0.105 C 
BRANCH  19  20
ATOM     20  C   UNL     1      -4.340   1.027   0.049  0.00  0.00    +0.025 C 
BRANCH  20  21
ATOM     21  C   UNL     1      -2.904   1.556   0.038  0.00  0.00    -0.027 C 
ATOM     22  C   UNL     1      -2.188   1.063  -1.221  0.00  0.00    +0.010 C 
ATOM     23  C   UNL     1      -0.753   1.593  -1.232  0.00  0.00    -0.010 C 
ATOM     24  C   UNL     1      -0.013   1.086   0.008  0.00  0.00    +0.007 C 
ATOM     25  C   UNL     1      -0.729   1.579   1.267  0.00  0.00    -0.010 C 
ATOM     26  C   UNL     1      -2.164   1.050   1.278  0.00  0.00    +0.010 C 
ATOM     27  C   UNL     1      -0.750   3.109   1.275  0.00  0.00    +0.007 C 
ATOM     28  C   UNL     1      -1.490   3.616   0.036  0.00  0.00    -0.010 C 
ATOM     29  C   UNL     1      -0.773   3.123  -1.223  0.00  0.00    +0.007 C 
ATOM     30  C   UNL     1      -2.925   3.086   0.047  0.00  0.00    +0.010 C 
ENDBRANCH  20  21
ENDBRANCH  19  20
ENDBRANCH   3  19
TORSDOF 5
