REMARK  Name = ZINC09871075
REMARK  10 active torsions:
REMARK  status: ('A' for Active; 'I' for Inactive)
REMARK    1  A    between atoms: C_1  and  C_2
REMARK    2  A    between atoms: C_2  and  C_3
REMARK    3  A    between atoms: C_3  and  C_5
REMARK    4  A    between atoms: C_3  and  C_6
REMARK    5  A    between atoms: C_11  and  O_12
REMARK    6  A    between atoms: O_12  and  C_13
REMARK    7  A    between atoms: C_13  and  C_15
REMARK    8  A    between atoms: C_13  and  C_16
REMARK    9  A    between atoms: N_18  and  N_19
REMARK   10  A    between atoms: C_20  and  C_22
REMARK                            x       y       z     vdW  Elec       q    Type
REMARK                         _______ _______ _______ _____ _____    ______ ____
ROOT
ATOM      1  C   UNL     1      -1.220   7.104  -0.866  0.00  0.00    +0.270 C 
ATOM      2  O   UNL     1      -0.142   7.435  -1.311  0.00  0.00    -0.270 OA
ATOM      3  N   UNL     1      -2.306   7.871  -1.087  0.00  0.00    -0.231 N 
ATOM      4  H   UNL     1      -3.168   7.606  -0.732  0.00  0.00    +0.173 HD
ENDROOT
BRANCH   3   5
ATOM      5  N   UNL     1      -2.188   9.053  -1.831  0.00  0.00    -0.230 N 
ATOM      6  C   UNL     1      -3.274   9.820  -2.053  0.00  0.00    +0.261 C 
ATOM      7  O   UNL     1      -4.354   9.488  -1.607  0.00  0.00    -0.269 OA
ATOM      8  H   UNL     1      -1.326   9.318  -2.187  0.00  0.00    +0.173 HD
BRANCH   6   9
ATOM      9  C   UNL     1      -3.150  11.067  -2.837  0.00  0.00    +0.051 A 
ATOM     10  C   UNL     1      -1.909  11.455  -3.346  0.00  0.00    +0.014 A 
ATOM     11  C   UNL     1      -1.801  12.616  -4.082  0.00  0.00    +0.001 A 
ATOM     12  C   UNL     1      -2.917  13.402  -4.308  0.00  0.00    +0.001 A 
ATOM     13  C   UNL     1      -4.149  13.027  -3.802  0.00  0.00    +0.015 A 
ATOM     14  C   UNL     1      -4.272  11.864  -3.068  0.00  0.00    +0.026 A 
ATOM     15  I   UNL     1      -6.138  11.299  -2.303  0.00  0.00    -0.043 I 
ENDBRANCH   6   9
ENDBRANCH   3   5
BRANCH   1  16
ATOM     16  C   UNL     1      -1.347   5.833  -0.066  0.00  0.00    +0.257 C 
ATOM     17  C   UNL     1      -1.859   6.163   1.338  0.00  0.00    +0.062 C 
BRANCH  16  18
ATOM     18  O   UNL     1      -0.069   5.201   0.029  0.00  0.00    -0.480 OA
BRANCH  18  24
ATOM     19  C   UNL     1       1.142   3.162   0.226  0.00  0.00    -0.003 A 
ATOM     20  C   UNL     1       1.150   1.797   0.436  0.00  0.00    +0.007 A 
ATOM     21  C   UNL     1      -0.037   1.123   0.656  0.00  0.00    +0.001 A 
ATOM     22  C   UNL     1      -1.236   1.813   0.661  0.00  0.00    +0.004 A 
ATOM     23  C   UNL     1      -1.248   3.179   0.457  0.00  0.00    +0.046 A 
ATOM     24  C   UNL     1      -0.058   3.858   0.236  0.00  0.00    +0.125 A 
BRANCH  19  25
ATOM     25  C   UNL     1       2.436   3.896  -0.014  0.00  0.00    +0.019 C 
ATOM     26  C   UNL     1       3.358   3.713   1.194  0.00  0.00    +0.012 C 
BRANCH  25  28
ATOM     27  C   UNL     1       4.366   4.159  -1.579  0.00  0.00    +0.004 C 
ATOM     28  C   UNL     1       3.117   3.334  -1.264  0.00  0.00    +0.004 C 
ENDBRANCH  25  28
ENDBRANCH  19  25
ENDBRANCH  18  24
ENDBRANCH  16  18
ENDBRANCH   1  16
TORSDOF 7
