REMARK  Name = ZINC66186985
REMARK  9 active torsions:
REMARK  status: ('A' for Active; 'I' for Inactive)
REMARK    1  A    between atoms: C_1  and  C_2
REMARK    2  A    between atoms: C_4  and  C_28
REMARK    3  A    between atoms: N_5  and  C_7
REMARK    4  A    between atoms: C_7  and  C_8
REMARK    5  A    between atoms: C_8  and  C_10
REMARK    6  A    between atoms: C_8  and  N_11
REMARK    7  A    between atoms: N_14  and  C_15
REMARK    8  A    between atoms: N_14  and  C_16
REMARK    9  A    between atoms: N_19  and  C_22
REMARK                            x       y       z     vdW  Elec       q    Type
REMARK                         _______ _______ _______ _____ _____    ______ ____
ROOT
ATOM      1  N   UNL     1       2.159  -4.100   0.533  0.00  0.00    -0.295 N 
ATOM      2  C   UNL     1       3.498  -4.006   0.414  0.00  0.00    +0.302 C 
ATOM      3  O   UNL     1       4.163  -3.580   1.339  0.00  0.00    -0.253 OA
ATOM      4  N   UNL     1       4.101  -4.386  -0.731  0.00  0.00    -0.286 N 
ATOM      5  C   UNL     1       3.300  -4.899  -1.845  0.00  0.00    +0.134 C 
ATOM      6  H   UNL     1       1.629  -4.440  -0.204  0.00  0.00    +0.151 HD
ENDROOT
BRANCH   4   7
ATOM      7  C   UNL     1       5.557  -4.284  -0.860  0.00  0.00    +0.074 C 
ATOM      8  C   UNL     1       5.903  -3.360  -2.031  0.00  0.00    +0.004 C 
ATOM      9  C   UNL     1       7.422  -3.321  -2.211  0.00  0.00    -0.077 C 
ATOM     10  N   UNL     1       7.920  -4.673  -2.490  0.00  0.00    +0.382 N 
ATOM     11  C   UNL     1       7.655  -5.548  -1.342  0.00  0.00    -0.077 C 
ATOM     12  C   UNL     1       6.145  -5.673  -1.128  0.00  0.00    +0.004 C 
ATOM     13  H   UNL     1       7.454  -5.040  -3.306  0.00  0.00    -0.081 HD
BRANCH  10  14
ATOM     14  C   UNL     1       9.367  -4.619  -2.739  0.00  0.00    -0.064 C 
ATOM     15  C   UNL     1       9.645  -3.723  -3.949  0.00  0.00    +0.013 C 
ATOM     16  C   UNL     1      11.147  -3.736  -4.249  0.00  0.00    +0.158 C 
ATOM     17  O   UNL     1      11.574  -5.080  -4.480  0.00  0.00    -0.380 OA
ATOM     18  C   UNL     1      11.381  -5.953  -3.366  0.00  0.00    +0.158 C 
ATOM     19  C   UNL     1       9.889  -6.029  -3.030  0.00  0.00    +0.013 C 
ENDBRANCH  10  14
ENDBRANCH   4   7
BRANCH   1  20
ATOM     20  C   UNL     1       1.504  -3.688   1.777  0.00  0.00    +0.093 C 
ATOM     21  C   UNL     1       1.527  -4.848   2.774  0.00  0.00    +0.030 C 
BRANCH  20  22
ATOM     22  C   UNL     1       0.055  -3.295   1.485  0.00  0.00    +0.165 C 
BRANCH  22  27
ATOM     23  C   UNL     1      -0.018   1.503   0.010  0.00  0.00    +0.067 C 
ATOM     24  C   UNL     1       0.002  -0.004   0.002  0.00  0.00    +0.060 A 
ATOM     25  C   UNL     1       0.008  -0.818  -1.135  0.00  0.00    +0.047 A 
ATOM     26  C   UNL     1       0.028  -2.107  -0.725  0.00  0.00    +0.036 A 
ATOM     27  N   UNL     1       0.034  -2.109   0.625  0.00  0.00    -0.267 N 
ATOM     28  N   UNL     1       0.023  -0.777   1.058  0.00  0.00    -0.176 NA
ATOM     29  C   UNL     1       0.040  -3.323  -1.615  0.00  0.00    +0.065 C 
ENDBRANCH  22  27
ENDBRANCH  20  22
ENDBRANCH   1  20
TORSDOF 5
