REMARK  Name = ZINC06749436
REMARK  7 active torsions:
REMARK  status: ('A' for Active; 'I' for Inactive)
REMARK    1  A    between atoms: C_1  and  C_2
REMARK    2  A    between atoms: C_2  and  C_3
REMARK    3  A    between atoms: N_5  and  C_17
REMARK    4  A    between atoms: C_12  and  C_16
REMARK    5  A    between atoms: C_17  and  C_18
REMARK    6  A    between atoms: N_20  and  C_21
REMARK    7  A    between atoms: C_27  and  C_29
REMARK                            x       y       z     vdW  Elec       q    Type
REMARK                         _______ _______ _______ _____ _____    ______ ____
ROOT
ATOM      1  C   UNL     1       1.002  -3.208  -0.024  0.00  0.00    +0.135 A 
ATOM      2  N   UNL     1       1.626  -4.336  -0.036  0.00  0.00    -0.154 NA
ATOM      3  N   UNL     1       3.022  -4.418  -0.049  0.00  0.00    -0.217 N 
ATOM      4  C   UNL     1       3.767  -3.290  -0.051  0.00  0.00    +0.292 A 
ATOM      5  O   UNL     1       4.984  -3.342  -0.063  0.00  0.00    -0.264 OA
ATOM      6  C   UNL     1       3.066  -2.004  -0.037  0.00  0.00    +0.116 A 
ATOM      7  N   UNL     1       1.681  -2.006  -0.024  0.00  0.00    -0.291 N 
ATOM      8  C   UNL     1       1.225  -0.692  -0.013  0.00  0.00    +0.063 A 
ATOM      9  C   UNL     1       0.002  -0.004   0.002  0.00  0.00    +0.037 A 
ATOM     10  C   UNL     1      -0.016   1.344   0.009  0.00  0.00    -0.011 A 
ATOM     11  S   UNL     1       1.720   1.759  -0.005  0.00  0.00    -0.092 S 
ATOM     12  C   UNL     1       2.374   0.110  -0.020  0.00  0.00    +0.038 A 
ATOM     13  C   UNL     1       3.500  -0.700  -0.034  0.00  0.00    +0.048 A 
ATOM     14  C   UNL     1      -1.206   2.270   0.020  0.00  0.00    +0.051 C 
ENDROOT
BRANCH   1  16
ATOM     15  C   UNL     1      -1.021  -4.642  -0.013  0.00  0.00    +0.012 C 
ATOM     16  C   UNL     1      -0.505  -3.202  -0.009  0.00  0.00    +0.073 C 
ENDBRANCH   1  16
BRANCH   3  17
ATOM     17  C   UNL     1       3.677  -5.729  -0.062  0.00  0.00    +0.243 C 
BRANCH  17  18
ATOM     18  C   UNL     1       3.915  -6.185   1.354  0.00  0.00    +0.235 C 
ATOM     19  O   UNL     1       3.571  -5.486   2.283  0.00  0.00    -0.274 OA
ATOM     20  N   UNL     1       4.510  -7.372   1.588  0.00  0.00    -0.311 N 
ATOM     21  H   UNL     1       4.786  -7.931   0.846  0.00  0.00    +0.149 HD
BRANCH  20  22
ATOM     22  C   UNL     1       4.742  -7.816   2.965  0.00  0.00    +0.076 C 
ATOM     23  C   UNL     1       6.055  -7.221   3.479  0.00  0.00    +0.022 C 
ATOM     24  C   UNL     1       6.296  -7.685   4.917  0.00  0.00    +0.002 C 
ATOM     25  C   UNL     1       6.379  -9.213   4.953  0.00  0.00    +0.000 C 
ATOM     26  C   UNL     1       5.066  -9.807   4.439  0.00  0.00    +0.005 C 
ATOM     27  C   UNL     1       4.825  -9.343   3.001  0.00  0.00    +0.006 C 
ATOM     28  C   UNL     1       3.512  -9.937   2.487  0.00  0.00    +0.009 C 
ENDBRANCH  20  22
ENDBRANCH  17  18
ENDBRANCH   3  17
TORSDOF 4
