REMARK  Name = ZINC36812046
REMARK  6 active torsions:
REMARK  status: ('A' for Active; 'I' for Inactive)
REMARK    1  A    between atoms: C_1  and  C_2
REMARK    2  A    between atoms: C_2  and  N_3
REMARK    3  A    between atoms: C_7  and  C_9
REMARK    4  A    between atoms: C_9  and  S_10
REMARK    5  A    between atoms: S_10  and  C_11
REMARK    6  A    between atoms: C_21  and  C_25
REMARK                            x       y       z     vdW  Elec       q    Type
REMARK                         _______ _______ _______ _____ _____    ______ ____
ROOT
ATOM      1  C   UNL     1       3.627  -6.355   5.220  0.00  0.00    +0.191 A 
ATOM      2  N   UNL     1       4.061  -5.386   6.018  0.00  0.00    -0.207 NA
ATOM      3  C   UNL     1       4.384  -5.609   7.281  0.00  0.00    +0.129 A 
ATOM      4  C   UNL     1       4.265  -6.926   7.808  0.00  0.00    +0.051 A 
ATOM      5  C   UNL     1       4.560  -7.400   9.162  0.00  0.00    -0.025 A 
ATOM      6  C   UNL     1       4.361  -8.710   9.409  0.00  0.00    -0.004 A 
ATOM      7  S   UNL     1       3.778  -9.385   7.877  0.00  0.00    -0.073 S 
ATOM      8  C   UNL     1       3.800  -7.902   6.905  0.00  0.00    +0.115 A 
ATOM      9  N   UNL     1       3.493  -7.599   5.658  0.00  0.00    -0.214 NA
ATOM     10  C   UNL     1       4.585  -9.435  10.701  0.00  0.00    +0.046 C 
ATOM     11  C   UNL     1       4.725  -8.395  11.822  0.00  0.00    -0.009 C 
ATOM     12  C   UNL     1       5.705  -7.311  11.366  0.00  0.00    +0.008 C 
ATOM     13  C   UNL     1       5.070  -6.469  10.259  0.00  0.00    +0.037 C 
ATOM     14  C   UNL     1       5.255  -9.073  13.087  0.00  0.00    +0.008 C 
ATOM     15  N   UNL     1       4.832  -4.574   8.081  0.00  0.00    -0.343 N 
ATOM     16  H   UNL     1       4.843  -4.675   9.046  0.00  0.00    +0.144 HD
ATOM     17  H   UNL     1       5.137  -3.746   7.677  0.00  0.00    +0.144 HD
ENDROOT
BRANCH   1  18
ATOM     18  S   UNL     1       3.216  -5.978   3.548  0.00  0.00    -0.077 S 
BRANCH  18  19
ATOM     19  C   UNL     1       3.550  -4.200   3.405  0.00  0.00    +0.173 C 
BRANCH  19  24
ATOM     20  N   UNL     1       3.300  -0.747   0.070  0.00  0.00    -0.299 N 
ATOM     21  C   UNL     1       3.127  -2.039   0.411  0.00  0.00    +0.306 C 
ATOM     22  O   UNL     1       2.717  -2.835  -0.412  0.00  0.00    -0.252 OA
ATOM     23  N   UNL     1       3.408  -2.449   1.663  0.00  0.00    -0.240 N 
ATOM     24  C   UNL     1       3.235  -3.742   2.004  0.00  0.00    +0.231 C 
ATOM     25  O   UNL     1       2.826  -4.535   1.184  0.00  0.00    -0.274 OA
ATOM     26  H   UNL     1       3.627  -0.112   0.726  0.00  0.00    +0.150 HD
ATOM     27  H   UNL     1       3.736  -1.814   2.319  0.00  0.00    +0.159 HD
BRANCH  20  29
ATOM     28  C   UNL     1       3.276   1.198  -1.413  0.00  0.00    +0.024 C 
ATOM     29  C   UNL     1       2.994  -0.301  -1.292  0.00  0.00    +0.102 C 
ENDBRANCH  20  29
ENDBRANCH  19  24
ENDBRANCH  18  19
ENDBRANCH   1  18
TORSDOF 4
