REMARK  Name = ZINC09129523
REMARK  10 active torsions:
REMARK  status: ('A' for Active; 'I' for Inactive)
REMARK    1  A    between atoms: C_1  and  C_2
REMARK    2  A    between atoms: C_2  and  C_26
REMARK    3  A    between atoms: N_5  and  C_9
REMARK    4  A    between atoms: C_9  and  N_62
REMARK    5  A    between atoms: N_12  and  S_15
REMARK    6  A    between atoms: S_15  and  C_18
REMARK    7  A    between atoms: C_23  and  C_24
REMARK    8  A    between atoms: C_26  and  C_27
REMARK    9  A    between atoms: C_32  and  O_33
REMARK   10  A    between atoms: O_33  and  C_34
REMARK                            x       y       z     vdW  Elec       q    Type
REMARK                         _______ _______ _______ _____ _____    ______ ____
ROOT
ATOM      1  C   UNL     1       2.186   5.184  -1.328  0.00  0.00    +0.043 C 
ENDROOT
BRANCH   1   6
ATOM      2  C   UNL     1       2.324   1.494   1.577  0.00  0.00    +0.042 C 
ATOM      3  C   UNL     1       1.468   1.978   0.405  0.00  0.00    +0.114 C 
ATOM      4  C   UNL     1       1.458   3.493   0.342  0.00  0.00    +0.245 C 
ATOM      5  O   UNL     1       1.046   4.257   1.188  0.00  0.00    -0.273 OA
ATOM      6  N   UNL     1       2.000   3.812  -0.850  0.00  0.00    -0.241 N 
ATOM      7  C   UNL     1       2.348   2.721  -1.542  0.00  0.00    +0.308 C 
ATOM      8  O   UNL     1       2.857   2.755  -2.645  0.00  0.00    -0.252 OA
ATOM      9  N   UNL     1       2.073   1.579  -0.878  0.00  0.00    -0.285 N 
ATOM     10  H   UNL     1       2.240   0.674  -1.184  0.00  0.00    +0.151 HD
BRANCH   3  11
ATOM     11  C   UNL     1       0.043   1.434   0.519  0.00  0.00    +0.073 C 
BRANCH  11  12
ATOM     12  C   UNL     1       0.079  -0.073   0.527  0.00  0.00    -0.003 A 
ATOM     13  C   UNL     1      -0.106  -0.775  -0.648  0.00  0.00    +0.007 A 
ATOM     14  C   UNL     1      -0.069  -2.157  -0.643  0.00  0.00    +0.000 A 
ATOM     15  C   UNL     1       0.145  -2.840   0.540  0.00  0.00    +0.004 A 
ATOM     16  C   UNL     1       0.326  -2.143   1.719  0.00  0.00    +0.046 A 
ATOM     17  C   UNL     1       0.294  -0.756   1.715  0.00  0.00    +0.123 A 
BRANCH  17  18
ATOM     18  O   UNL     1       0.472  -0.068   2.873  0.00  0.00    -0.495 OA
ATOM     19  C   UNL     1       0.688  -0.837   4.058  0.00  0.00    +0.277 C 
ENDBRANCH  17  18
ENDBRANCH  11  12
ENDBRANCH   3  11
ENDBRANCH   1   6
BRANCH   1  25
ATOM     20  C   UNL     1       3.477   6.130   0.489  0.00  0.00    -0.059 C 
ATOM     21  C   UNL     1       4.902   6.461   0.943  0.00  0.00    +0.091 C 
ATOM     22  N   UNL     1       5.486   7.417  -0.010  0.00  0.00    -0.180 NA
ATOM     23  C   UNL     1       5.428   7.093  -1.444  0.00  0.00    +0.091 C 
ATOM     24  C   UNL     1       3.982   6.736  -1.804  0.00  0.00    -0.059 C 
ATOM     25  N   UNL     1       3.524   5.651  -0.910  0.00  0.00    +0.392 N 
ATOM     26  H   UNL     1       4.184   4.867  -0.971  0.00  0.00    -0.079 HD
BRANCH  22  27
ATOM     27  S   UNL     1       6.191   8.820   0.516  0.00  0.00    +0.062 S 
ATOM     28  O   UNL     1       6.429   8.658   1.907  0.00  0.00    -0.153 OA
ATOM     29  O   UNL     1       7.230   9.123  -0.405  0.00  0.00    -0.153 OA
BRANCH  27  30
ATOM     30  C   UNL     1       4.988  10.098   0.357  0.00  0.00    +0.123 A 
ATOM     31  C   UNL     1       5.171  11.108  -0.565  0.00  0.00    +0.030 A 
ATOM     32  C   UNL     1       4.226  12.110  -0.694  0.00  0.00    +0.002 A 
ATOM     33  C   UNL     1       3.096  12.112   0.105  0.00  0.00    +0.001 A 
ATOM     34  C   UNL     1       2.903  11.111   1.034  0.00  0.00    +0.021 A 
ATOM     35  C   UNL     1       3.851  10.094   1.167  0.00  0.00    +0.078 A 
BRANCH  35  36
ATOM     36  C   UNL     1       3.658   9.052   2.129  0.00  0.00    +0.101 C 
ATOM     37  N   UNL     1       3.504   8.225   2.893  0.00  0.00    -0.191 NA
ENDBRANCH  35  36
ENDBRANCH  27  30
ENDBRANCH  22  27
ENDBRANCH   1  25
TORSDOF 8
