REMARK  Name = ZINC40512671
REMARK  7 active torsions:
REMARK  status: ('A' for Active; 'I' for Inactive)
REMARK    1  A    between atoms: C_1  and  C_2
REMARK    2  A    between atoms: N_17  and  C_20
REMARK    3  A    between atoms: C_20  and  C_21
REMARK    4  A    between atoms: C_27  and  C_31
REMARK    5  A    between atoms: C_28  and  N_30
REMARK    6  A    between atoms: C_31  and  O_33
REMARK    7  A    between atoms: O_33  and  C_34
REMARK                            x       y       z     vdW  Elec       q    Type
REMARK                         _______ _______ _______ _____ _____    ______ ____
ROOT
ATOM      1  C   UNL     1       0.047   1.488   0.011  0.00  0.00    +0.063 C 
ATOM      2  C   UNL     1       0.048  -0.019  -0.004  0.00  0.00    +0.019 A 
ATOM      3  C   UNL     1      -1.126  -0.686   0.015  0.00  0.00    +0.067 A 
ATOM      4  C   UNL     1      -1.132  -2.096   0.002  0.00  0.00    +0.142 A 
ATOM      5  C   UNL     1       0.072  -2.768  -0.028  0.00  0.00    +0.083 A 
ATOM      6  C   UNL     1       1.265  -2.034  -0.046  0.00  0.00    +0.257 A 
ATOM      7  O   UNL     1       2.338  -2.616  -0.072  0.00  0.00    -0.267 OA
ATOM      8  N   UNL     1       1.230  -0.689  -0.040  0.00  0.00    -0.326 N 
ATOM      9  H   UNL     1       2.061  -0.189  -0.058  0.00  0.00    +0.169 HD
ATOM     10  C   UNL     1       0.109  -4.269  -0.039  0.00  0.00    +0.144 C 
ATOM     11  C   UNL     1       0.533  -4.784  -1.379  0.00  0.00    -0.002 A 
ATOM     12  C   UNL     1      -0.037  -4.657  -2.628  0.00  0.00    +0.007 A 
ATOM     13  C   UNL     1       0.625  -5.268  -3.688  0.00  0.00    +0.000 A 
ATOM     14  C   UNL     1       1.798  -5.968  -3.495  0.00  0.00    +0.002 A 
ATOM     15  C   UNL     1       2.377  -6.100  -2.243  0.00  0.00    +0.024 A 
ATOM     16  C   UNL     1       1.723  -5.491  -1.170  0.00  0.00    +0.041 A 
ATOM     17  N   UNL     1       2.072  -5.461   0.168  0.00  0.00    -0.267 N 
ATOM     18  C   UNL     1       1.183  -4.766   0.907  0.00  0.00    +0.240 C 
ATOM     19  O   UNL     1       1.234  -4.575   2.104  0.00  0.00    -0.274 OA
ATOM     20  C   UNL     1      -1.224  -4.836   0.358  0.00  0.00    +0.117 C 
ATOM     21  C   UNL     1      -2.339  -4.061   0.363  0.00  0.00    +0.196 C 
ATOM     22  O   UNL     1      -2.304  -2.764   0.016  0.00  0.00    -0.441 OA
ENDROOT
BRANCH  21  23
ATOM     23  N   UNL     1      -3.534  -4.618   0.734  0.00  0.00    -0.329 N 
ATOM     24  H   UNL     1      -3.562  -5.531   1.061  0.00  0.00    +0.145 HD
ATOM     25  H   UNL     1      -4.351  -4.100   0.671  0.00  0.00    +0.145 HD
ENDBRANCH  21  23
BRANCH  20  26
ATOM     26  C   UNL     1      -1.318  -6.186   0.728  0.00  0.00    +0.341 C 
ATOM     27  O   UNL     1      -1.345  -7.052  -0.128  0.00  0.00    -0.245 OA
BRANCH  26  28
ATOM     28  O   UNL     1      -1.378  -6.525   2.034  0.00  0.00    -0.465 OA
ATOM     29  C   UNL     1      -1.473  -7.918   2.338  0.00  0.00    +0.280 C 
ENDBRANCH  26  28
ENDBRANCH  20  26
BRANCH  17  30
ATOM     30  C   UNL     1       3.266  -6.109   0.718  0.00  0.00    +0.145 C 
BRANCH  30  31
ATOM     31  C   UNL     1       4.439  -5.127   0.685  0.00  0.00    +0.136 C 
ATOM     32  C   UNL     1       5.729  -5.838   1.149  0.00  0.00    +0.035 C 
ATOM     33  C   UNL     1       6.423  -4.738   1.999  0.00  0.00    +0.031 C 
ATOM     34  C   UNL     1       5.194  -4.025   2.618  0.00  0.00    +0.160 C 
ATOM     35  O   UNL     1       4.191  -4.043   1.587  0.00  0.00    -0.375 OA
ENDBRANCH  30  31
ENDBRANCH  17  30
TORSDOF 5
