REMARK  Name = ZINC06813001
REMARK  7 active torsions:
REMARK  status: ('A' for Active; 'I' for Inactive)
REMARK    1  A    between atoms: C_1  and  C_2
REMARK    2  A    between atoms: C_5  and  C_8
REMARK    3  A    between atoms: C_8  and  C_10
REMARK    4  A    between atoms: N_14  and  C_24
REMARK    5  A    between atoms: C_15  and  C_17
REMARK    6  A    between atoms: C_21  and  O_23
REMARK    7  A    between atoms: C_24  and  C_25
REMARK                            x       y       z     vdW  Elec       q    Type
REMARK                         _______ _______ _______ _____ _____    ______ ____
ROOT
ATOM      1  C   UNL     1      -0.748   3.078  -0.160  0.00  0.00    +0.076 C 
ATOM      2  C   UNL     1      -0.635   1.745   0.045  0.00  0.00    +0.249 C 
ATOM      3  C   UNL     1       0.787   1.355  -0.063  0.00  0.00    +0.288 C 
ATOM      4  O   UNL     1       1.213   0.226   0.074  0.00  0.00    -0.266 OA
ATOM      5  N   UNL     1       1.539   2.436  -0.341  0.00  0.00    -0.276 N 
ATOM      6  C   UNL     1       0.646   3.598  -0.424  0.00  0.00    +0.145 C 
ATOM      7  O   UNL     1      -1.660   0.903   0.311  0.00  0.00    -0.282 OA
ENDROOT
BRANCH   6   8
ATOM      8  C   UNL     1       0.720   4.210  -1.800  0.00  0.00    -0.019 A 
ATOM      9  C   UNL     1       0.592   3.409  -2.920  0.00  0.00    +0.006 A 
ATOM     10  C   UNL     1       0.658   3.968  -4.183  0.00  0.00    +0.004 A 
ATOM     11  C   UNL     1       0.853   5.328  -4.328  0.00  0.00    +0.045 A 
ATOM     12  C   UNL     1       0.982   6.133  -3.206  0.00  0.00    +0.117 A 
ATOM     13  C   UNL     1       0.909   5.571  -1.940  0.00  0.00    +0.051 A 
BRANCH  12  14
ATOM     14  O   UNL     1       1.173   7.471  -3.346  0.00  0.00    -0.507 OA
ATOM     15  H   UNL     1       1.275   8.109  -2.456  0.00  0.00    +0.292 HD
ENDBRANCH  12  14
ENDBRANCH   6   8
BRANCH   1  16
ATOM     16  C   UNL     1      -1.984   3.865  -0.137  0.00  0.00    +0.195 C 
ATOM     17  O   UNL     1      -2.836   3.685  -0.987  0.00  0.00    -0.287 OA
BRANCH  16  22
ATOM     18  C   UNL     1      -2.814   7.802   3.978  0.00  0.00    +0.044 C 
ATOM     19  C   UNL     1      -2.597   6.771   2.900  0.00  0.00    -0.050 A 
ATOM     20  C   UNL     1      -3.552   6.593   1.914  0.00  0.00    +0.004 A 
ATOM     21  C   UNL     1      -3.359   5.652   0.925  0.00  0.00    +0.012 A 
ATOM     22  C   UNL     1      -2.197   4.877   0.920  0.00  0.00    +0.022 A 
ATOM     23  C   UNL     1      -1.240   5.058   1.920  0.00  0.00    +0.012 A 
ATOM     24  C   UNL     1      -1.443   6.007   2.901  0.00  0.00    +0.004 A 
ENDBRANCH  16  22
ENDBRANCH   1  16
BRANCH   5  25
ATOM     25  C   UNL     1       2.992   2.450  -0.528  0.00  0.00    +0.183 C 
BRANCH  25  26
ATOM     26  C   UNL     1       3.313   2.219  -1.983  0.00  0.00    +0.122 A 
ATOM     27  C   UNL     1       3.442   3.175  -2.921  0.00  0.00    +0.046 A 
ATOM     28  C   UNL     1       3.746   2.518  -4.135  0.00  0.00    +0.041 A 
ATOM     29  C   UNL     1       3.776   1.199  -3.868  0.00  0.00    +0.195 A 
ATOM     30  O   UNL     1       3.513   1.025  -2.563  0.00  0.00    -0.466 OA
ENDBRANCH  25  26
ENDBRANCH   5  25
TORSDOF 6
