REMARK  Name = ZINC36205984
REMARK  13 active torsions:
REMARK  status: ('A' for Active; 'I' for Inactive)
REMARK    1  A    between atoms: C_1  and  O_2
REMARK    2  A    between atoms: O_2  and  C_3
REMARK    3  A    between atoms: C_6  and  C_11
REMARK    4  A    between atoms: C_8  and  O_9
REMARK    5  A    between atoms: O_9  and  C_10
REMARK    6  A    between atoms: C_20  and  C_22
REMARK    7  A    between atoms: C_22  and  N_23
REMARK    8  A    between atoms: N_23  and  C_24
REMARK    9  A    between atoms: N_23  and  C_35
REMARK   10  A    between atoms: C_24  and  C_25
REMARK   11  A    between atoms: C_25  and  C_27
REMARK   12  A    between atoms: C_25  and  O_34
REMARK   13  A    between atoms: C_27  and  C_28
REMARK                            x       y       z     vdW  Elec       q    Type
REMARK                         _______ _______ _______ _____ _____    ______ ____
ROOT
ATOM      1  C   UNL     1       2.884  -3.347   4.224  0.00  0.00    +0.004 A 
ATOM      2  C   UNL     1       2.281  -4.298   4.976  0.00  0.00    +0.056 A 
ATOM      3  S   UNL     1       3.408  -4.522   6.339  0.00  0.00    -0.076 S 
ATOM      4  C   UNL     1       4.650  -3.344   5.871  0.00  0.00    +0.116 A 
ATOM      5  C   UNL     1       4.165  -2.809   4.667  0.00  0.00    +0.080 A 
ATOM      6  C   UNL     1       4.991  -1.815   4.053  0.00  0.00    +0.260 A 
ATOM      7  O   UNL     1       4.652  -1.288   3.007  0.00  0.00    -0.267 OA
ATOM      8  N   UNL     1       6.147  -1.469   4.648  0.00  0.00    -0.312 N 
ATOM      9  H   UNL     1       6.711  -0.795   4.236  0.00  0.00    +0.170 HD
ATOM     10  C   UNL     1       6.540  -2.044   5.813  0.00  0.00    +0.094 A 
ATOM     11  N   UNL     1       5.804  -2.947   6.402  0.00  0.00    -0.229 NA
ENDROOT
BRANCH   1  15
ATOM     12  C   UNL     1       1.083  -1.960   0.625  0.00  0.00    +0.162 A 
ATOM     13  C   UNL     1       1.532  -1.051   1.571  0.00  0.00    +0.050 A 
ATOM     14  C   UNL     1       2.116  -1.498   2.739  0.00  0.00    +0.012 A 
ATOM     15  C   UNL     1       2.256  -2.866   2.970  0.00  0.00    -0.013 A 
ATOM     16  C   UNL     1       1.804  -3.780   2.020  0.00  0.00    +0.058 A 
ATOM     17  C   UNL     1       1.215  -3.327   0.853  0.00  0.00    +0.162 A 
BRANCH  12  19
ATOM     18  C   UNL     1       0.405  -0.100  -0.692  0.00  0.00    +0.277 C 
ATOM     19  O   UNL     1       0.508  -1.515  -0.524  0.00  0.00    -0.491 OA
ENDBRANCH  12  19
BRANCH  17  20
ATOM     20  O   UNL     1       0.768  -4.217  -0.074  0.00  0.00    -0.491 OA
ATOM     21  C   UNL     1       0.936  -5.604   0.226  0.00  0.00    +0.277 C 
ENDBRANCH  17  20
ENDBRANCH   1  15
BRANCH  10  22
ATOM     22  C   UNL     1       7.843  -1.625   6.444  0.00  0.00    -0.003 C 
BRANCH  22  23
ATOM     23  N   UNL     1       8.051  -2.379   7.687  0.00  0.00    +0.388 N 
ATOM     24  H   UNL     1       7.253  -2.256   8.292  0.00  0.00    -0.081 HD
BRANCH  23  25
ATOM     25  C   UNL     1       8.212  -3.805   7.373  0.00  0.00    -0.068 C 
ATOM     26  C   UNL     1       7.167  -4.774   7.930  0.00  0.00    -0.017 C 
ATOM     27  C   UNL     1       8.577  -4.745   8.524  0.00  0.00    -0.017 C 
ENDBRANCH  23  25
BRANCH  23  28
ATOM     28  C   UNL     1       9.259  -1.887   8.362  0.00  0.00    -0.046 C 
BRANCH  28  29
ATOM     29  C   UNL     1       9.045  -0.436   8.796  0.00  0.00    +0.102 C 
BRANCH  29  30
ATOM     30  O   UNL     1       7.934  -0.365   9.693  0.00  0.00    -0.393 OA
ATOM     31  H   UNL     1       8.044  -0.891  10.497  0.00  0.00    +0.210 HD
ENDBRANCH  29  30
BRANCH  29  32
ATOM     32  C   UNL     1      10.303   0.076   9.502  0.00  0.00    +0.064 C 
BRANCH  32  33
ATOM     33  C   UNL     1      10.139   1.540   9.820  0.00  0.00    -0.045 A 
ATOM     34  C   UNL     1      10.538   2.496   8.904  0.00  0.00    +0.004 A 
ATOM     35  C   UNL     1      10.388   3.838   9.196  0.00  0.00    +0.000 A 
ATOM     36  C   UNL     1       9.839   4.226  10.404  0.00  0.00    +0.000 A 
ATOM     37  C   UNL     1       9.439   3.271  11.320  0.00  0.00    +0.000 A 
ATOM     38  C   UNL     1       9.585   1.928  11.026  0.00  0.00    +0.004 A 
ENDBRANCH  32  33
ENDBRANCH  29  32
ENDBRANCH  28  29
ENDBRANCH  23  28
ENDBRANCH  22  23
ENDBRANCH  10  22
TORSDOF 11
