REMARK  Name = ZINC27233106
REMARK  7 active torsions:
REMARK  status: ('A' for Active; 'I' for Inactive)
REMARK    1  A    between atoms: C_1  and  C_2
REMARK    2  A    between atoms: C_2  and  C_4
REMARK    3  A    between atoms: C_2  and  C_16
REMARK    4  A    between atoms: N_18  and  C_19
REMARK    5  A    between atoms: C_22  and  C_25
REMARK    6  A    between atoms: C_25  and  C_26
REMARK    7  A    between atoms: C_25  and  C_27
REMARK                            x       y       z     vdW  Elec       q    Type
REMARK                         _______ _______ _______ _____ _____    ______ ____
ROOT
ATOM      1  C   UNL     1      -0.028   1.531   0.022  0.00  0.00    +0.019 C 
ATOM      2  C   UNL     1       0.000   0.002   0.005  0.00  0.00    +0.094 C 
ENDROOT
BRANCH   2   3
ATOM      3  C   UNL     1       0.741  -0.508   1.243  0.00  0.00    +0.149 C 
ATOM      4  C   UNL     1       2.112   0.110   1.300  0.00  0.00    +0.231 C 
ATOM      5  O   UNL     1       2.260   1.115   1.963  0.00  0.00    -0.274 OA
ATOM      6  N   UNL     1       3.170  -0.386   0.664  0.00  0.00    -0.284 N 
ATOM      7  C   UNL     1       3.189  -1.518  -0.145  0.00  0.00    +0.047 A 
ATOM      8  C   UNL     1       4.202  -1.670  -1.085  0.00  0.00    +0.024 A 
ATOM      9  C   UNL     1       4.239  -2.790  -1.893  0.00  0.00    +0.002 A 
ATOM     10  C   UNL     1       3.272  -3.771  -1.777  0.00  0.00    +0.001 A 
ATOM     11  C   UNL     1       2.257  -3.632  -0.847  0.00  0.00    +0.016 A 
ATOM     12  C   UNL     1       2.214  -2.511  -0.036  0.00  0.00    +0.030 A 
ATOM     13  S   UNL     1       0.914  -2.316   1.148  0.00  0.00    -0.110 S 
ATOM     14  H   UNL     1       4.009   0.088   0.775  0.00  0.00    +0.155 HD
ENDBRANCH   2   3
BRANCH   2  15
ATOM     15  C   UNL     1      -1.411  -0.527   0.012  0.00  0.00    +0.222 C 
ATOM     16  O   UNL     1      -1.787  -1.242   0.917  0.00  0.00    -0.275 OA
ATOM     17  N   UNL     1      -2.256  -0.206  -0.988  0.00  0.00    -0.285 N 
ATOM     18  H   UNL     1      -1.977   0.418  -1.677  0.00  0.00    +0.155 HD
BRANCH  17  19
ATOM     19  C   UNL     1      -3.534  -0.773  -1.034  0.00  0.00    +0.033 A 
ATOM     20  C   UNL     1      -4.114  -1.085  -2.257  0.00  0.00    +0.023 A 
ATOM     21  C   UNL     1      -5.376  -1.644  -2.299  0.00  0.00    +0.006 A 
ATOM     22  C   UNL     1      -6.061  -1.895  -1.124  0.00  0.00    -0.045 A 
ATOM     23  C   UNL     1      -5.487  -1.586   0.095  0.00  0.00    +0.006 A 
ATOM     24  C   UNL     1      -4.223  -1.032   0.144  0.00  0.00    +0.023 A 
BRANCH  22  25
ATOM     25  C   UNL     1      -7.438  -2.506  -1.173  0.00  0.00    +0.013 C 
ATOM     26  C   UNL     1      -7.433  -3.837  -0.419  0.00  0.00    +0.012 C 
ATOM     27  C   UNL     1      -8.442  -1.554  -0.521  0.00  0.00    +0.012 C 
ENDBRANCH  22  25
ENDBRANCH  17  19
ENDBRANCH   2  15
TORSDOF 4
