REMARK  Name = ZINC00649683
REMARK  15 active torsions:
REMARK  status: ('A' for Active; 'I' for Inactive)
REMARK    1  A    between atoms: C_1  and  C_2
REMARK    2  A    between atoms: C_3  and  C_35
REMARK    3  A    between atoms: C_4  and  C_25
REMARK    4  A    between atoms: C_10  and  C_15
REMARK    5  A    between atoms: C_18  and  O_23
REMARK    6  A    between atoms: C_19  and  O_21
REMARK    7  A    between atoms: O_21  and  C_22
REMARK    8  A    between atoms: O_23  and  C_24
REMARK    9  A    between atoms: C_27  and  O_33
REMARK   10  A    between atoms: C_28  and  O_32
REMARK   11  A    between atoms: O_33  and  C_34
REMARK   12  A    between atoms: C_35  and  O_37
REMARK   13  A    between atoms: O_37  and  C_38
REMARK   14  A    between atoms: C_38  and  C_39
REMARK   15  A    between atoms: C_38  and  C_40
REMARK                            x       y       z     vdW  Elec       q    Type
REMARK                         _______ _______ _______ _____ _____    ______ ____
ROOT
ATOM      1  C   UNL     1      -0.018   1.503   0.010  0.00  0.00    +0.061 C 
ATOM      2  C   UNL     1       0.002  -0.004   0.002  0.00  0.00    +0.016 C 
ATOM      3  C   UNL     1      -1.155  -0.687   0.004  0.00  0.00    +0.065 C 
ATOM      4  C   UNL     1      -1.174  -2.188  -0.012  0.00  0.00    +0.092 C 
ATOM      5  C   UNL     1       0.164  -2.749   0.399  0.00  0.00    +0.024 C 
ATOM      6  C   UNL     1       1.272  -1.979   0.376  0.00  0.00    +0.016 C 
ATOM      7  N   UNL     1       1.198  -0.667  -0.013  0.00  0.00    -0.321 N 
ATOM      8  C   UNL     1       2.616  -2.539   0.768  0.00  0.00    +0.059 C 
ATOM      9  C   UNL     1       2.429  -3.633   1.822  0.00  0.00    +0.032 C 
ATOM     10  C   UNL     1       1.521  -4.720   1.240  0.00  0.00    +0.088 C 
ATOM     11  C   UNL     1       0.224  -4.094   0.806  0.00  0.00    +0.162 C 
ATOM     12  O   UNL     1      -0.791  -4.762   0.808  0.00  0.00    -0.292 OA
ATOM     13  H   UNL     1       2.000  -0.203  -0.298  0.00  0.00    +0.152 HD
ENDROOT
BRANCH   4  14
ATOM     14  C   UNL     1      -1.503  -2.664  -1.404  0.00  0.00    -0.030 A 
ATOM     15  C   UNL     1      -2.630  -3.436  -1.620  0.00  0.00    +0.054 A 
ATOM     16  C   UNL     1      -2.934  -3.874  -2.899  0.00  0.00    +0.163 A 
ATOM     17  C   UNL     1      -2.104  -3.536  -3.963  0.00  0.00    +0.173 A 
ATOM     18  C   UNL     1      -0.976  -2.762  -3.740  0.00  0.00    +0.063 A 
ATOM     19  C   UNL     1      -0.681  -2.323  -2.461  0.00  0.00    +0.023 A 
ATOM     20 BR   UNL     1       0.155  -2.300  -5.183  0.00  0.00    -0.046 Br
BRANCH  17  21
ATOM     21  O   UNL     1      -2.398  -3.965  -5.220  0.00  0.00    -0.503 OA
ATOM     22  H   UNL     1      -2.959  -3.357  -5.722  0.00  0.00    +0.292 HD
ENDBRANCH  17  21
BRANCH  16  23
ATOM     23  O   UNL     1      -4.041  -4.634  -3.113  0.00  0.00    -0.491 OA
ATOM     24  C   UNL     1      -4.847  -4.942  -1.974  0.00  0.00    +0.277 C 
ENDBRANCH  16  23
ENDBRANCH   4  14
BRANCH   9  25
ATOM     25  C   UNL     1       3.768  -4.225   2.181  0.00  0.00    -0.040 A 
ATOM     26  C   UNL     1       4.540  -4.826   1.204  0.00  0.00    +0.008 A 
ATOM     27  C   UNL     1       5.769  -5.370   1.528  0.00  0.00    +0.049 A 
ATOM     28  C   UNL     1       6.230  -5.314   2.833  0.00  0.00    +0.161 A 
ATOM     29  C   UNL     1       5.453  -4.708   3.816  0.00  0.00    +0.162 A 
ATOM     30  C   UNL     1       4.224  -4.160   3.484  0.00  0.00    +0.053 A 
BRANCH  29  31
ATOM     31  O   UNL     1       5.901  -4.650   5.099  0.00  0.00    -0.491 OA
ATOM     32  C   UNL     1       5.050  -4.013   6.055  0.00  0.00    +0.277 C 
ENDBRANCH  29  31
BRANCH  28  33
ATOM     33  O   UNL     1       7.438  -5.849   3.154  0.00  0.00    -0.491 OA
ATOM     34  C   UNL     1       8.180  -6.455   2.094  0.00  0.00    +0.277 C 
ENDBRANCH  28  33
ENDBRANCH   9  25
BRANCH   3  35
ATOM     35  C   UNL     1      -2.380   0.021   0.021  0.00  0.00    +0.338 C 
ATOM     36  O   UNL     1      -2.378   1.238   0.035  0.00  0.00    -0.245 OA
BRANCH  35  37
ATOM     37  O   UNL     1      -3.549  -0.652   0.024  0.00  0.00    -0.459 OA
BRANCH  37  38
ATOM     38  C   UNL     1      -4.746   0.128   0.042  0.00  0.00    +0.171 C 
ATOM     39  C   UNL     1      -5.861  -0.633  -0.679  0.00  0.00    +0.052 C 
ATOM     40  C   UNL     1      -5.162   0.390   1.491  0.00  0.00    +0.052 C 
ENDBRANCH  37  38
ENDBRANCH  35  37
ENDBRANCH   3  35
TORSDOF 9
