REMARK  Name = ZINC15101471
REMARK  15 active torsions:
REMARK  status: ('A' for Active; 'I' for Inactive)
REMARK    1  A    between atoms: C_1  and  C_2
REMARK    2  A    between atoms: C_2  and  C_3
REMARK    3  A    between atoms: C_3  and  C_4
REMARK    4  A    between atoms: C_4  and  N_5
REMARK    5  A    between atoms: N_5  and  C_6
REMARK    6  A    between atoms: C_7  and  N_22
REMARK    7  A    between atoms: N_8  and  C_15
REMARK    8  A    between atoms: C_15  and  C_16
REMARK    9  A    between atoms: C_23  and  C_25
REMARK   10  A    between atoms: C_25  and  N_68
REMARK   11  A    between atoms: C_26  and  N_68
REMARK   12  A    between atoms: C_27  and  C_28
REMARK   13  A    between atoms: C_27  and  N_68
REMARK   14  A    between atoms: C_28  and  O_29
REMARK   15  A    between atoms: O_29  and  C_30
REMARK                            x       y       z     vdW  Elec       q    Type
REMARK                         _______ _______ _______ _____ _____    ______ ____
ROOT
ATOM      1  N   UNL     1       0.924   8.749   3.370  0.00  0.00    -0.266 N 
ATOM      2  C   UNL     1       1.327   7.487   3.117  0.00  0.00    +0.203 C 
ATOM      3  O   UNL     1       1.356   6.668   4.012  0.00  0.00    -0.277 OA
ENDROOT
BRANCH   1   4
ATOM      4  C   UNL     1       0.446   9.093   4.653  0.00  0.00    +0.140 A 
ATOM      5  C   UNL     1      -0.696   8.506   5.157  0.00  0.00    +0.128 A 
ATOM      6  N   UNL     1      -1.134   8.858   6.413  0.00  0.00    -0.276 N 
ATOM      7  C   UNL     1      -0.462   9.772   7.136  0.00  0.00    +0.331 A 
ATOM      8  O   UNL     1      -0.868  10.073   8.243  0.00  0.00    -0.246 OA
ATOM      9  N   UNL     1       0.650  10.359   6.659  0.00  0.00    -0.273 N 
ATOM     10  H   UNL     1       1.131  11.035   7.217  0.00  0.00    +0.173 HD
ATOM     11  C   UNL     1       1.124  10.046   5.437  0.00  0.00    +0.277 A 
ATOM     12  O   UNL     1       2.134  10.583   5.014  0.00  0.00    -0.266 OA
BRANCH   5  13
ATOM     13  N   UNL     1      -1.386   7.577   4.415  0.00  0.00    -0.343 N 
ATOM     14  H   UNL     1      -1.049   7.301   3.549  0.00  0.00    +0.144 HD
ATOM     15  H   UNL     1      -2.210   7.198   4.759  0.00  0.00    +0.144 HD
ENDBRANCH   5  13
BRANCH   6  16
ATOM     16  C   UNL     1      -2.342   8.239   6.963  0.00  0.00    +0.163 C 
BRANCH  16  17
ATOM     17  C   UNL     1      -3.546   9.060   6.580  0.00  0.00    -0.028 A 
ATOM     18  C   UNL     1      -3.979  10.080   7.406  0.00  0.00    +0.005 A 
ATOM     19  C   UNL     1      -5.080  10.836   7.053  0.00  0.00    +0.000 A 
ATOM     20  C   UNL     1      -5.756  10.566   5.877  0.00  0.00    +0.000 A 
ATOM     21  C   UNL     1      -5.327   9.542   5.053  0.00  0.00    +0.000 A 
ATOM     22  C   UNL     1      -4.222   8.789   5.405  0.00  0.00    +0.005 A 
ENDBRANCH  16  17
ENDBRANCH   6  16
ENDBRANCH   1   4
BRANCH   1  23
ATOM     23  C   UNL     1       0.981   9.763   2.314  0.00  0.00    +0.114 C 
BRANCH  23  24
ATOM     24  C   UNL     1      -0.376   9.845   1.612  0.00  0.00    +0.019 C 
BRANCH  24  26
ATOM     25  C   UNL     1      -1.673  10.986  -0.193  0.00  0.00    +0.004 C 
ATOM     26  C   UNL     1      -0.316  10.904   0.509  0.00  0.00    -0.002 C 
ENDBRANCH  24  26
ENDBRANCH  23  24
ENDBRANCH   1  23
BRANCH   2  27
ATOM     27  C   UNL     1       1.742   7.094   1.722  0.00  0.00    +0.019 C 
BRANCH  27  29
ATOM     28  C   UNL     1       0.984   4.810   1.989  0.00  0.00    -0.095 C 
ATOM     29  N   UNL     1       2.155   5.675   1.730  0.00  0.00    +0.386 N 
ATOM     30  H   UNL     1       2.846   5.532   2.475  0.00  0.00    -0.081 HD
BRANCH  29  31
ATOM     31  C   UNL     1       2.767   5.320   0.432  0.00  0.00    -0.037 C 
BRANCH  31  32
ATOM     32  C   UNL     1       4.197   5.863   0.401  0.00  0.00    +0.210 C 
BRANCH  32  33
ATOM     33  O   UNL     1       4.967   5.239   1.431  0.00  0.00    -0.494 OA
BRANCH  33  34
ATOM     34  C   UNL     1       6.269   5.613   1.540  0.00  0.00    +0.121 A 
ATOM     35  C   UNL     1       7.074   5.047   2.518  0.00  0.00    +0.048 A 
ATOM     36  C   UNL     1       8.397   5.428   2.629  0.00  0.00    +0.042 A 
ATOM     37  C   UNL     1       8.921   6.373   1.763  0.00  0.00    +0.124 A 
ATOM     38  C   UNL     1       8.119   6.939   0.786  0.00  0.00    +0.042 A 
ATOM     39  C   UNL     1       6.795   6.561   0.674  0.00  0.00    +0.048 A 
ATOM     40  F   UNL     1      10.215   6.745   1.872  0.00  0.00    -0.205 F 
ENDBRANCH  33  34
ENDBRANCH  32  33
ENDBRANCH  31  32
ENDBRANCH  29  31
ENDBRANCH  27  29
ENDBRANCH   2  27
TORSDOF 13
