REMARK  Name = ZINC39694473
REMARK  5 active torsions:
REMARK  status: ('A' for Active; 'I' for Inactive)
REMARK    1  A    between atoms: N_4  and  C_6
REMARK    2  A    between atoms: C_6  and  C_7
REMARK    3  A    between atoms: C_7  and  N_8
REMARK    4  A    between atoms: C_9  and  C_11
REMARK    5  A    between atoms: C_22  and  C_24
REMARK                            x       y       z     vdW  Elec       q    Type
REMARK                         _______ _______ _______ _____ _____    ______ ____
ROOT
ATOM      1  C   UNL     1       4.520  -5.213  -2.202  0.00  0.00    +0.100 C 
ATOM      2  C   UNL     1       3.331  -6.197  -2.276  0.00  0.00    +0.121 C 
ATOM      3  N   UNL     1       3.179  -6.493  -3.720  0.00  0.00    -0.296 N 
ATOM      4  C   UNL     1       4.569  -6.593  -4.225  0.00  0.00    +0.115 C 
ATOM      5  C   UNL     1       5.332  -5.478  -3.481  0.00  0.00    -0.004 C 
ATOM      6  C   UNL     1       5.393  -4.218  -4.339  0.00  0.00    -0.010 C 
ATOM      7  C   UNL     1       6.252  -4.490  -5.577  0.00  0.00    -0.082 C 
ATOM      8  N   UNL     1       7.602  -4.887  -5.160  0.00  0.00    +0.379 N 
ATOM      9  C   UNL     1       7.545  -6.150  -4.413  0.00  0.00    -0.082 C 
ATOM     10  C   UNL     1       6.740  -5.948  -3.126  0.00  0.00    -0.010 C 
ATOM     11  C   UNL     1       2.035  -6.638  -4.417  0.00  0.00    +0.249 C 
ATOM     12  O   UNL     1       0.964  -6.430  -3.879  0.00  0.00    -0.270 OA
ATOM     13  H   UNL     1       8.184  -5.007  -5.976  0.00  0.00    -0.086 HD
ATOM     14  H   UNL     1       7.996  -4.168  -4.572  0.00  0.00    -0.086 HD
ENDROOT
BRANCH  11  15
ATOM     15  C   UNL     1       2.081  -7.049  -5.834  0.00  0.00    +0.072 A 
ATOM     16  C   UNL     1       3.059  -7.946  -6.272  0.00  0.00    +0.019 A 
ATOM     17  C   UNL     1       3.097  -8.327  -7.595  0.00  0.00    +0.039 A 
ATOM     18  C   UNL     1       2.168  -7.822  -8.494  0.00  0.00    +0.126 A 
ATOM     19  C   UNL     1       1.196  -6.933  -8.068  0.00  0.00    +0.077 A 
ATOM     20  C   UNL     1       1.142  -6.548  -6.742  0.00  0.00    +0.138 A 
ATOM     21  F   UNL     1       0.190  -5.684  -6.325  0.00  0.00    -0.205 F 
ATOM     22  F   UNL     1       2.212  -8.200  -9.790  0.00  0.00    -0.205 F 
ENDBRANCH  11  15
BRANCH   1  24
ATOM     23  N   UNL     1       4.729  -2.840  -1.536  0.00  0.00    -0.313 N 
ATOM     24  C   UNL     1       4.024  -3.791  -2.181  0.00  0.00    +0.218 C 
ATOM     25  O   UNL     1       2.990  -3.501  -2.745  0.00  0.00    -0.275 OA
ATOM     26  H   UNL     1       5.555  -3.072  -1.085  0.00  0.00    +0.149 HD
BRANCH  23  27
ATOM     27  C   UNL     1       4.246  -1.457  -1.515  0.00  0.00    +0.127 C 
BRANCH  27  28
ATOM     28  C   UNL     1       5.223  -0.588  -0.722  0.00  0.00    +0.162 C 
BRANCH  28  32
ATOM     29  C   UNL     1       4.079   2.757  -0.007  0.00  0.00    +0.041 A 
ATOM     30  C   UNL     1       4.030   2.750  -1.405  0.00  0.00    +0.134 A 
ATOM     31  N   UNL     1       4.426   1.575  -1.822  0.00  0.00    -0.180 NA
ATOM     32  N   UNL     1       4.740   0.795  -0.702  0.00  0.00    -0.270 N 
ATOM     33  C   UNL     1       4.519   1.543   0.400  0.00  0.00    +0.108 A 
ENDBRANCH  28  32
ENDBRANCH  27  28
ENDBRANCH  23  27
ENDBRANCH   1  24
TORSDOF 5
