REMARK  Name = ZINC40376634
REMARK  6 active torsions:
REMARK  status: ('A' for Active; 'I' for Inactive)
REMARK    1  A    between atoms: C_1  and  C_2
REMARK    2  A    between atoms: C_2  and  C_4
REMARK    3  A    between atoms: C_2  and  N_8
REMARK    4  A    between atoms: N_5  and  O_6
REMARK    5  A    between atoms: N_8  and  S_9
REMARK    6  A    between atoms: S_9  and  C_12
REMARK                            x       y       z     vdW  Elec       q    Type
REMARK                         _______ _______ _______ _____ _____    ______ ____
ROOT
ATOM      1  S   UNL     1       2.300  -0.849  -1.146  0.00  0.00    +0.062 S 
ATOM      2  O   UNL     1       2.660  -1.296  -2.446  0.00  0.00    -0.153 OA
ATOM      3  O   UNL     1       2.947   0.245  -0.511  0.00  0.00    -0.153 OA
ENDROOT
BRANCH   1   4
ATOM      4  C   UNL     1       2.478  -2.233  -0.071  0.00  0.00    +0.142 A 
ATOM      5  C   UNL     1       2.680  -2.035   1.284  0.00  0.00    +0.070 A 
ATOM      6  C   UNL     1       2.819  -3.122   2.128  0.00  0.00    +0.037 A 
ATOM      7  C   UNL     1       2.755  -4.407   1.619  0.00  0.00    +0.021 A 
ATOM      8  C   UNL     1       2.553  -4.604   0.265  0.00  0.00    +0.037 A 
ATOM      9  C   UNL     1       2.409  -3.518  -0.579  0.00  0.00    +0.070 A 
ATOM     10 CL   UNL     1       2.148  -3.766  -2.278  0.00  0.00    -0.081 Cl
ATOM     11 BR   UNL     1       2.946  -5.892   2.773  0.00  0.00    -0.050 Br
ATOM     12 CL   UNL     1       2.760  -0.423   1.923  0.00  0.00    -0.081 Cl
ENDBRANCH   1   4
BRANCH   1  13
ATOM     13  N   UNL     1       0.688  -0.476  -1.203  0.00  0.00    -0.180 NA
ATOM     14  H   UNL     1       0.197  -0.571  -2.035  0.00  0.00    +0.149 HD
BRANCH  13  16
ATOM     15  C   UNL     1      -0.019   1.526   0.010  0.00  0.00    +0.034 C 
ATOM     16  C   UNL     1       0.002  -0.004   0.002  0.00  0.00    +0.140 C 
BRANCH  16  17
ATOM     17  C   UNL     1      -1.412  -0.526   0.013  0.00  0.00    +0.150 C 
ATOM     18  N   UNL     1      -2.041  -0.664   1.133  0.00  0.00    -0.075 NA
ATOM     19  N   UNL     1      -2.033  -0.855  -1.171  0.00  0.00    -0.343 N 
ATOM     20  H   UNL     1      -1.561  -0.751  -2.012  0.00  0.00    +0.144 HD
ATOM     21  H   UNL     1      -2.943  -1.191  -1.165  0.00  0.00    +0.144 HD
BRANCH  18  22
ATOM     22  O   UNL     1      -3.369  -1.154   1.143  0.00  0.00    -0.408 OA
ATOM     23  H   UNL     1      -3.756  -1.222   2.026  0.00  0.00    +0.328 HD
ENDBRANCH  18  22
ENDBRANCH  16  17
ENDBRANCH  13  16
ENDBRANCH   1  13
TORSDOF 5
