REMARK  Name = ZINC65829232
REMARK  4 active torsions:
REMARK  status: ('A' for Active; 'I' for Inactive)
REMARK    1  A    between atoms: C_1  and  C_2
REMARK    2  A    between atoms: C_2  and  N_9
REMARK    3  A    between atoms: N_9  and  N_10
REMARK    4  A    between atoms: N_13  and  C_14
REMARK                            x       y       z     vdW  Elec       q    Type
REMARK                         _______ _______ _______ _____ _____    ______ ____
ROOT
ATOM      1  N   UNL     1      -2.103  -0.047  -1.014  0.00  0.00    -0.234 N 
ATOM      2  C   UNL     1      -3.404  -0.380  -1.136  0.00  0.00    +0.318 C 
ATOM      3  O   UNL     1      -4.050   0.030  -2.081  0.00  0.00    -0.251 OA
ATOM      4  N   UNL     1      -3.988  -1.167  -0.211  0.00  0.00    -0.268 N 
ATOM      5  H   UNL     1      -1.683   0.519  -1.679  0.00  0.00    +0.171 HD
ATOM      6  H   UNL     1      -3.457  -1.547   0.507  0.00  0.00    +0.156 HD
ENDROOT
BRANCH   4   7
ATOM      7  C   UNL     1      -5.356  -1.434  -0.285  0.00  0.00    +0.043 A 
ATOM      8  C   UNL     1      -5.974  -1.562  -1.511  0.00  0.00    +0.024 A 
ATOM      9  C   UNL     1      -7.337  -1.828  -1.596  0.00  0.00    +0.002 A 
ATOM     10  C   UNL     1      -8.097  -1.969  -0.475  0.00  0.00    +0.008 A 
ATOM     11  C   UNL     1      -7.506  -1.847   0.794  0.00  0.00    -0.016 A 
ATOM     12  C   UNL     1      -6.118  -1.582   0.893  0.00  0.00    +0.003 A 
ATOM     13  C   UNL     1      -5.527  -1.466   2.162  0.00  0.00    +0.010 A 
ATOM     14  C   UNL     1      -6.293  -1.615   3.277  0.00  0.00    +0.001 A 
ATOM     15  C   UNL     1      -7.657  -1.882   3.181  0.00  0.00    +0.001 A 
ATOM     16  C   UNL     1      -8.266  -1.988   1.968  0.00  0.00    +0.008 A 
ENDBRANCH   4   7
BRANCH   1  17
ATOM     17  N   UNL     1      -1.377  -0.508   0.048  0.00  0.00    -0.232 NA
ATOM     18  H   UNL     1      -1.409  -1.515   0.098  0.00  0.00    +0.145 HD
BRANCH  17  20
ATOM     19  C   UNL     1      -0.002   1.502  -0.006  0.00  0.00    +0.031 C 
ATOM     20  C   UNL     1       0.010  -0.028  -0.015  0.00  0.00    +0.054 C 
ATOM     21  C   UNL     1       0.631  -0.505  -1.326  0.00  0.00    +0.047 C 
ATOM     22  C   UNL     1       2.168  -0.673  -1.165  0.00  0.00    +0.168 C 
ATOM     23  S   UNL     1       2.222  -1.395   0.534  0.00  0.00    -0.029 S 
ATOM     24  O   UNL     1       3.397  -0.946   1.195  0.00  0.00    -0.174 OA
ATOM     25  O   UNL     1       1.946  -2.787   0.460  0.00  0.00    -0.174 OA
ATOM     26  C   UNL     1       0.761  -0.522   1.237  0.00  0.00    +0.189 C 
ENDBRANCH  17  20
ENDBRANCH   1  17
TORSDOF 3
