REMARK  Name = ZINC22971069
REMARK  8 active torsions:
REMARK  status: ('A' for Active; 'I' for Inactive)
REMARK    1  A    between atoms: C_1  and  C_2
REMARK    2  A    between atoms: N_5  and  C_11
REMARK    3  A    between atoms: C_7  and  C_10
REMARK    4  A    between atoms: C_11  and  C_12
REMARK    5  A    between atoms: C_12  and  N_13
REMARK    6  A    between atoms: C_14  and  C_16
REMARK    7  A    between atoms: C_18  and  C_28
REMARK    8  A    between atoms: N_19  and  C_21
REMARK                            x       y       z     vdW  Elec       q    Type
REMARK                         _______ _______ _______ _____ _____    ______ ____
ROOT
ATOM      1  C   UNL     1       0.967   7.292  -0.147  0.00  0.00    +0.237 A 
ATOM      2  N   UNL     1       0.198   6.200  -0.248  0.00  0.00    -0.202 NA
ATOM      3  C   UNL     1       0.913   5.126   0.021  0.00  0.00    +0.171 A 
ATOM      4  N   UNL     1       2.188   5.531   0.296  0.00  0.00    -0.211 N 
ATOM      5  N   UNL     1       2.191   6.930   0.180  0.00  0.00    -0.139 NA
ENDROOT
BRANCH   4   6
ATOM      6  C   UNL     1       3.276   4.713   0.628  0.00  0.00    +0.068 A 
ATOM      7  C   UNL     1       3.079   3.570   1.392  0.00  0.00    +0.030 A 
ATOM      8  C   UNL     1       4.152   2.763   1.714  0.00  0.00    +0.040 A 
ATOM      9  C   UNL     1       5.425   3.098   1.284  0.00  0.00    +0.124 A 
ATOM     10  C   UNL     1       5.624   4.240   0.526  0.00  0.00    +0.040 A 
ATOM     11  C   UNL     1       4.553   5.048   0.198  0.00  0.00    +0.030 A 
ATOM     12  F   UNL     1       6.474   2.309   1.604  0.00  0.00    -0.205 F 
ENDBRANCH   4   6
BRANCH   3  13
ATOM     13  C   UNL     1       0.425   3.737   0.018  0.00  0.00    +0.056 A 
ATOM     14  C   UNL     1      -0.867   3.274   0.028  0.00  0.00    +0.019 A 
ATOM     15  C   UNL     1      -1.081   1.916   0.017  0.00  0.00    +0.008 A 
ATOM     16  C   UNL     1      -0.013   1.076   0.008  0.00  0.00    +0.046 A 
ATOM     17  S   UNL     1       1.361   2.217   0.001  0.00  0.00    -0.094 S 
ENDBRANCH   3  13
BRANCH   1  19
ATOM     18  N   UNL     1      -0.768   8.928  -0.705  0.00  0.00    -0.308 N 
ATOM     19  C   UNL     1       0.515   8.681  -0.373  0.00  0.00    +0.283 C 
ATOM     20  O   UNL     1       1.301   9.602  -0.259  0.00  0.00    -0.267 OA
ATOM     21  H   UNL     1      -1.479   8.095  -0.808  0.00  0.00    +0.149 HD
BRANCH  18  22
ATOM     22  C   UNL     1      -1.215  10.305  -0.928  0.00  0.00    +0.120 C 
BRANCH  22  23
ATOM     23  C   UNL     1      -2.702  10.305  -1.289  0.00  0.00    +0.103 C 
BRANCH  23  27
ATOM     24  C   UNL     1      -6.342  13.206  -2.888  0.00  0.00    +0.039 C 
ATOM     25  C   UNL     1      -4.906  13.165  -2.362  0.00  0.00    +0.130 C 
ATOM     26  C   UNL     1      -4.503  11.714  -2.090  0.00  0.00    +0.115 C 
ATOM     27  N   UNL     1      -3.151  11.686  -1.513  0.00  0.00    -0.296 NA
ATOM     28  C   UNL     1      -3.099  12.466  -0.268  0.00  0.00    +0.115 C 
ATOM     29  C   UNL     1      -3.517  13.909  -0.558  0.00  0.00    +0.130 C 
ATOM     30  O   UNL     1      -4.820  13.914  -1.146  0.00  0.00    -0.371 OA
ATOM     31  C   UNL     1      -2.517  14.547  -1.525  0.00  0.00    +0.039 C 
ENDBRANCH  23  27
ENDBRANCH  22  23
ENDBRANCH  18  22
ENDBRANCH   1  19
TORSDOF 6
