REMARK  Name = ZINC36499904
REMARK  9 active torsions:
REMARK  status: ('A' for Active; 'I' for Inactive)
REMARK    1  A    between atoms: C_4  and  C_7
REMARK    2  A    between atoms: C_8  and  C_9
REMARK    3  A    between atoms: N_11  and  C_12
REMARK    4  A    between atoms: N_11  and  C_18
REMARK    5  A    between atoms: C_12  and  C_13
REMARK    6  A    between atoms: C_18  and  C_20
REMARK    7  A    between atoms: C_18  and  C_27
REMARK    8  A    between atoms: C_23  and  O_26
REMARK    9  A    between atoms: N_29  and  C_30
REMARK                            x       y       z     vdW  Elec       q    Type
REMARK                         _______ _______ _______ _____ _____    ______ ____
ROOT
ATOM      1  C   UNL     1       7.560  -2.149   0.364  0.00  0.00    +0.193 C 
ENDROOT
BRANCH   1   2
ATOM      2  C   UNL     1       7.372  -0.920   1.215  0.00  0.00    -0.018 A 
ATOM      3  C   UNL     1       6.980   0.270   0.632  0.00  0.00    +0.009 A 
ATOM      4  C   UNL     1       6.808   1.399   1.410  0.00  0.00    +0.046 A 
ATOM      5  C   UNL     1       7.028   1.337   2.778  0.00  0.00    +0.117 A 
ATOM      6  C   UNL     1       7.421   0.141   3.361  0.00  0.00    +0.046 A 
ATOM      7  C   UNL     1       7.587  -0.986   2.580  0.00  0.00    +0.009 A 
BRANCH   5   8
ATOM      8  O   UNL     1       6.860   2.446   3.545  0.00  0.00    -0.507 OA
ATOM      9  H   UNL     1       5.964   2.550   3.894  0.00  0.00    +0.292 HD
ENDBRANCH   5   8
ENDBRANCH   1   2
BRANCH   1  10
ATOM     10  C   UNL     1       8.810  -2.001  -0.464  0.00  0.00    +0.238 C 
ATOM     11  O   UNL     1       8.855  -1.176  -1.352  0.00  0.00    -0.273 OA
ATOM     12  N   UNL     1       9.878  -2.785  -0.218  0.00  0.00    -0.311 N 
ATOM     13  H   UNL     1       9.843  -3.445   0.492  0.00  0.00    +0.149 HD
BRANCH  12  14
ATOM     14  C   UNL     1      11.094  -2.641  -1.023  0.00  0.00    +0.073 C 
ATOM     15  C   UNL     1      10.962  -3.473  -2.300  0.00  0.00    +0.022 C 
ATOM     16  C   UNL     1      12.231  -3.322  -3.140  0.00  0.00    +0.002 C 
ATOM     17  C   UNL     1      13.437  -3.811  -2.336  0.00  0.00    +0.000 C 
ATOM     18  C   UNL     1      13.569  -2.979  -1.059  0.00  0.00    +0.002 C 
ATOM     19  C   UNL     1      12.300  -3.129  -0.218  0.00  0.00    +0.022 C 
ENDBRANCH  12  14
ENDBRANCH   1  10
BRANCH   1  22
ATOM     20  C   UNL     1       5.203  -2.645  -0.008  0.00  0.00    +0.293 C 
ATOM     21  O   UNL     1       5.079  -2.812   1.191  0.00  0.00    -0.260 OA
ATOM     22  N   UNL     1       6.404  -2.311  -0.521  0.00  0.00    -0.268 N 
BRANCH  20  24
ATOM     23  C   UNL     1       3.147  -2.933  -1.583  0.00  0.00    -0.057 C 
ATOM     24  C   UNL     1       4.074  -2.804  -0.874  0.00  0.00    -0.003 C 
BRANCH  23  28
ATOM     25  C   UNL     1      -0.168  -3.399  -4.123  0.00  0.00    +0.000 A 
ATOM     26  C   UNL     1       1.063  -3.055  -4.654  0.00  0.00    +0.001 A 
ATOM     27  C   UNL     1       2.156  -2.901  -3.827  0.00  0.00    +0.017 A 
ATOM     28  C   UNL     1       2.017  -3.091  -2.449  0.00  0.00    +0.025 A 
ATOM     29  C   UNL     1       0.770  -3.438  -1.920  0.00  0.00    +0.017 A 
ATOM     30  C   UNL     1      -0.313  -3.589  -2.760  0.00  0.00    +0.001 A 
ENDBRANCH  23  28
ENDBRANCH  20  24
BRANCH  22  31
ATOM     31  C   UNL     1       6.553  -2.110  -1.965  0.00  0.00    +0.184 C 
BRANCH  31  32
ATOM     32  C   UNL     1       6.095  -0.722  -2.329  0.00  0.00    +0.122 A 
ATOM     33  C   UNL     1       6.864   0.247  -2.857  0.00  0.00    +0.046 A 
ATOM     34  C   UNL     1       6.033   1.377  -3.037  0.00  0.00    +0.041 A 
ATOM     35  C   UNL     1       4.806   1.031  -2.608  0.00  0.00    +0.195 A 
ATOM     36  O   UNL     1       4.848  -0.243  -2.185  0.00  0.00    -0.466 OA
ENDBRANCH  31  32
ENDBRANCH  22  31
ENDBRANCH   1  22
TORSDOF 9
