REMARK  Name = ZINC36876024
REMARK  7 active torsions:
REMARK  status: ('A' for Active; 'I' for Inactive)
REMARK    1  A    between atoms: C_1  and  C_2
REMARK    2  A    between atoms: C_2  and  C_3
REMARK    3  A    between atoms: C_3  and  C_26
REMARK    4  A    between atoms: N_6  and  C_10
REMARK    5  A    between atoms: C_10  and  C_11
REMARK    6  A    between atoms: N_13  and  C_14
REMARK    7  A    between atoms: C_19  and  N_20
REMARK                            x       y       z     vdW  Elec       q    Type
REMARK                         _______ _______ _______ _____ _____    ______ ____
ROOT
ATOM      1  C   UNL     1       0.744  -0.516   1.243  0.00  0.00    +0.138 C 
ATOM      2  C   UNL     1       0.054  -0.044   2.508  0.00  0.00    +0.251 C 
ATOM      3  O   UNL     1      -1.073  -0.305   2.868  0.00  0.00    -0.272 OA
ATOM      4  N   UNL     1       0.956   0.725   3.149  0.00  0.00    -0.215 N 
ATOM      5  C   UNL     1       2.107   0.804   2.472  0.00  0.00    +0.310 C 
ATOM      6  O   UNL     1       3.071   1.441   2.850  0.00  0.00    -0.252 OA
ATOM      7  N   UNL     1       2.079   0.100   1.326  0.00  0.00    -0.281 N 
ATOM      8  H   UNL     1       2.798   0.015   0.681  0.00  0.00    +0.152 HD
ENDROOT
BRANCH   1   9
ATOM      9  C   UNL     1       0.854  -2.019   1.224  0.00  0.00    -0.015 A 
ATOM     10  C   UNL     1      -0.124  -2.775   0.605  0.00  0.00    +0.007 A 
ATOM     11  C   UNL     1      -0.024  -4.154   0.588  0.00  0.00    +0.020 A 
ATOM     12  C   UNL     1       1.055  -4.776   1.189  0.00  0.00    +0.041 A 
ATOM     13  C   UNL     1       2.033  -4.019   1.808  0.00  0.00    +0.020 A 
ATOM     14  C   UNL     1       1.935  -2.640   1.820  0.00  0.00    +0.007 A 
ATOM     15 CL   UNL     1       1.181  -6.508   1.168  0.00  0.00    -0.084 Cl
ENDBRANCH   1   9
BRANCH   1  17
ATOM     16  C   UNL     1      -0.038   1.513   0.012  0.00  0.00    +0.007 C 
ATOM     17  C   UNL     1      -0.003  -0.017   0.005  0.00  0.00    +0.037 C 
ENDBRANCH   1  17
BRANCH   4  18
ATOM     18  C   UNL     1       0.706   1.393   4.429  0.00  0.00    +0.214 C 
BRANCH  18  19
ATOM     19  C   UNL     1       1.105   0.479   5.559  0.00  0.00    +0.235 C 
ATOM     20  O   UNL     1       1.553  -0.622   5.319  0.00  0.00    -0.274 OA
ATOM     21  N   UNL     1       0.962   0.885   6.836  0.00  0.00    -0.282 N 
ATOM     22  H   UNL     1       0.679   1.793   7.028  0.00  0.00    +0.155 HD
BRANCH  21  23
ATOM     23  C   UNL     1       1.223  -0.004   7.886  0.00  0.00    +0.061 A 
ATOM     24  C   UNL     1       1.116  -1.372   7.682  0.00  0.00    +0.045 A 
ATOM     25  C   UNL     1       1.374  -2.247   8.721  0.00  0.00    +0.043 A 
ATOM     26  C   UNL     1       1.740  -1.762   9.965  0.00  0.00    +0.022 A 
ATOM     27  C   UNL     1       1.849  -0.401  10.175  0.00  0.00    +0.031 A 
ATOM     28  C   UNL     1       1.597   0.484   9.137  0.00  0.00    +0.088 A 
ATOM     29 CL   UNL     1       1.239  -3.959   8.464  0.00  0.00    -0.083 Cl
BRANCH  28  30
ATOM     30  N   UNL     1       1.713   1.866   9.348  0.00  0.00    -0.218 N 
ATOM     31  C   UNL     1       2.157   2.479  10.462  0.00  0.00    +0.225 A 
ATOM     32  N   UNL     1       2.112   3.771  10.259  0.00  0.00    -0.222 NA
ATOM     33  C   UNL     1       1.649   4.021   9.036  0.00  0.00    +0.245 A 
ATOM     34  N   UNL     1       1.396   2.886   8.436  0.00  0.00    -0.153 NA
ENDBRANCH  28  30
ENDBRANCH  21  23
ENDBRANCH  18  19
ENDBRANCH   4  18
TORSDOF 6
