REMARK  Name = ZINC53046185
REMARK  7 active torsions:
REMARK  status: ('A' for Active; 'I' for Inactive)
REMARK    1  A    between atoms: C_1  and  C_2
REMARK    2  A    between atoms: C_3  and  C_14
REMARK    3  A    between atoms: C_4  and  C_13
REMARK    4  A    between atoms: C_8  and  C_11
REMARK    5  A    between atoms: C_14  and  C_15
REMARK    6  A    between atoms: C_15  and  C_16
REMARK    7  A    between atoms: N_18  and  C_19
REMARK                            x       y       z     vdW  Elec       q    Type
REMARK                         _______ _______ _______ _____ _____    ______ ____
ROOT
ATOM      1  C   UNL     1      -2.898   0.360   1.456  0.00  0.00    +0.100 C 
ENDROOT
BRANCH   1   2
ATOM      2  C   UNL     1      -4.216   1.090   1.466  0.00  0.00    +0.214 C 
ATOM      3  O   UNL     1      -4.796   1.309   0.424  0.00  0.00    -0.276 OA
ATOM      4  N   UNL     1      -4.751   1.498   2.634  0.00  0.00    -0.309 N 
ATOM      5  H   UNL     1      -4.287   1.323   3.468  0.00  0.00    +0.149 HD
BRANCH   4   6
ATOM      6  C   UNL     1      -6.032   2.208   2.645  0.00  0.00    +0.115 C 
ATOM      7  C   UNL     1      -6.710   2.030   4.006  0.00  0.00    +0.064 C 
ATOM      8  C   UNL     1      -7.868   2.988   4.125  0.00  0.00    -0.004 A 
ATOM      9  C   UNL     1      -8.833   2.749   5.090  0.00  0.00    +0.007 A 
ATOM     10  C   UNL     1      -9.905   3.608   5.231  0.00  0.00    +0.000 A 
ATOM     11  C   UNL     1     -10.020   4.712   4.406  0.00  0.00    +0.004 A 
ATOM     12  C   UNL     1      -9.063   4.953   3.442  0.00  0.00    +0.046 A 
ATOM     13  C   UNL     1      -7.981   4.090   3.296  0.00  0.00    +0.124 A 
ATOM     14  O   UNL     1      -7.065   4.355   2.329  0.00  0.00    -0.490 OA
ATOM     15  C   UNL     1      -5.796   3.706   2.415  0.00  0.00    +0.251 C 
ENDBRANCH   4   6
ENDBRANCH   1   2
BRANCH   1  16
ATOM     16  C   UNL     1      -2.520   0.011   0.015  0.00  0.00    +0.048 C 
BRANCH  16  19
ATOM     17  C   UNL     1      -0.018   1.503   0.010  0.00  0.00    +0.066 C 
ATOM     18  C   UNL     1       0.002  -0.004   0.002  0.00  0.00    +0.046 A 
ATOM     19  C   UNL     1      -1.202  -0.719   0.004  0.00  0.00    -0.005 A 
ATOM     20  C   UNL     1      -1.170  -2.076  -0.004  0.00  0.00    +0.047 A 
ATOM     21  N   UNL     1       0.036  -2.712  -0.013  0.00  0.00    -0.217 N 
ATOM     22  C   UNL     1       1.190  -1.978  -0.014  0.00  0.00    +0.173 A 
ATOM     23  N   UNL     1       1.150  -0.644  -0.012  0.00  0.00    -0.232 NA
ATOM     24  C   UNL     1       2.255  -2.898  -0.025  0.00  0.00    +0.115 A 
ATOM     25  C   UNL     1       1.687  -4.183  -0.029  0.00  0.00    +0.156 A 
ATOM     26  N   UNL     1       0.384  -4.067  -0.022  0.00  0.00    -0.172 NA
ATOM     27  C   UNL     1      -2.451  -2.869  -0.001  0.00  0.00    +0.066 C 
BRANCH  24  28
ATOM     28  C   UNL     1       3.652  -2.584  -0.029  0.00  0.00    +0.104 C 
ATOM     29  N   UNL     1       4.760  -2.334  -0.033  0.00  0.00    -0.191 NA
ENDBRANCH  24  28
ENDBRANCH  16  19
ENDBRANCH   1  16
TORSDOF 5
