REMARK  Name = ZINC33529363
REMARK  9 active torsions:
REMARK  status: ('A' for Active; 'I' for Inactive)
REMARK    1  A    between atoms: C_1  and  C_2
REMARK    2  A    between atoms: C_2  and  C_3
REMARK    3  A    between atoms: C_3  and  C_5
REMARK    4  A    between atoms: C_3  and  N_6
REMARK    5  A    between atoms: N_6  and  C_7
REMARK    6  A    between atoms: C_7  and  C_8
REMARK    7  A    between atoms: C_8  and  C_9
REMARK    8  A    between atoms: N_11  and  C_12
REMARK    9  A    between atoms: N_25  and  C_26
REMARK                            x       y       z     vdW  Elec       q    Type
REMARK                         _______ _______ _______ _____ _____    ______ ____
ROOT
ATOM      1  N   UNL     1      -0.560  10.105  -1.328  0.00  0.00    -0.282 N 
ATOM      2  C   UNL     1       0.480  10.571  -2.047  0.00  0.00    +0.307 C 
ATOM      3  O   UNL     1       1.598  10.135  -1.851  0.00  0.00    -0.252 OA
ATOM      4  N   UNL     1       0.281  11.521  -2.982  0.00  0.00    -0.269 N 
ATOM      5  H   UNL     1      -0.716  11.966  -3.111  0.00  0.00    +0.156 HD
ENDROOT
BRANCH   4   6
ATOM      6  C   UNL     1       1.345  11.941  -3.790  0.00  0.00    +0.035 A 
ATOM      7  C   UNL     1       2.327  11.037  -4.172  0.00  0.00    +0.024 A 
ATOM      8  C   UNL     1       3.372  11.452  -4.974  0.00  0.00    +0.017 A 
ATOM      9  C   UNL     1       3.446  12.770  -5.388  0.00  0.00    +0.018 A 
ATOM     10  C   UNL     1       2.472  13.674  -5.004  0.00  0.00    +0.017 A 
ATOM     11  C   UNL     1       1.422  13.263  -4.207  0.00  0.00    +0.024 A 
ATOM     12 BR   UNL     1       4.882  13.337  -6.480  0.00  0.00    -0.050 Br
ENDBRANCH   4   6
BRANCH   1  13
ATOM     13  C   UNL     1      -1.923  10.543  -1.643  0.00  0.00    +0.074 C 
ATOM     14  C   UNL     1      -2.566  11.147  -0.393  0.00  0.00    +0.028 C 
BRANCH  13  16
ATOM     15  C   UNL     1      -2.096   8.729  -3.352  0.00  0.00    +0.006 C 
ATOM     16  C   UNL     1      -2.748   9.343  -2.112  0.00  0.00    +0.019 C 
ENDBRANCH  13  16
ENDBRANCH   1  13
BRANCH   1  17
ATOM     17  C   UNL     1      -0.329   9.161  -0.232  0.00  0.00    +0.119 C 
BRANCH  17  18
ATOM     18  C   UNL     1      -0.390   7.730  -0.770  0.00  0.00    +0.115 C 
BRANCH  18  19
ATOM     19  C   UNL     1      -0.152   6.759   0.358  0.00  0.00    +0.215 C 
ATOM     20  O   UNL     1       0.046   7.171   1.481  0.00  0.00    -0.276 OA
ATOM     21  N   UNL     1      -0.160   5.433   0.118  0.00  0.00    -0.308 N 
ATOM     22  H   UNL     1      -0.340   5.059  -0.901  0.00  0.00    +0.149 HD
BRANCH  21  23
ATOM     23  C   UNL     1       0.071   4.489   1.214  0.00  0.00    +0.103 C 
ATOM     24  C   UNL     1      -0.600   3.158   0.882  0.00  0.00    +0.027 C 
ATOM     25  C   UNL     1      -0.169   2.124   1.929  0.00  0.00    +0.007 C 
ATOM     26  C   UNL     1       1.309   1.803   1.710  0.00  0.00    +0.035 C 
ATOM     27  C   UNL     1       2.122   3.069   1.635  0.00  0.00    -0.042 A 
ATOM     28  C   UNL     1       1.554   4.302   1.405  0.00  0.00    -0.024 A 
ATOM     29  C   UNL     1       2.361   5.430   1.339  0.00  0.00    +0.006 A 
ATOM     30  C   UNL     1       3.726   5.326   1.513  0.00  0.00    +0.000 A 
ATOM     31  C   UNL     1       4.295   4.090   1.755  0.00  0.00    +0.000 A 
ATOM     32  C   UNL     1       3.494   2.968   1.819  0.00  0.00    +0.004 A 
ENDBRANCH  21  23
ENDBRANCH  18  19
ENDBRANCH  17  18
ENDBRANCH   1  17
TORSDOF 7
