REMARK  Name = ZINC35051105
REMARK  6 active torsions:
REMARK  status: ('A' for Active; 'I' for Inactive)
REMARK    1  A    between atoms: C_7  and  C_11
REMARK    2  A    between atoms: C_11  and  C_12
REMARK    3  A    between atoms: C_12  and  C_14
REMARK    4  A    between atoms: C_12  and  N_32
REMARK    5  A    between atoms: C_21  and  C_28
REMARK    6  A    between atoms: C_23  and  O_24
REMARK                            x       y       z     vdW  Elec       q    Type
REMARK                         _______ _______ _______ _____ _____    ______ ____
ROOT
ATOM      1  C   UNL     1      -0.179  -5.240  -2.564  0.00  0.00    +0.203 C 
ATOM      2  O   UNL     1      -1.384  -5.059  -2.571  0.00  0.00    -0.277 OA
ATOM      3  N   UNL     1       0.311  -6.397  -2.164  0.00  0.00    -0.287 N 
ATOM      4  C   UNL     1      -0.527  -7.433  -1.887  0.00  0.00    +0.037 A 
ATOM      5  C   UNL     1      -0.062  -8.528  -1.137  0.00  0.00    +0.024 A 
ATOM      6  C   UNL     1      -0.890  -9.568  -0.854  0.00  0.00    +0.014 A 
ATOM      7  C   UNL     1      -2.219  -9.552  -1.311  0.00  0.00    +0.029 A 
ATOM      8  C   UNL     1      -3.094 -10.621  -1.027  0.00  0.00    +0.072 A 
ATOM      9  C   UNL     1      -4.390 -10.556  -1.499  0.00  0.00    +0.100 A 
ATOM     10  C   UNL     1      -4.804  -9.456  -2.235  0.00  0.00    +0.285 A 
ATOM     11  O   UNL     1      -3.971  -8.444  -2.502  0.00  0.00    -0.425 OA
ATOM     12  C   UNL     1      -2.695  -8.456  -2.065  0.00  0.00    +0.141 A 
ATOM     13  C   UNL     1      -1.846  -7.400  -2.344  0.00  0.00    +0.070 A 
ATOM     14  H   UNL     1       1.270  -6.510  -2.067  0.00  0.00    +0.155 HD
ENDROOT
BRANCH   8  15
ATOM     15  C   UNL     1      -2.624 -11.809  -0.227  0.00  0.00    +0.418 C 
ATOM     16  F   UNL     1      -2.550 -11.459   1.126  0.00  0.00    -0.166 F 
ATOM     17  F   UNL     1      -3.527 -12.865  -0.386  0.00  0.00    -0.166 F 
ATOM     18  F   UNL     1      -1.360 -12.204  -0.676  0.00  0.00    -0.166 F 
ENDBRANCH   8  15
BRANCH  10  19
ATOM     19  O   UNL     1      -6.071  -9.405  -2.689  0.00  0.00    -0.480 OA
ATOM     20  H   UNL     1      -6.277  -8.604  -3.192  0.00  0.00    +0.295 HD
ENDBRANCH  10  19
BRANCH   1  21
ATOM     21  C   UNL     1       0.750  -4.142  -3.012  0.00  0.00    +0.017 C 
BRANCH  21  22
ATOM     22  N   UNL     1       0.007  -3.177  -3.834  0.00  0.00    +0.386 N 
ATOM     23  H   UNL     1       0.630  -2.442  -4.134  0.00  0.00    -0.089 HD
ATOM     24  H   UNL     1      -0.373  -3.646  -4.642  0.00  0.00    -0.089 HD
ATOM     25  H   UNL     1      -0.744  -2.780  -3.290  0.00  0.00    -0.089 HD
ENDBRANCH  21  22
BRANCH  21  26
ATOM     26  C   UNL     1       1.327  -3.430  -1.786  0.00  0.00    +0.030 C 
BRANCH  26  33
ATOM     27  C   UNL     1       1.009   1.016  -3.236  0.00  0.00    +0.001 A 
ATOM     28  C   UNL     1       2.242   1.573  -3.548  0.00  0.00    +0.002 A 
ATOM     29  C   UNL     1       3.398   0.835  -3.420  0.00  0.00    +0.026 A 
ATOM     30  C   UNL     1       3.333  -0.481  -2.975  0.00  0.00    +0.047 A 
ATOM     31  C   UNL     1       2.081  -1.040  -2.660  0.00  0.00    +0.003 A 
ATOM     32  C   UNL     1       0.921  -0.275  -2.797  0.00  0.00    +0.010 A 
ATOM     33  C   UNL     1       2.349  -2.415  -2.230  0.00  0.00    -0.023 A 
ATOM     34  C   UNL     1       3.676  -2.598  -2.305  0.00  0.00    +0.087 A 
ATOM     35  N   UNL     1       4.281  -1.453  -2.748  0.00  0.00    -0.360 N 
ATOM     36  H   UNL     1       5.235  -1.343  -2.883  0.00  0.00    +0.165 HD
ENDBRANCH  26  33
ENDBRANCH  21  26
ENDBRANCH   1  21
TORSDOF 6
