REMARK  Name = ZINC67595586
REMARK  7 active torsions:
REMARK  status: ('A' for Active; 'I' for Inactive)
REMARK    1  A    between atoms: C_1  and  C_2
REMARK    2  A    between atoms: C_15  and  C_17
REMARK    3  A    between atoms: N_19  and  C_20
REMARK    4  A    between atoms: N_19  and  C_21
REMARK    5  A    between atoms: C_21  and  C_22
REMARK    6  A    between atoms: C_22  and  C_24
REMARK    7  A    between atoms: C_22  and  C_25
REMARK                            x       y       z     vdW  Elec       q    Type
REMARK                         _______ _______ _______ _____ _____    ______ ____
ROOT
ATOM      1  C   UNL     1      -0.035   0.562  -0.559  0.00  0.00    +0.029 C 
ATOM      2  C   UNL     1       0.028  -0.940  -0.271  0.00  0.00    +0.088 C 
ATOM      3  C   UNL     1       0.774  -1.644  -1.405  0.00  0.00    +0.118 C 
ATOM      4  C   UNL     1       1.193  -3.024  -0.971  0.00  0.00    +0.219 C 
ATOM      5  O   UNL     1       0.589  -3.993  -1.379  0.00  0.00    -0.275 OA
ATOM      6  N   UNL     1       2.237  -3.188  -0.130  0.00  0.00    -0.284 N 
ATOM      7  C   UNL     1       2.884  -2.078   0.424  0.00  0.00    +0.055 A 
ATOM      8  C   UNL     1       4.264  -1.967   0.387  0.00  0.00    +0.025 A 
ATOM      9  C   UNL     1       4.882  -0.872   0.962  0.00  0.00    +0.002 A 
ATOM     10  C   UNL     1       4.127   0.113   1.574  0.00  0.00    +0.002 A 
ATOM     11  C   UNL     1       2.749   0.015   1.607  0.00  0.00    +0.025 A 
ATOM     12  C   UNL     1       2.121  -1.075   1.024  0.00  0.00    +0.058 A 
ATOM     13  N   UNL     1       0.726  -1.163   0.997  0.00  0.00    -0.259 N 
ATOM     14  C   UNL     1       0.036  -1.448   2.119  0.00  0.00    +0.306 C 
ATOM     15  O   UNL     1      -1.175  -1.522   2.085  0.00  0.00    -0.265 OA
ATOM     16  H   UNL     1       2.542  -4.083   0.091  0.00  0.00    +0.155 HD
ENDROOT
BRANCH  14  17
ATOM     17  C   UNL     1       0.762  -1.674   3.404  0.00  0.00    +0.302 C 
ATOM     18  O   UNL     1       1.975  -1.708   3.418  0.00  0.00    -0.265 OA
ATOM     19  N   UNL     1       0.070  -1.839   4.549  0.00  0.00    -0.296 N 
ATOM     20  C   UNL     1      -1.395  -1.880   4.520  0.00  0.00    +0.132 C 
BRANCH  19  21
ATOM     21  C   UNL     1       0.781  -1.978   5.822  0.00  0.00    +0.115 C 
BRANCH  21  22
ATOM     22  C   UNL     1       0.986  -0.595   6.445  0.00  0.00    +0.033 C 
ATOM     23  C   UNL     1       1.910   0.235   5.553  0.00  0.00    +0.014 C 
BRANCH  22  24
ATOM     24  C   UNL     1       1.607  -0.747   7.809  0.00  0.00    -0.043 A 
ATOM     25  C   UNL     1       2.842  -1.354   7.943  0.00  0.00    +0.004 A 
ATOM     26  C   UNL     1       3.412  -1.492   9.195  0.00  0.00    +0.000 A 
ATOM     27  C   UNL     1       2.748  -1.023  10.313  0.00  0.00    +0.000 A 
ATOM     28  C   UNL     1       1.514  -0.415  10.179  0.00  0.00    +0.000 A 
ATOM     29  C   UNL     1       0.945  -0.273   8.927  0.00  0.00    +0.004 A 
ENDBRANCH  22  24
ENDBRANCH  21  22
ENDBRANCH  19  21
ENDBRANCH  14  17
TORSDOF 4
