REMARK  Name = ZINC63440306
REMARK  11 active torsions:
REMARK  status: ('A' for Active; 'I' for Inactive)
REMARK    1  A    between atoms: C_1  and  C_2
REMARK    2  A    between atoms: C_4  and  N_11
REMARK    3  A    between atoms: C_6  and  C_8
REMARK    4  A    between atoms: C_8  and  C_9
REMARK    5  A    between atoms: C_8  and  C_10
REMARK    6  A    between atoms: C_12  and  C_14
REMARK    7  A    between atoms: C_14  and  C_15
REMARK    8  A    between atoms: C_15  and  C_16
REMARK    9  A    between atoms: C_17  and  C_28
REMARK   10  A    between atoms: C_20  and  C_26
REMARK   11  A    between atoms: C_24  and  C_25
REMARK                            x       y       z     vdW  Elec       q    Type
REMARK                         _______ _______ _______ _____ _____    ______ ____
ROOT
ATOM      1  C   UNL     1      -0.196  -3.022  -4.783  0.00  0.00    +0.101 C 
ENDROOT
BRANCH   1   3
ATOM      2  N   UNL     1       0.029  -2.834  -2.327  0.00  0.00    -0.270 N 
ATOM      3  C   UNL     1      -0.087  -2.212  -3.517  0.00  0.00    +0.219 C 
ATOM      4  O   UNL     1      -0.104  -1.001  -3.569  0.00  0.00    -0.275 OA
ATOM      5  H   UNL     1       0.117  -3.799  -2.290  0.00  0.00    +0.156 HD
BRANCH   2   9
ATOM      6  C   UNL     1       0.044  -2.587   2.594  0.00  0.00    +0.066 C 
ATOM      7  C   UNL     1       0.030  -1.947   1.229  0.00  0.00    +0.044 A 
ATOM      8  C   UNL     1       0.037  -2.729   0.089  0.00  0.00    +0.067 A 
ATOM      9  C   UNL     1       0.023  -2.091  -1.151  0.00  0.00    +0.129 A 
ATOM     10  N   UNL     1       0.005  -0.763  -1.192  0.00  0.00    -0.217 NA
ATOM     11  C   UNL     1       0.000  -0.056  -0.080  0.00  0.00    +0.134 A 
ATOM     12  N   UNL     1       0.007  -0.628   1.107  0.00  0.00    -0.237 NA
BRANCH  11  13
ATOM     13  C   UNL     1      -0.020   1.448  -0.169  0.00  0.00    +0.051 C 
ATOM     14  C   UNL     1       1.220   1.932  -0.923  0.00  0.00    +0.015 C 
ATOM     15  C   UNL     1      -1.278   1.898  -0.914  0.00  0.00    +0.015 C 
ENDBRANCH  11  13
ENDBRANCH   2   9
ENDBRANCH   1   3
BRANCH   1  16
ATOM     16  C   UNL     1      -0.316  -2.080  -5.982  0.00  0.00    +0.048 C 
BRANCH  16  17
ATOM     17  C   UNL     1      -0.425  -2.891  -7.248  0.00  0.00    -0.005 A 
ATOM     18  C   UNL     1       0.729  -3.353  -7.893  0.00  0.00    +0.046 A 
ATOM     19  N   UNL     1       0.629  -4.060  -8.997  0.00  0.00    -0.232 NA
ATOM     20  C   UNL     1      -0.564  -4.348  -9.520  0.00  0.00    +0.173 A 
ATOM     21  C   UNL     1      -0.951  -5.070 -10.665  0.00  0.00    +0.115 A 
ATOM     22  C   UNL     1      -2.355  -5.042 -10.711  0.00  0.00    +0.156 A 
ATOM     23  N   UNL     1      -2.797  -4.364  -9.684  0.00  0.00    -0.172 NA
ATOM     24  N   UNL     1      -1.713  -3.916  -8.920  0.00  0.00    -0.217 N 
ATOM     25  C   UNL     1      -1.643  -3.185  -7.771  0.00  0.00    +0.047 A 
ATOM     26  C   UNL     1      -2.900  -2.704  -7.093  0.00  0.00    +0.066 C 
ATOM     27  C   UNL     1       2.087  -3.038  -7.321  0.00  0.00    +0.066 C 
BRANCH  21  28
ATOM     28  C   UNL     1      -0.079  -5.709 -11.604  0.00  0.00    +0.104 C 
ATOM     29  N   UNL     1       0.612  -6.216 -12.350  0.00  0.00    -0.191 NA
ENDBRANCH  21  28
ENDBRANCH  16  17
ENDBRANCH   1  16
TORSDOF 6
