REMARK  Name = ZINC65181561
REMARK  7 active torsions:
REMARK  status: ('A' for Active; 'I' for Inactive)
REMARK    1  A    between atoms: C_1  and  N_2
REMARK    2  A    between atoms: C_6  and  C_7
REMARK    3  A    between atoms: N_9  and  C_10
REMARK    4  A    between atoms: N_9  and  C_11
REMARK    5  A    between atoms: C_11  and  C_12
REMARK    6  A    between atoms: C_12  and  C_13
REMARK    7  A    between atoms: C_16  and  C_19
REMARK                            x       y       z     vdW  Elec       q    Type
REMARK                         _______ _______ _______ _____ _____    ______ ____
ROOT
ATOM      1  C   UNL     1       1.935   1.954   5.567  0.00  0.00    +0.139 C 
ATOM      2  N   UNL     1       1.108   2.265   6.497  0.00  0.00    -0.072 NA
ATOM      3  O   UNL     1       1.791   2.691   7.662  0.00  0.00    -0.367 OA
ATOM      4  C   UNL     1       3.193   2.613   7.359  0.00  0.00    +0.318 C 
ATOM      5  N   UNL     1       3.238   2.119   5.973  0.00  0.00    -0.291 N 
ATOM      6  H   UNL     1       4.034   1.945   5.447  0.00  0.00    +0.151 HD
ENDROOT
BRANCH   4   7
ATOM      7  C   UNL     1       3.840   3.995   7.463  0.00  0.00    +0.165 C 
ATOM      8  C   UNL     1       5.320   3.901   7.166  0.00  0.00    +0.012 C 
ATOM      9  C   UNL     1       5.954   4.320   8.285  0.00  0.00    -0.004 A 
ATOM     10  C   UNL     1       7.374   4.461   8.629  0.00  0.00    +0.010 A 
ATOM     11  C   UNL     1       7.709   4.916   9.858  0.00  0.00    +0.001 A 
ATOM     12  C   UNL     1       6.737   5.256  10.809  0.00  0.00    +0.002 A 
ATOM     13  C   UNL     1       5.413   5.153  10.566  0.00  0.00    +0.026 A 
ATOM     14  C   UNL     1       4.947   4.685   9.306  0.00  0.00    +0.043 A 
ATOM     15  N   UNL     1       3.735   4.500   8.837  0.00  0.00    -0.373 N 
ATOM     16  H   UNL     1       2.909   4.669   9.316  0.00  0.00    +0.160 HD
ENDBRANCH   4   7
BRANCH   1  17
ATOM     17  C   UNL     1       1.529   1.462   4.201  0.00  0.00    +0.094 C 
BRANCH  17  18
ATOM     18  C   UNL     1       0.002   1.406   4.113  0.00  0.00    +0.115 C 
BRANCH  18  21
ATOM     19  C   UNL     1      -0.557  -0.391   2.565  0.00  0.00    +0.263 C 
ATOM     20  O   UNL     1      -0.514  -1.173   3.497  0.00  0.00    -0.268 OA
ATOM     21  N   UNL     1      -0.393   0.929   2.785  0.00  0.00    -0.299 N 
ATOM     22  C   UNL     1      -0.610   1.885   1.697  0.00  0.00    +0.132 C 
BRANCH  19  28
ATOM     23  C   UNL     1      -0.678  -3.362   1.696  0.00  0.00    +0.149 C 
ATOM     24  N   UNL     1      -0.842  -2.204   0.814  0.00  0.00    -0.346 N 
ATOM     25  C   UNL     1      -1.078  -2.252  -0.519  0.00  0.00    +0.086 A 
ATOM     26  C   UNL     1      -1.170  -0.988  -0.995  0.00  0.00    +0.020 A 
ATOM     27  C   UNL     1      -0.986  -0.111   0.079  0.00  0.00    +0.032 A 
ATOM     28  C   UNL     1      -0.788  -0.884   1.204  0.00  0.00    +0.104 A 
ENDBRANCH  19  28
ENDBRANCH  18  21
ENDBRANCH  17  18
ENDBRANCH   1  17
TORSDOF 5
