REMARK  Name = ZINC15007712
REMARK  8 active torsions:
REMARK  status: ('A' for Active; 'I' for Inactive)
REMARK    1  A    between atoms: C_1  and  N_2
REMARK    2  A    between atoms: C_5  and  N_8
REMARK    3  A    between atoms: C_10  and  N_19
REMARK    4  A    between atoms: C_13  and  C_15
REMARK    5  A    between atoms: C_15  and  O_17
REMARK    6  A    between atoms: O_17  and  C_18
REMARK    7  A    between atoms: C_20  and  C_22
REMARK    8  A    between atoms: C_23  and  C_33
REMARK                            x       y       z     vdW  Elec       q    Type
REMARK                         _______ _______ _______ _____ _____    ______ ____
ROOT
ATOM      1  N   UNL     1      -0.950  -2.438   0.873  0.00  0.00    -0.309 N 
ATOM      2  C   UNL     1      -1.005  -1.097   0.996  0.00  0.00    +0.261 C 
ATOM      3  O   UNL     1      -2.045  -0.507   0.767  0.00  0.00    -0.269 OA
ATOM      4  H   UNL     1      -0.010  -2.971   1.079  0.00  0.00    +0.149 HD
ENDROOT
BRANCH   2   5
ATOM      5  C   UNL     1       0.188  -0.348   1.406  0.00  0.00    +0.111 A 
ATOM      6  C   UNL     1       0.259   1.024   1.567  0.00  0.00    +0.020 A 
ATOM      7  C   UNL     1       1.635   1.323   1.982  0.00  0.00    +0.010 A 
ATOM      8  C   UNL     1       2.312   2.505   2.292  0.00  0.00    +0.030 A 
ATOM      9  C   UNL     1       3.628   2.459   2.655  0.00  0.00    +0.042 A 
ATOM     10  C   UNL     1       4.300   1.244   2.716  0.00  0.00    +0.022 A 
ATOM     11  C   UNL     1       3.652   0.067   2.414  0.00  0.00    +0.027 A 
ATOM     12  C   UNL     1       2.310   0.090   2.042  0.00  0.00    +0.048 A 
ATOM     13  N   UNL     1       1.420  -0.898   1.692  0.00  0.00    -0.350 N 
ATOM     14  H   UNL     1       1.566  -1.986   1.620  0.00  0.00    +0.166 HD
ATOM     15 CL   UNL     1       4.468   3.928   3.040  0.00  0.00    -0.084 Cl
BRANCH   6  16
ATOM     16  C   UNL     1      -0.835   1.998   1.358  0.00  0.00    -0.015 A 
ATOM     17  C   UNL     1      -0.739   2.951   0.343  0.00  0.00    +0.008 A 
ATOM     18  C   UNL     1      -1.765   3.853   0.149  0.00  0.00    +0.001 A 
ATOM     19  C   UNL     1      -2.882   3.821   0.966  0.00  0.00    +0.000 A 
ATOM     20  C   UNL     1      -2.980   2.882   1.977  0.00  0.00    +0.001 A 
ATOM     21  C   UNL     1      -1.964   1.971   2.178  0.00  0.00    +0.008 A 
ENDBRANCH   6  16
ENDBRANCH   2   5
BRANCH   1  24
ATOM     22  N   UNL     1      -2.897  -5.386  -0.121  0.00  0.00    +0.392 N 
ATOM     23  C   UNL     1      -2.008  -4.685   0.830  0.00  0.00    -0.055 C 
ATOM     24  C   UNL     1      -2.141  -3.186   0.464  0.00  0.00    +0.056 C 
ATOM     25  C   UNL     1      -2.253  -3.249  -1.083  0.00  0.00    +0.016 C 
ATOM     26  C   UNL     1      -3.062  -4.543  -1.319  0.00  0.00    +0.045 C 
ATOM     27  H   UNL     1      -3.878  -5.561   0.344  0.00  0.00    -0.080 HD
BRANCH  22  32
ATOM     28  C   UNL     1      -2.074 -10.970  -0.499  0.00  0.00    +0.104 C 
ATOM     29  N   UNL     1      -2.479  -9.580  -0.253  0.00  0.00    -0.305 NA
ATOM     30  C   UNL     1      -1.413  -8.833   0.426  0.00  0.00    +0.082 C 
ATOM     31  C   UNL     1      -1.921  -7.438   0.796  0.00  0.00    +0.000 C 
ATOM     32  C   UNL     1      -2.354  -6.704  -0.476  0.00  0.00    -0.065 C 
ATOM     33  C   UNL     1      -3.430  -7.526  -1.189  0.00  0.00    +0.000 C 
ATOM     34  C   UNL     1      -2.878  -8.919  -1.502  0.00  0.00    +0.082 C 
ENDBRANCH  22  32
BRANCH  26  35
ATOM     35  C   UNL     1      -2.531  -5.264  -2.531  0.00  0.00    +0.293 C 
ATOM     36  O   UNL     1      -1.357  -5.544  -2.602  0.00  0.00    -0.253 OA
BRANCH  35  37
ATOM     37  O   UNL     1      -3.361  -5.596  -3.532  0.00  0.00    -0.469 OA
ATOM     38  C   UNL     1      -2.781  -6.290  -4.668  0.00  0.00    +0.280 C 
ENDBRANCH  35  37
ENDBRANCH  26  35
ENDBRANCH   1  24
TORSDOF 6
