REMARK  Name = ZINC31671793
REMARK  3 active torsions:
REMARK  status: ('A' for Active; 'I' for Inactive)
REMARK    1  A    between atoms: N_5  and  C_11
REMARK    2  A    between atoms: C_7  and  N_8
REMARK    3  A    between atoms: C_11  and  C_12
REMARK                            x       y       z     vdW  Elec       q    Type
REMARK                         _______ _______ _______ _____ _____    ______ ____
ROOT
ATOM      1  C   UNL     1       4.071  -0.980   1.379  0.00  0.00    +0.131 A 
ATOM      2  N   UNL     1       5.232  -1.651   1.598  0.00  0.00    -0.309 N 
ATOM      3  H   UNL     1       5.757  -1.952   0.840  0.00  0.00    +0.170 HD
ATOM      4  C   UNL     1       5.669  -1.905   2.846  0.00  0.00    +0.260 A 
ATOM      5  O   UNL     1       6.713  -2.507   3.028  0.00  0.00    -0.267 OA
ATOM      6  C   UNL     1       4.884  -1.453   3.957  0.00  0.00    +0.075 A 
ATOM      7  C   UNL     1       5.164  -1.616   5.391  0.00  0.00    -0.023 A 
ATOM      8  C   UNL     1       4.266  -1.101   6.248  0.00  0.00    -0.004 A 
ATOM      9  S   UNL     1       3.012  -0.373   5.217  0.00  0.00    -0.073 S 
ATOM     10  C   UNL     1       3.704  -0.771   3.633  0.00  0.00    +0.116 A 
ATOM     11  N   UNL     1       3.338  -0.552   2.372  0.00  0.00    -0.225 NA
ATOM     12  C   UNL     1       4.652  -1.331   7.684  0.00  0.00    +0.043 C 
ATOM     13  C   UNL     1       5.716  -2.450   7.624  0.00  0.00    +0.010 C 
ATOM     14  C   UNL     1       6.289  -2.262   6.205  0.00  0.00    +0.037 C 
ENDROOT
BRANCH   1  15
ATOM     15  C   UNL     1       3.623  -0.720  -0.036  0.00  0.00    +0.199 C 
BRANCH  15  20
ATOM     16  C   UNL     1      -0.017   1.398   0.010  0.00  0.00    +0.039 A 
ATOM     17  C   UNL     1       1.164   2.081   0.002  0.00  0.00    +0.072 A 
ATOM     18  C   UNL     1       2.373   1.364  -0.013  0.00  0.00    +0.252 A 
ATOM     19  O   UNL     1       3.437   1.963  -0.020  0.00  0.00    -0.268 OA
ATOM     20  N   UNL     1       2.358   0.018  -0.020  0.00  0.00    -0.306 N 
ATOM     21  C   UNL     1       1.184  -0.664  -0.012  0.00  0.00    +0.122 A 
ATOM     22  C   UNL     1       0.002  -0.004   0.002  0.00  0.00    +0.142 A 
BRANCH  22  23
ATOM     23  N   UNL     1      -1.269  -0.762   0.010  0.00  0.00    +0.058 N 
ATOM     24  O   UNL     1      -1.252  -1.971   0.003  0.00  0.00    -0.126 OA
ATOM     25  O   UNL     1      -2.325  -0.172   0.023  0.00  0.00    -0.126 OA
ENDBRANCH  22  23
ENDBRANCH  15  20
ENDBRANCH   1  15
TORSDOF 3
