REMARK  Name = ZINC39275448
REMARK  6 active torsions:
REMARK  status: ('A' for Active; 'I' for Inactive)
REMARK    1  A    between atoms: C_1  and  C_2
REMARK    2  A    between atoms: C_3  and  C_33
REMARK    3  A    between atoms: C_14  and  C_19
REMARK    4  A    between atoms: C_16  and  C_18
REMARK    5  A    between atoms: C_19  and  C_20
REMARK    6  A    between atoms: N_22  and  C_23
REMARK                            x       y       z     vdW  Elec       q    Type
REMARK                         _______ _______ _______ _____ _____    ______ ____
ROOT
ATOM      1  C   UNL     1       0.037   1.493  -0.033  0.00  0.00    +0.048 C 
ATOM      2  C   UNL     1       0.101  -0.012  -0.064  0.00  0.00    -0.002 A 
ATOM      3  C   UNL     1       0.167  -0.792  -1.151  0.00  0.00    +0.106 A 
ATOM      4  O   UNL     1       0.211  -2.087  -0.790  0.00  0.00    -0.460 OA
ATOM      5  C   UNL     1       0.176  -2.214   0.552  0.00  0.00    +0.139 A 
ATOM      6  C   UNL     1       0.109  -0.918   1.092  0.00  0.00    +0.024 A 
ATOM      7  C   UNL     1       0.063  -0.739   2.471  0.00  0.00    +0.019 A 
ATOM      8  C   UNL     1       0.090  -1.825   3.310  0.00  0.00    -0.001 A 
ATOM      9  C   UNL     1       0.167  -3.108   2.784  0.00  0.00    +0.139 A 
ATOM     10  C   UNL     1       0.200  -3.303   1.410  0.00  0.00    +0.093 A 
ATOM     11  O   UNL     1       0.217  -4.207   3.586  0.00  0.00    -0.425 OA
ATOM     12  C   UNL     1      -0.032  -4.033   4.899  0.00  0.00    +0.316 C 
ATOM     13  O   UNL     1      -0.696  -4.823   5.528  0.00  0.00    -0.250 OA
ATOM     14  C   UNL     1       0.561  -2.799   5.550  0.00  0.00    +0.114 C 
ATOM     15  C   UNL     1       0.028  -1.577   4.796  0.00  0.00    +0.034 C 
ATOM     16  C   UNL     1       0.880  -0.354   5.144  0.00  0.00    +0.013 C 
ATOM     17  C   UNL     1       0.190  -0.291  -2.572  0.00  0.00    +0.086 C 
ENDROOT
BRANCH  14  18
ATOM     18  C   UNL     1       2.087  -2.845   5.456  0.00  0.00    +0.111 C 
BRANCH  18  19
ATOM     19  C   UNL     1       2.606  -4.005   6.265  0.00  0.00    +0.218 C 
ATOM     20  O   UNL     1       1.831  -4.725   6.859  0.00  0.00    -0.275 OA
ATOM     21  N   UNL     1       3.931  -4.243   6.329  0.00  0.00    -0.285 N 
ATOM     22  H   UNL     1       4.545  -3.713   5.798  0.00  0.00    +0.155 HD
BRANCH  21  23
ATOM     23  C   UNL     1       4.416  -5.247   7.155  0.00  0.00    +0.033 C 
ATOM     24  C   UNL     1       5.342  -4.950   8.132  0.00  0.00    +0.029 C 
ATOM     25  C   UNL     1       5.717  -6.028   8.942  0.00  0.00    -0.016 C 
ATOM     26  C   UNL     1       6.860  -6.333   9.588  0.00  0.00    +0.025 C 
ATOM     27  C   UNL     1       6.806  -7.671  10.025  0.00  0.00    +0.106 C 
ATOM     28  N   UNL     1       5.649  -8.223   9.782  0.00  0.00    -0.279 NA
ATOM     29  C   UNL     1       4.785  -7.197   9.215  0.00  0.00    +0.158 C 
ATOM     30  C   UNL     1       4.125  -7.566   7.921  0.00  0.00    +0.006 C 
ATOM     31  C   UNL     1       3.942  -6.624   6.994  0.00  0.00    +0.021 C 
ENDBRANCH  21  23
ENDBRANCH  18  19
ENDBRANCH  14  18
TORSDOF 3
