REMARK  Name = ZINC03542902
REMARK  13 active torsions:
REMARK  status: ('A' for Active; 'I' for Inactive)
REMARK    1  A    between atoms: C_1  and  C_2
REMARK    2  A    between atoms: C_3  and  C_31
REMARK    3  A    between atoms: N_9  and  C_27
REMARK    4  A    between atoms: C_10  and  S_12
REMARK    5  A    between atoms: S_12  and  C_13
REMARK    6  A    between atoms: C_13  and  C_14
REMARK    7  A    between atoms: C_14  and  C_16
REMARK    8  A    between atoms: C_17  and  N_26
REMARK    9  A    between atoms: N_18  and  C_25
REMARK   10  A    between atoms: N_21  and  C_24
REMARK   11  A    between atoms: C_27  and  C_28
REMARK   12  A    between atoms: C_28  and  C_29
REMARK   13  A    between atoms: C_28  and  C_30
REMARK                            x       y       z     vdW  Elec       q    Type
REMARK                         _______ _______ _______ _____ _____    ______ ____
ROOT
ATOM      1  S   UNL     1       2.990  -1.920   0.009  0.00  0.00    -0.080 S 
ENDROOT
BRANCH   1  11
ATOM      2  C   UNL     1      -2.563  -4.182  -3.527  0.00  0.00    +0.045 C 
ATOM      3  C   UNL     1      -1.395  -4.802  -2.805  0.00  0.00    -0.026 A 
ATOM      4  C   UNL     1      -1.261  -6.135  -2.751  0.00  0.00    -0.008 A 
ATOM      5  S   UNL     1       0.237  -6.363  -1.812  0.00  0.00    -0.073 S 
ATOM      6  C   UNL     1       0.640  -4.660  -1.519  0.00  0.00    +0.117 A 
ATOM      7  C   UNL     1      -0.401  -3.962  -2.159  0.00  0.00    +0.075 A 
ATOM      8  C   UNL     1      -0.332  -2.535  -2.083  0.00  0.00    +0.263 A 
ATOM      9  O   UNL     1      -1.191  -1.847  -2.608  0.00  0.00    -0.267 OA
ATOM     10  N   UNL     1       0.692  -1.962  -1.425  0.00  0.00    -0.287 N 
ATOM     11  C   UNL     1       1.665  -2.717  -0.835  0.00  0.00    +0.173 A 
ATOM     12  N   UNL     1       1.624  -4.033  -0.886  0.00  0.00    -0.216 NA
ATOM     13  C   UNL     1      -2.162  -7.188  -3.342  0.00  0.00    +0.052 C 
BRANCH  10  14
ATOM     14  C   UNL     1       0.767  -0.501  -1.343  0.00  0.00    +0.130 C 
BRANCH  14  15
ATOM     15  C   UNL     1       0.025  -0.021  -0.095  0.00  0.00    +0.003 C 
ATOM     16  C   UNL     1      -0.004   1.508  -0.076  0.00  0.00    +0.009 C 
ATOM     17  C   UNL     1       0.743  -0.533   1.155  0.00  0.00    +0.009 C 
ENDBRANCH  14  15
ENDBRANCH  10  14
ENDBRANCH   1  11
BRANCH   1  18
ATOM     18  C   UNL     1       3.927  -3.367   0.560  0.00  0.00    +0.157 C 
BRANCH  18  19
ATOM     19  C   UNL     1       5.143  -2.916   1.328  0.00  0.00    +0.182 C 
ATOM     20  O   UNL     1       5.355  -1.731   1.488  0.00  0.00    -0.291 OA
BRANCH  19  21
ATOM     21  C   UNL     1       6.034  -3.871   1.862  0.00  0.00    +0.120 A 
ATOM     22  C   UNL     1       7.237  -3.478   2.475  0.00  0.00    +0.116 A 
ATOM     23  N   UNL     1       8.065  -4.439   2.982  0.00  0.00    -0.284 N 
ATOM     24  C   UNL     1       7.757  -5.742   2.894  0.00  0.00    +0.333 A 
ATOM     25  O   UNL     1       8.530  -6.558   3.357  0.00  0.00    -0.246 OA
ATOM     26  N   UNL     1       6.626  -6.177   2.316  0.00  0.00    -0.263 N 
ATOM     27  C   UNL     1       5.739  -5.308   1.789  0.00  0.00    +0.269 A 
ATOM     28  O   UNL     1       4.715  -5.706   1.265  0.00  0.00    -0.267 OA
ATOM     29  C   UNL     1       6.352  -7.615   2.255  0.00  0.00    +0.157 C 
ATOM     30  C   UNL     1       9.318  -4.039   3.627  0.00  0.00    +0.155 C 
BRANCH  22  31
ATOM     31  N   UNL     1       7.567  -2.161   2.567  0.00  0.00    -0.344 N 
ATOM     32  H   UNL     1       6.937  -1.482   2.281  0.00  0.00    +0.144 HD
ATOM     33  H   UNL     1       8.433  -1.902   2.919  0.00  0.00    +0.144 HD
ENDBRANCH  22  31
ENDBRANCH  19  21
ENDBRANCH  18  19
ENDBRANCH   1  18
TORSDOF 7
