REMARK  Name = ZINC39595058
REMARK  6 active torsions:
REMARK  status: ('A' for Active; 'I' for Inactive)
REMARK    1  A    between atoms: C_7  and  C_10
REMARK    2  A    between atoms: C_14  and  C_23
REMARK    3  A    between atoms: N_25  and  C_26
REMARK    4  A    between atoms: C_26  and  C_27
REMARK    5  A    between atoms: C_27  and  C_29
REMARK    6  A    between atoms: C_27  and  N_35
REMARK                            x       y       z     vdW  Elec       q    Type
REMARK                         _______ _______ _______ _____ _____    ______ ____
ROOT
ATOM      1  C   UNL     1       0.085  -3.275  -0.028  0.00  0.00    +0.248 C 
ATOM      2  O   UNL     1      -1.087  -2.953   0.029  0.00  0.00    -0.270 OA
ATOM      3  N   UNL     1       0.421  -4.574  -0.160  0.00  0.00    -0.296 N 
ATOM      4  C   UNL     1       1.778  -5.169  -0.129  0.00  0.00    +0.121 C 
ATOM      5  C   UNL     1       1.607  -6.490   0.654  0.00  0.00    +0.100 C 
ATOM      6  C   UNL     1       0.122  -6.854   0.490  0.00  0.00    -0.004 C 
ATOM      7  C   UNL     1      -0.484  -5.730  -0.363  0.00  0.00    +0.115 C 
ATOM      8  C   UNL     1      -0.564  -6.900   1.853  0.00  0.00    -0.010 C 
ATOM      9  C   UNL     1      -2.025  -7.320   1.669  0.00  0.00    -0.082 C 
ATOM     10  N   UNL     1      -2.081  -8.638   1.025  0.00  0.00    +0.379 N 
ATOM     11  C   UNL     1      -1.502  -8.562  -0.322  0.00  0.00    -0.082 C 
ATOM     12  C   UNL     1      -0.019  -8.195  -0.223  0.00  0.00    -0.010 C 
ATOM     13  H   UNL     1      -1.559  -9.302   1.577  0.00  0.00    -0.086 HD
ATOM     14  H   UNL     1      -3.042  -8.939   0.961  0.00  0.00    -0.086 HD
ENDROOT
BRANCH   1  21
ATOM     15  C   UNL     1      -0.261   0.737   1.978  0.00  0.00    +0.001 A 
ATOM     16  C   UNL     1       0.858   1.558   1.933  0.00  0.00    +0.001 A 
ATOM     17  C   UNL     1       2.000   1.121   1.292  0.00  0.00    +0.015 A 
ATOM     18  C   UNL     1       2.016  -0.126   0.703  0.00  0.00    +0.020 A 
ATOM     19  C   UNL     1       0.896  -0.977   0.735  0.00  0.00    +0.001 A 
ATOM     20  C   UNL     1      -0.255  -0.505   1.396  0.00  0.00    +0.010 A 
ATOM     21  C   UNL     1       1.133  -2.250   0.049  0.00  0.00    +0.052 A 
ATOM     22  C   UNL     1       2.353  -2.452  -0.512  0.00  0.00    +0.059 A 
ATOM     23  S   UNL     1       3.227  -1.056  -0.195  0.00  0.00    -0.096 S 
ENDBRANCH   1  21
BRANCH   5  24
ATOM     24  C   UNL     1       2.481  -7.566   0.064  0.00  0.00    +0.218 C 
ATOM     25  O   UNL     1       2.817  -7.505  -1.100  0.00  0.00    -0.275 OA
ATOM     26  N   UNL     1       2.891  -8.597   0.830  0.00  0.00    -0.316 N 
ATOM     27  H   UNL     1       2.622  -8.646   1.760  0.00  0.00    +0.149 HD
BRANCH  26  28
ATOM     28  C   UNL     1       3.740  -9.643   0.256  0.00  0.00    +0.093 C 
BRANCH  28  29
ATOM     29  C   UNL     1       4.160 -10.620   1.356  0.00  0.00    -0.019 C 
BRANCH  29  30
ATOM     30  C   UNL     1       2.946 -11.348   1.871  0.00  0.00    -0.041 A 
ATOM     31  C   UNL     1       2.334 -10.948   3.050  0.00  0.00    +0.005 A 
ATOM     32  C   UNL     1       1.220 -11.648   3.486  0.00  0.00    +0.020 A 
ATOM     33  C   UNL     1       0.758 -12.713   2.736  0.00  0.00    +0.111 A 
ATOM     34  N   UNL     1       1.365 -13.066   1.620  0.00  0.00    -0.263 NA
ATOM     35  C   UNL     1       2.424 -12.420   1.173  0.00  0.00    +0.112 A 
ENDBRANCH  29  30
BRANCH  29  36
ATOM     36  N   UNL     1       5.118 -11.591   0.810  0.00  0.00    +0.385 N 
ATOM     37  C   UNL     1       6.398 -10.915   0.477  0.00  0.00    -0.078 C 
ATOM     38  C   UNL     1       7.422 -12.077   0.473  0.00  0.00    -0.020 C 
ATOM     39  C   UNL     1       6.937 -12.970   1.639  0.00  0.00    -0.020 C 
ATOM     40  C   UNL     1       5.453 -12.607   1.832  0.00  0.00    -0.078 C 
ATOM     41  H   UNL     1       4.734 -12.035  -0.010  0.00  0.00    -0.081 HD
ENDBRANCH  29  36
ENDBRANCH  28  29
ENDBRANCH  26  28
ENDBRANCH   5  24
TORSDOF 6
