REMARK  Name = ZINC62690681
REMARK  5 active torsions:
REMARK  status: ('A' for Active; 'I' for Inactive)
REMARK    1  A    between atoms: C_1  and  C_2
REMARK    2  A    between atoms: N_5  and  S_16
REMARK    3  A    between atoms: N_8  and  C_9
REMARK    4  A    between atoms: C_9  and  C_10
REMARK    5  A    between atoms: S_16  and  C_19
REMARK                            x       y       z     vdW  Elec       q    Type
REMARK                         _______ _______ _______ _____ _____    ______ ____
ROOT
ATOM      1  S   UNL     1      -2.437  -2.678  -0.819  0.00  0.00    +0.061 S 
ATOM      2  O   UNL     1      -2.554  -3.999  -0.308  0.00  0.00    -0.153 OA
ATOM      3  O   UNL     1      -3.566  -1.844  -1.042  0.00  0.00    -0.153 OA
ENDROOT
BRANCH   1   4
ATOM      4  C   UNL     1      -1.595  -2.807  -2.362  0.00  0.00    +0.108 A 
ATOM      5  C   UNL     1      -1.749  -1.817  -3.316  0.00  0.00    +0.030 A 
ATOM      6  C   UNL     1      -1.093  -1.909  -4.528  0.00  0.00    +0.030 A 
ATOM      7  C   UNL     1      -0.277  -2.999  -4.790  0.00  0.00    +0.067 A 
ATOM      8  C   UNL     1      -0.121  -3.998  -3.827  0.00  0.00    +0.069 A 
ATOM      9  C   UNL     1      -0.779  -3.894  -2.611  0.00  0.00    +0.056 A 
ATOM     10  N   UNL     1       0.744  -4.947  -4.367  0.00  0.00    -0.306 N 
ATOM     11  H   UNL     1       1.040  -5.760  -3.929  0.00  0.00    +0.170 HD
ATOM     12  C   UNL     1       1.099  -4.543  -5.602  0.00  0.00    +0.325 A 
ATOM     13  O   UNL     1       1.847  -5.146  -6.348  0.00  0.00    -0.247 OA
ATOM     14  N   UNL     1       0.499  -3.371  -5.885  0.00  0.00    -0.306 N 
ATOM     15  H   UNL     1       0.592  -2.872  -6.711  0.00  0.00    +0.170 HD
ENDBRANCH   1   4
BRANCH   1  19
ATOM     16  C   UNL     1      -0.088   1.673   0.412  0.00  0.00    +0.025 C 
ATOM     17  C   UNL     1      -0.077   0.165   0.158  0.00  0.00    +0.070 C 
ATOM     18  C   UNL     1      -1.496  -0.391   0.316  0.00  0.00    +0.128 C 
ATOM     19  N   UNL     1      -1.439  -1.857   0.216  0.00  0.00    -0.174 NA
ATOM     20  C   UNL     1      -0.471  -2.574   1.060  0.00  0.00    +0.125 C 
ATOM     21  C   UNL     1       0.908  -1.933   0.872  0.00  0.00    +0.102 C 
ATOM     22  N   UNL     1       0.813  -0.489   1.127  0.00  0.00    -0.293 NA
BRANCH  22  23
ATOM     23  C   UNL     1       2.142   0.135   1.125  0.00  0.00    +0.120 C 
BRANCH  23  24
ATOM     24  C   UNL     1       2.899  -0.292   2.357  0.00  0.00    -0.033 A 
ATOM     25  C   UNL     1       2.800   0.450   3.520  0.00  0.00    +0.005 A 
ATOM     26  C   UNL     1       3.494   0.059   4.650  0.00  0.00    +0.000 A 
ATOM     27  C   UNL     1       4.286  -1.074   4.617  0.00  0.00    +0.000 A 
ATOM     28  C   UNL     1       4.384  -1.816   3.455  0.00  0.00    +0.000 A 
ATOM     29  C   UNL     1       3.686  -1.427   2.326  0.00  0.00    +0.005 A 
ENDBRANCH  23  24
ENDBRANCH  22  23
ENDBRANCH   1  19
TORSDOF 4
