REMARK  Name = ZINC13567599
REMARK  6 active torsions:
REMARK  status: ('A' for Active; 'I' for Inactive)
REMARK    1  A    between atoms: C_1  and  C_2
REMARK    2  A    between atoms: C_7  and  N_8
REMARK    3  A    between atoms: N_23  and  C_26
REMARK    4  A    between atoms: C_26  and  C_27
REMARK    5  A    between atoms: C_29  and  C_32
REMARK    6  A    between atoms: C_30  and  N_31
REMARK                            x       y       z     vdW  Elec       q    Type
REMARK                         _______ _______ _______ _____ _____    ______ ____
ROOT
ATOM      1  N   UNL     1       1.897  -3.211   0.171  0.00  0.00    -0.260 N 
ATOM      2  C   UNL     1       1.733  -2.393  -0.916  0.00  0.00    +0.025 C 
ATOM      3  C   UNL     1       1.559  -1.063  -0.756  0.00  0.00    +0.037 C 
ATOM      4  C   UNL     1       1.409  -0.213  -1.866  0.00  0.00    +0.162 C 
ATOM      5  O   UNL     1       1.244   0.977  -1.687  0.00  0.00    -0.292 OA
ATOM      6  C   UNL     1       1.447  -0.750  -3.270  0.00  0.00    +0.080 C 
ATOM      7  C   UNL     1       2.319  -2.010  -3.299  0.00  0.00    +0.014 C 
ATOM      8  C   UNL     1       1.755  -3.014  -2.291  0.00  0.00    +0.052 C 
ATOM      9  C   UNL     1       1.523  -0.451   0.620  0.00  0.00    +0.141 C 
ATOM     10  C   UNL     1       0.121  -0.073   0.988  0.00  0.00    -0.001 A 
ATOM     11  C   UNL     1      -1.014  -0.836   1.153  0.00  0.00    +0.007 A 
ATOM     12  C   UNL     1      -2.180  -0.163   1.503  0.00  0.00    +0.000 A 
ATOM     13  C   UNL     1      -2.195   1.206   1.675  0.00  0.00    +0.002 A 
ATOM     14  C   UNL     1      -1.058   1.980   1.505  0.00  0.00    +0.024 A 
ATOM     15  C   UNL     1       0.120   1.316   1.159  0.00  0.00    +0.041 A 
ATOM     16  N   UNL     1       1.384   1.830   0.932  0.00  0.00    -0.266 N 
ATOM     17  C   UNL     1       2.272   0.867   0.610  0.00  0.00    +0.240 C 
ATOM     18  O   UNL     1       3.448   1.025   0.358  0.00  0.00    -0.274 OA
ATOM     19  C   UNL     1       2.116  -1.369   1.646  0.00  0.00    +0.089 C 
ATOM     20  C   UNL     1       2.277  -2.694   1.389  0.00  0.00    +0.108 C 
ENDROOT
BRANCH   1  27
ATOM     21  C   UNL     1       4.138  -4.888  -0.344  0.00  0.00    +0.045 C 
ATOM     22  C   UNL     1       2.742  -5.441  -0.210  0.00  0.00    -0.029 A 
ATOM     23  C   UNL     1       2.522  -6.800  -0.333  0.00  0.00    +0.005 A 
ATOM     24  C   UNL     1       1.241  -7.307  -0.216  0.00  0.00    +0.000 A 
ATOM     25  C   UNL     1       0.177  -6.458   0.030  0.00  0.00    +0.002 A 
ATOM     26  C   UNL     1       0.392  -5.100   0.159  0.00  0.00    +0.024 A 
ATOM     27  C   UNL     1       1.677  -4.587   0.041  0.00  0.00    +0.043 A 
ENDBRANCH   1  27
BRANCH  20  28
ATOM     28  N   UNL     1       2.818  -3.518   2.346  0.00  0.00    -0.345 N 
ATOM     29  H   UNL     1       2.932  -4.464   2.163  0.00  0.00    +0.144 HD
ATOM     30  H   UNL     1       3.086  -3.155   3.204  0.00  0.00    +0.144 HD
ENDBRANCH  20  28
BRANCH  19  31
ATOM     31  C   UNL     1       2.520  -0.842   2.915  0.00  0.00    +0.100 C 
ATOM     32  N   UNL     1       2.840  -0.424   3.922  0.00  0.00    -0.191 NA
ENDBRANCH  19  31
BRANCH  16  33
ATOM     33  C   UNL     1       1.720   3.252   1.031  0.00  0.00    +0.140 C 
BRANCH  33  34
ATOM     34  C   UNL     1       2.150   3.570   2.440  0.00  0.00    -0.015 C 
ATOM     35  C   UNL     1       3.311   4.138   2.658  0.00  0.00    +0.005 C 
ENDBRANCH  33  34
ENDBRANCH  16  33
TORSDOF 5
