REMARK  Name = ZINC04597183
REMARK  7 active torsions:
REMARK  status: ('A' for Active; 'I' for Inactive)
REMARK    1  A    between atoms: C_1  and  C_2
REMARK    2  A    between atoms: C_7  and  C_8
REMARK    3  A    between atoms: C_12  and  C_15
REMARK    4  A    between atoms: C_18  and  O_22
REMARK    5  A    between atoms: C_20  and  O_21
REMARK    6  A    between atoms: C_26  and  C_28
REMARK    7  A    between atoms: C_26  and  C_29
REMARK                            x       y       z     vdW  Elec       q    Type
REMARK                         _______ _______ _______ _____ _____    ______ ____
ROOT
ATOM      1  C   UNL     1      -8.190   0.953   4.042  0.00  0.00    +0.044 C 
ATOM      2  C   UNL     1      -7.131   1.184   2.995  0.00  0.00    -0.046 A 
ATOM      3  C   UNL     1      -6.042   1.989   3.284  0.00  0.00    +0.028 A 
ATOM      4  C   UNL     1      -5.075   2.199   2.315  0.00  0.00    +0.050 A 
ATOM      5  C   UNL     1      -5.219   1.635   1.056  0.00  0.00    +0.053 A 
ATOM      6  C   UNL     1      -6.296   0.814   0.775  0.00  0.00    +0.028 A 
ATOM      7  C   UNL     1      -7.253   0.592   1.752  0.00  0.00    -0.046 A 
ATOM      8  C   UNL     1      -8.432  -0.299   1.458  0.00  0.00    +0.044 C 
ATOM      9  N   UNL     1      -4.281   1.984   0.091  0.00  0.00    -0.316 N 
ATOM     10  C   UNL     1      -2.961   1.675   0.147  0.00  0.00    +0.017 C 
ATOM     11  C   UNL     1      -2.178   1.838   1.227  0.00  0.00    +0.037 C 
ATOM     12  C   UNL     1      -2.619   2.369   2.570  0.00  0.00    +0.139 C 
ATOM     13  N   UNL     1      -3.939   2.965   2.574  0.00  0.00    -0.331 N 
ATOM     14  C   UNL     1      -0.799   1.511   1.167  0.00  0.00    +0.163 C 
ATOM     15  O   UNL     1      -0.116   1.649   2.163  0.00  0.00    -0.292 OA
ATOM     16  C   UNL     1      -0.153   1.002  -0.086  0.00  0.00    +0.086 C 
ATOM     17  C   UNL     1      -0.930   1.537  -1.294  0.00  0.00    -0.023 C 
ATOM     18  C   UNL     1      -2.387   1.105  -1.139  0.00  0.00    +0.058 C 
ATOM     19  C   UNL     1      -0.844   3.064  -1.331  0.00  0.00    +0.011 C 
ATOM     20  C   UNL     1      -0.349   0.954  -2.584  0.00  0.00    +0.011 C 
ATOM     21  H   UNL     1      -4.593   2.553  -0.798  0.00  0.00    +0.152 HD
ATOM     22  H   UNL     1      -4.058   4.038   2.784  0.00  0.00    +0.147 HD
ENDROOT
BRANCH  12  23
ATOM     23  C   UNL     1      -2.604   1.234   3.562  0.00  0.00    +0.019 A 
ATOM     24  C   UNL     1      -2.576  -0.073   3.114  0.00  0.00    +0.013 A 
ATOM     25  C   UNL     1      -2.562  -1.115   4.021  0.00  0.00    +0.046 A 
ATOM     26  C   UNL     1      -2.575  -0.852   5.384  0.00  0.00    +0.120 A 
ATOM     27  C   UNL     1      -2.602   0.459   5.835  0.00  0.00    +0.091 A 
ATOM     28  C   UNL     1      -2.612   1.503   4.923  0.00  0.00    +0.126 A 
BRANCH  28  29
ATOM     29  O   UNL     1      -2.633   2.789   5.362  0.00  0.00    -0.506 OA
ATOM     30  H   UNL     1      -2.639   3.002   6.441  0.00  0.00    +0.292 HD
ENDBRANCH  28  29
BRANCH  26  31
ATOM     31  O   UNL     1      -2.559  -1.877   6.275  0.00  0.00    -0.507 OA
ATOM     32  H   UNL     1      -2.570  -1.668   7.355  0.00  0.00    +0.292 HD
ENDBRANCH  26  31
ENDBRANCH  12  23
TORSDOF 3
