REMARK  Name = ZINC46729285
REMARK  3 active torsions:
REMARK  status: ('A' for Active; 'I' for Inactive)
REMARK    1  A    between atoms: C_6  and  N_7
REMARK    2  A    between atoms: C_8  and  C_10
REMARK    3  A    between atoms: C_10  and  C_11
REMARK                            x       y       z     vdW  Elec       q    Type
REMARK                         _______ _______ _______ _____ _____    ______ ____
ROOT
ATOM      1  N   UNL     1      -1.199  -0.722   0.010  0.00  0.00    -0.285 N 
ATOM      2  C   UNL     1      -1.183  -2.065  -0.100  0.00  0.00    +0.219 C 
ATOM      3  O   UNL     1      -0.126  -2.659  -0.113  0.00  0.00    -0.275 OA
ATOM      4  H   UNL     1      -2.044  -0.252   0.088  0.00  0.00    +0.155 HD
ENDROOT
BRANCH   1  10
ATOM      5  C   UNL     1       0.066   1.248  -0.586  0.00  0.00    +0.024 A 
ATOM      6  C   UNL     1       1.253   1.953  -0.584  0.00  0.00    +0.016 A 
ATOM      7  C   UNL     1       2.379   1.413   0.011  0.00  0.00    +0.013 A 
ATOM      8  C   UNL     1       2.319   0.165   0.605  0.00  0.00    +0.016 A 
ATOM      9  C   UNL     1       1.135  -0.545   0.606  0.00  0.00    +0.024 A 
ATOM     10  C   UNL     1       0.003  -0.005   0.010  0.00  0.00    +0.033 A 
ATOM     11  I   UNL     1       4.178   2.486   0.011  0.00  0.00    -0.044 I 
ENDBRANCH   1  10
BRANCH   2  12
ATOM     12  C   UNL     1      -2.478  -2.828  -0.205  0.00  0.00    +0.128 C 
BRANCH  12  13
ATOM     13  C   UNL     1      -2.180  -4.325  -0.317  0.00  0.00    +0.169 C 
ATOM     14  C   UNL     1      -3.468  -5.121  -0.388  0.00  0.00    +0.241 C 
ATOM     15  O   UNL     1      -4.340  -5.179   0.452  0.00  0.00    -0.273 OA
ATOM     16  N   UNL     1      -3.442  -5.750  -1.580  0.00  0.00    -0.239 N 
ATOM     17  C   UNL     1      -2.328  -5.465  -2.264  0.00  0.00    +0.307 C 
ATOM     18  O   UNL     1      -2.078  -5.915  -3.365  0.00  0.00    -0.252 OA
ATOM     19  N   UNL     1      -1.512  -4.626  -1.595  0.00  0.00    -0.287 N 
ATOM     20  H   UNL     1      -4.144  -6.338  -1.901  0.00  0.00    +0.159 HD
ATOM     21  H   UNL     1      -0.655  -4.285  -1.895  0.00  0.00    +0.151 HD
ENDBRANCH  12  13
ENDBRANCH   2  12
TORSDOF 3
