REMARK  Name = ZINC21238388
REMARK  13 active torsions:
REMARK  status: ('A' for Active; 'I' for Inactive)
REMARK    1  A    between atoms: C_1  and  C_2
REMARK    2  A    between atoms: C_2  and  O_3
REMARK    3  A    between atoms: O_3  and  C_4
REMARK    4  A    between atoms: C_7  and  C_12
REMARK    5  A    between atoms: C_9  and  O_10
REMARK    6  A    between atoms: O_10  and  C_11
REMARK    7  A    between atoms: C_17  and  C_27
REMARK    8  A    between atoms: C_30  and  O_35
REMARK    9  A    between atoms: C_31  and  O_33
REMARK   10  A    between atoms: O_33  and  C_34
REMARK   11  A    between atoms: O_35  and  C_36
REMARK   12  A    between atoms: C_36  and  C_37
REMARK   13  A    between atoms: C_36  and  C_38
REMARK                            x       y       z     vdW  Elec       q    Type
REMARK                         _______ _______ _______ _____ _____    ______ ____
ROOT
ATOM      1  C   UNL     1       6.412   4.886  -3.202  0.00  0.00    +0.032 C 
ATOM      2  C   UNL     1       5.024   5.384  -2.804  0.00  0.00    +0.059 C 
ATOM      3  C   UNL     1       4.257   4.272  -2.108  0.00  0.00    +0.017 C 
ATOM      4  C   UNL     1       4.445   2.991  -2.466  0.00  0.00    +0.036 C 
ATOM      5  C   UNL     1       3.728   1.794  -1.885  0.00  0.00    +0.136 C 
ATOM      6  N   UNL     1       2.969   2.075  -0.686  0.00  0.00    -0.331 N 
ATOM      7  C   UNL     1       1.868   2.931  -0.713  0.00  0.00    +0.049 A 
ATOM      8  C   UNL     1       0.582   2.461  -0.502  0.00  0.00    +0.025 A 
ATOM      9  C   UNL     1      -0.489   3.327  -0.639  0.00  0.00    +0.002 A 
ATOM     10  C   UNL     1      -0.279   4.652  -0.972  0.00  0.00    +0.002 A 
ATOM     11  C   UNL     1       1.006   5.128  -1.168  0.00  0.00    +0.025 A 
ATOM     12  C   UNL     1       2.079   4.266  -1.021  0.00  0.00    +0.052 A 
ATOM     13  N   UNL     1       3.396   4.691  -1.146  0.00  0.00    -0.316 N 
ATOM     14  C   UNL     1       5.388   2.662  -3.468  0.00  0.00    +0.163 C 
ATOM     15  O   UNL     1       5.522   1.496  -3.785  0.00  0.00    -0.292 OA
ATOM     16  C   UNL     1       6.227   3.698  -4.153  0.00  0.00    +0.088 C 
ATOM     17  H   UNL     1       3.256   1.611   0.269  0.00  0.00    +0.147 HD
ATOM     18  H   UNL     1       3.728   5.421  -0.392  0.00  0.00    +0.152 HD
ENDROOT
BRANCH   1  22
ATOM     19  C   UNL     1       8.558   8.008  -5.186  0.00  0.00    +0.162 A 
ATOM     20  C   UNL     1       7.344   7.569  -5.691  0.00  0.00    +0.050 A 
ATOM     21  C   UNL     1       6.654   6.559  -5.047  0.00  0.00    +0.008 A 
ATOM     22  C   UNL     1       7.170   5.986  -3.900  0.00  0.00    -0.040 A 
ATOM     23  C   UNL     1       8.378   6.423  -3.389  0.00  0.00    +0.053 A 
ATOM     24  C   UNL     1       9.079   7.431  -4.032  0.00  0.00    +0.162 A 
BRANCH  24  25
ATOM     25  O   UNL     1      10.269   7.858  -3.534  0.00  0.00    -0.491 OA
ATOM     26  C   UNL     1      10.742   7.220  -2.346  0.00  0.00    +0.277 C 
ENDBRANCH  24  25
BRANCH  19  27
ATOM     27  O   UNL     1       9.239   9.002  -5.818  0.00  0.00    -0.489 OA
BRANCH  27  29
ATOM     28  C   UNL     1       9.548  10.644  -7.563  0.00  0.00    +0.048 C 
ATOM     29  C   UNL     1       8.644   9.548  -6.997  0.00  0.00    +0.226 C 
ENDBRANCH  27  29
ENDBRANCH  19  27
ENDBRANCH   1  22
BRANCH   5  30
ATOM     30  C   UNL     1       2.789   1.247  -2.929  0.00  0.00    -0.019 A 
ATOM     31  C   UNL     1       1.722   2.010  -3.365  0.00  0.00    +0.009 A 
ATOM     32  C   UNL     1       0.858   1.513  -4.323  0.00  0.00    +0.050 A 
ATOM     33  C   UNL     1       1.061   0.247  -4.848  0.00  0.00    +0.162 A 
ATOM     34  C   UNL     1       2.135  -0.521  -4.409  0.00  0.00    +0.162 A 
ATOM     35  C   UNL     1       3.000  -0.015  -3.453  0.00  0.00    +0.055 A 
BRANCH  34  36
ATOM     36  O   UNL     1       2.337  -1.765  -4.921  0.00  0.00    -0.491 OA
ATOM     37  C   UNL     1       3.460  -2.496  -4.424  0.00  0.00    +0.277 C 
ENDBRANCH  34  36
BRANCH  33  38
ATOM     38  O   UNL     1       0.212  -0.244  -5.791  0.00  0.00    -0.486 OA
BRANCH  38  39
ATOM     39  C   UNL     1      -0.935   0.548  -6.106  0.00  0.00    +0.167 C 
ATOM     40  C   UNL     1      -0.558   1.600  -7.151  0.00  0.00    +0.051 C 
ATOM     41  C   UNL     1      -2.039  -0.353  -6.664  0.00  0.00    +0.051 C 
ENDBRANCH  38  39
ENDBRANCH  33  38
ENDBRANCH   5  30
TORSDOF 8
