REMARK  Name = ZINC63414119
REMARK  7 active torsions:
REMARK  status: ('A' for Active; 'I' for Inactive)
REMARK    1  A    between atoms: C_1  and  C_2
REMARK    2  A    between atoms: C_5  and  C_7
REMARK    3  A    between atoms: C_7  and  C_8
REMARK    4  A    between atoms: C_7  and  S_9
REMARK    5  A    between atoms: S_9  and  C_10
REMARK    6  A    between atoms: C_14  and  C_17
REMARK    7  A    between atoms: N_25  and  N_26
REMARK                            x       y       z     vdW  Elec       q    Type
REMARK                         _______ _______ _______ _____ _____    ______ ____
ROOT
ATOM      1  C   UNL     1       1.290  -5.811   1.918  0.00  0.00    +0.190 A 
ATOM      2  N   UNL     1       0.496  -5.772   2.969  0.00  0.00    -0.215 NA
ATOM      3  C   UNL     1       0.484  -6.763   3.852  0.00  0.00    +0.117 A 
ATOM      4  C   UNL     1       1.307  -7.894   3.714  0.00  0.00    +0.081 A 
ATOM      5  C   UNL     1       1.170  -8.890   4.773  0.00  0.00    +0.004 A 
ATOM      6  C   UNL     1       0.289  -8.658   5.775  0.00  0.00    +0.056 A 
ATOM      7  S   UNL     1      -0.412  -7.075   5.351  0.00  0.00    -0.076 S 
ATOM      8  C   UNL     1       2.157  -7.910   2.566  0.00  0.00    +0.280 A 
ATOM      9  O   UNL     1       2.905  -8.851   2.365  0.00  0.00    -0.265 OA
ATOM     10  N   UNL     1       2.118  -6.876   1.706  0.00  0.00    -0.209 N 
ENDROOT
BRANCH   5  11
ATOM     11  C   UNL     1       1.979 -10.132   4.751  0.00  0.00    -0.017 A 
ATOM     12  C   UNL     1       2.038 -10.908   3.595  0.00  0.00    +0.008 A 
ATOM     13  C   UNL     1       2.793 -12.063   3.580  0.00  0.00    +0.001 A 
ATOM     14  C   UNL     1       3.490 -12.451   4.710  0.00  0.00    +0.000 A 
ATOM     15  C   UNL     1       3.436 -11.684   5.860  0.00  0.00    +0.001 A 
ATOM     16  C   UNL     1       2.688 -10.524   5.885  0.00  0.00    +0.008 A 
ENDBRANCH   5  11
BRANCH  10  17
ATOM     17  N   UNL     1       2.924  -6.889   0.603  0.00  0.00    -0.293 N 
ATOM     18  H   UNL     1       3.480  -7.731   0.572  0.00  0.00    +0.163 HD
ATOM     19  H   UNL     1       2.383  -6.781  -0.241  0.00  0.00    +0.163 HD
ENDBRANCH  10  17
BRANCH   1  20
ATOM     20  S   UNL     1       1.278  -4.476   0.768  0.00  0.00    -0.073 S 
BRANCH  20  21
ATOM     21  C   UNL     1       0.055  -3.322   1.448  0.00  0.00    +0.139 C 
ATOM     22  C   UNL     1      -1.329  -3.974   1.423  0.00  0.00    +0.029 C 
BRANCH  21  27
ATOM     23  C   UNL     1      -0.018   1.503   0.010  0.00  0.00    +0.111 C 
ATOM     24  C   UNL     1       0.002  -0.004   0.002  0.00  0.00    +0.214 A 
ATOM     25  N   UNL     1       0.008  -0.769  -1.052  0.00  0.00    -0.113 NA
ATOM     26  N   UNL     1       0.027  -2.002  -0.685  0.00  0.00    -0.111 NA
ATOM     27  C   UNL     1       0.034  -2.066   0.616  0.00  0.00    +0.230 A 
ATOM     28  O   UNL     1       0.023  -0.805   1.081  0.00  0.00    -0.424 OA
ENDBRANCH  21  27
ENDBRANCH  20  21
ENDBRANCH   1  20
TORSDOF 5
