REMARK  Name = ZINC63557256
REMARK  8 active torsions:
REMARK  status: ('A' for Active; 'I' for Inactive)
REMARK    1  A    between atoms: C_1  and  C_2
REMARK    2  A    between atoms: C_2  and  C_3
REMARK    3  A    between atoms: C_2  and  C_4
REMARK    4  A    between atoms: C_8  and  N_11
REMARK    5  A    between atoms: C_12  and  C_14
REMARK    6  A    between atoms: N_19  and  C_21
REMARK    7  A    between atoms: C_21  and  C_22
REMARK    8  A    between atoms: C_22  and  C_23
REMARK                            x       y       z     vdW  Elec       q    Type
REMARK                         _______ _______ _______ _____ _____    ______ ____
ROOT
ATOM      1  C   UNL     1      -0.163  -3.316   6.919  0.00  0.00    +0.101 C 
ATOM      2  C   UNL     1       1.316  -3.060   7.293  0.00  0.00    +0.110 C 
ATOM      3  C   UNL     1       1.583  -4.022   8.430  0.00  0.00    +0.216 C 
ATOM      4  O   UNL     1       2.524  -3.953   9.191  0.00  0.00    -0.276 OA
ATOM      5  N   UNL     1       0.625  -4.964   8.473  0.00  0.00    -0.300 N 
ATOM      6  C   UNL     1      -0.365  -4.768   7.406  0.00  0.00    +0.121 C 
ENDROOT
BRANCH   1   8
ATOM      7  N   UNL     1      -0.174  -2.037   4.802  0.00  0.00    -0.290 N 
ATOM      8  C   UNL     1      -0.367  -3.214   5.429  0.00  0.00    +0.220 C 
ATOM      9  O   UNL     1      -0.706  -4.191   4.795  0.00  0.00    -0.275 OA
ATOM     10  H   UNL     1       0.098  -1.256   5.309  0.00  0.00    +0.151 HD
BRANCH   7  14
ATOM     11  C   UNL     1       0.742  -0.511   1.242  0.00  0.00    +0.132 C 
ATOM     12  N   UNL     1       0.819  -1.998   1.248  0.00  0.00    -0.241 NA
ATOM     13  N   UNL     1       0.774  -2.538   2.602  0.00  0.00    -0.227 NA
ATOM     14  C   UNL     1      -0.373  -1.937   3.354  0.00  0.00    +0.216 C 
ATOM     15  S   UNL     1      -0.233  -0.190   2.772  0.00  0.00    -0.102 S 
ATOM     16  H   UNL     1       1.640  -2.320   0.757  0.00  0.00    +0.142 HD
ATOM     17  H   UNL     1       0.710  -3.545   2.588  0.00  0.00    +0.143 HD
BRANCH  11  19
ATOM     18  C   UNL     1      -0.019   1.526   0.010  0.00  0.00    +0.009 C 
ATOM     19  C   UNL     1       0.002  -0.004   0.002  0.00  0.00    +0.011 C 
ATOM     20  C   UNL     1       0.718  -0.497  -1.257  0.00  0.00    +0.009 C 
ENDBRANCH  11  19
ENDBRANCH   7  14
ENDBRANCH   1   8
BRANCH   5  21
ATOM     21  C   UNL     1       0.574  -6.047   9.458  0.00  0.00    +0.112 C 
BRANCH  21  22
ATOM     22  C   UNL     1      -0.227  -5.588  10.679  0.00  0.00    +0.052 C 
BRANCH  22  23
ATOM     23  C   UNL     1      -0.279  -6.702  11.693  0.00  0.00    -0.040 C 
ATOM     24  C   UNL     1       0.542  -6.875  12.754  0.00  0.00    +0.002 A 
ATOM     25  C   UNL     1       1.685  -6.108  13.261  0.00  0.00    +0.048 A 
ATOM     26  C   UNL     1       2.325  -6.540  14.373  0.00  0.00    +0.124 A 
ATOM     27  C   UNL     1       1.922  -7.702  15.051  0.00  0.00    +0.040 A 
ATOM     28  C   UNL     1       0.881  -8.458  14.644  0.00  0.00    +0.029 A 
ATOM     29  C   UNL     1       0.137  -8.096  13.486  0.00  0.00    +0.043 A 
ATOM     30  N   UNL     1      -0.894  -8.656  12.901  0.00  0.00    -0.380 N 
ATOM     31  C   UNL     1      -1.264  -7.849  11.733  0.00  0.00    +0.144 C 
ATOM     32  F   UNL     1       3.378  -5.837  14.843  0.00  0.00    -0.205 F 
ATOM     33  H   UNL     1      -1.340  -9.466  13.194  0.00  0.00    +0.160 HD
ENDBRANCH  22  23
ENDBRANCH  21  22
ENDBRANCH   5  21
TORSDOF 6
