REMARK  Name = ZINC61882571
REMARK  6 active torsions:
REMARK  status: ('A' for Active; 'I' for Inactive)
REMARK    1  A    between atoms: C_1  and  C_2
REMARK    2  A    between atoms: C_2  and  C_4
REMARK    3  A    between atoms: C_2  and  N_10
REMARK    4  A    between atoms: N_10  and  S_11
REMARK    5  A    between atoms: S_11  and  C_14
REMARK    6  A    between atoms: C_18  and  N_21
REMARK                            x       y       z     vdW  Elec       q    Type
REMARK                         _______ _______ _______ _____ _____    ______ ____
ROOT
ATOM      1  S   UNL     1       2.288  -0.978   1.069  0.00  0.00    +0.060 S 
ATOM      2  O   UNL     1       2.754  -1.548   2.285  0.00  0.00    -0.153 OA
ATOM      3  O   UNL     1       2.268  -1.702  -0.153  0.00  0.00    -0.153 OA
ENDROOT
BRANCH   1   4
ATOM      4  C   UNL     1       3.260   0.464   0.785  0.00  0.00    +0.122 A 
ATOM      5  C   UNL     1       3.854   0.664  -0.448  0.00  0.00    +0.049 A 
ATOM      6  C   UNL     1       4.618   1.795  -0.676  0.00  0.00    +0.045 A 
ATOM      7  C   UNL     1       4.789   2.729   0.329  0.00  0.00    +0.044 A 
ATOM      8  C   UNL     1       4.194   2.530   1.568  0.00  0.00    +0.042 A 
ATOM      9  C   UNL     1       3.424   1.395   1.792  0.00  0.00    +0.065 A 
ATOM     10 BR   UNL     1       2.605   1.124   3.474  0.00  0.00    -0.046 Br
ATOM     11 CL   UNL     1       5.362   2.042  -2.225  0.00  0.00    -0.083 Cl
BRANCH   8  12
ATOM     12  N   UNL     1       4.366   3.472   2.586  0.00  0.00    -0.357 N 
ATOM     13  H   UNL     1       4.902   4.265   2.428  0.00  0.00    +0.142 HD
ATOM     14  H   UNL     1       3.950   3.332   3.451  0.00  0.00    +0.142 HD
ENDBRANCH   8  12
ENDBRANCH   1   4
BRANCH   1  15
ATOM     15  N   UNL     1       0.735  -0.475   1.347  0.00  0.00    -0.187 NA
ATOM     16  H   UNL     1       0.324  -0.626   2.212  0.00  0.00    +0.148 HD
BRANCH  15  18
ATOM     17  C   UNL     1      -0.291   1.647   0.696  0.00  0.00    +0.026 C 
ATOM     18  C   UNL     1      -0.017   0.199   0.286  0.00  0.00    +0.077 C 
BRANCH  18  19
ATOM     19  C   UNL     1      -1.345  -0.528   0.062  0.00  0.00    +0.007 C 
ATOM     20  C   UNL     1      -1.071  -1.976  -0.348  0.00  0.00    +0.005 C 
ATOM     21  C   UNL     1      -2.398  -2.703  -0.572  0.00  0.00    +0.000 C 
ATOM     22  C   UNL     1      -3.184  -1.999  -1.681  0.00  0.00    +0.000 C 
ATOM     23  C   UNL     1      -3.458  -0.550  -1.270  0.00  0.00    +0.000 C 
ATOM     24  C   UNL     1      -2.131   0.176  -1.046  0.00  0.00    +0.005 C 
ENDBRANCH  18  19
ENDBRANCH  15  18
ENDBRANCH   1  15
TORSDOF 5
