REMARK  Name = ZINC52782741
REMARK  7 active torsions:
REMARK  status: ('A' for Active; 'I' for Inactive)
REMARK    1  A    between atoms: C_1  and  C_2
REMARK    2  A    between atoms: C_2  and  C_4
REMARK    3  A    between atoms: C_2  and  N_14
REMARK    4  A    between atoms: C_8  and  S_10
REMARK    5  A    between atoms: S_10  and  N_13
REMARK    6  A    between atoms: N_14  and  S_15
REMARK    7  A    between atoms: S_15  and  C_18
REMARK                            x       y       z     vdW  Elec       q    Type
REMARK                         _______ _______ _______ _____ _____    ______ ____
ROOT
ATOM      1  N   UNL     1       0.688  -0.476  -1.203  0.00  0.00    -0.183 NA
ATOM      2  H   UNL     1       1.655  -0.556  -1.212  0.00  0.00    +0.149 HD
ENDROOT
BRANCH   1   3
ATOM      3  S   UNL     1      -0.188  -0.875  -2.551  0.00  0.00    +0.059 S 
ATOM      4  O   UNL     1       0.751  -1.265  -3.545  0.00  0.00    -0.153 OA
ATOM      5  O   UNL     1      -1.236  -1.730  -2.117  0.00  0.00    -0.153 OA
BRANCH   3   6
ATOM      6  C   UNL     1      -0.951   0.603  -3.133  0.00  0.00    +0.106 A 
ATOM      7  C   UNL     1      -2.203   0.965  -2.672  0.00  0.00    +0.029 A 
ATOM      8  C   UNL     1      -2.795   2.122  -3.134  0.00  0.00    +0.006 A 
ATOM      9  C   UNL     1      -2.143   2.928  -4.058  0.00  0.00    -0.044 A 
ATOM     10  C   UNL     1      -0.893   2.571  -4.513  0.00  0.00    -0.042 A 
ATOM     11  C   UNL     1      -0.298   1.406  -4.045  0.00  0.00    +0.032 A 
ATOM     12  C   UNL     1      -0.121   3.405  -5.502  0.00  0.00    +0.035 C 
ATOM     13  C   UNL     1      -1.050   4.381  -6.221  0.00  0.00    +0.005 C 
ATOM     14  C   UNL     1      -1.861   5.144  -5.168  0.00  0.00    +0.005 C 
ATOM     15  C   UNL     1      -2.850   4.173  -4.526  0.00  0.00    +0.035 C 
ENDBRANCH   3   6
ENDBRANCH   1   3
BRANCH   1  17
ATOM     16  C   UNL     1      -0.019   1.526   0.010  0.00  0.00    +0.031 C 
ATOM     17  C   UNL     1       0.002  -0.004   0.002  0.00  0.00    +0.103 C 
BRANCH  17  18
ATOM     18  C   UNL     1       0.731  -0.503   1.223  0.00  0.00    -0.027 A 
ATOM     19  C   UNL     1       2.113  -0.514   1.247  0.00  0.00    +0.005 A 
ATOM     20  C   UNL     1       2.782  -0.972   2.366  0.00  0.00    +0.002 A 
ATOM     21  C   UNL     1       2.068  -1.419   3.463  0.00  0.00    +0.028 A 
ATOM     22  C   UNL     1       0.686  -1.407   3.439  0.00  0.00    +0.105 A 
ATOM     23  C   UNL     1       0.018  -0.945   2.321  0.00  0.00    +0.033 A 
BRANCH  22  24
ATOM     24  S   UNL     1      -0.223  -1.978   4.837  0.00  0.00    +0.056 S 
ATOM     25  O   UNL     1      -1.500  -2.374   4.356  0.00  0.00    -0.153 OA
ATOM     26  O   UNL     1       0.633  -2.864   5.545  0.00  0.00    -0.153 OA
BRANCH  24  27
ATOM     27  N   UNL     1      -0.474  -0.672   5.824  0.00  0.00    -0.204 NA
ATOM     28  H   UNL     1      -0.133   0.200   5.571  0.00  0.00    +0.144 HD
ATOM     29  H   UNL     1      -0.962  -0.779   6.655  0.00  0.00    +0.144 HD
ENDBRANCH  24  27
ENDBRANCH  22  24
ENDBRANCH  17  18
ENDBRANCH   1  17
TORSDOF 6
