REMARK  Name = ZINC03328315
REMARK  7 active torsions:
REMARK  status: ('A' for Active; 'I' for Inactive)
REMARK    1  A    between atoms: C_1  and  C_2
REMARK    2  A    between atoms: C_3  and  C_13
REMARK    3  A    between atoms: C_4  and  C_7
REMARK    4  A    between atoms: N_15  and  C_16
REMARK    5  A    between atoms: C_23  and  C_27
REMARK    6  A    between atoms: C_24  and  C_25
REMARK    7  A    between atoms: C_24  and  C_26
REMARK                            x       y       z     vdW  Elec       q    Type
REMARK                         _______ _______ _______ _____ _____    ______ ____
ROOT
ATOM      1  C   UNL     1      -2.776   2.508   2.026  0.00  0.00    +0.250 C 
ATOM      2  O   UNL     1      -2.061   3.489   1.954  0.00  0.00    -0.270 OA
ATOM      3  N   UNL     1      -3.828   2.502   2.868  0.00  0.00    -0.308 N 
ATOM      4  H   UNL     1      -4.399   1.719   2.925  0.00  0.00    +0.149 HD
ENDROOT
BRANCH   3   5
ATOM      5  C   UNL     1      -4.110   3.676   3.697  0.00  0.00    +0.080 C 
ATOM      6  C   UNL     1      -5.602   3.705   4.100  0.00  0.00    +0.027 C 
ATOM      7  C   UNL     1      -5.592   3.630   5.657  0.00  0.00    -0.003 C 
ATOM      8  C   UNL     1      -5.133   2.178   5.994  0.00  0.00    +0.005 C 
ATOM      9  C   UNL     1      -3.617   2.139   5.561  0.00  0.00    +0.009 C 
ATOM     10  C   UNL     1      -3.339   3.585   5.049  0.00  0.00    -0.008 C 
ATOM     11  C   UNL     1      -4.280   4.430   5.978  0.00  0.00    -0.025 C 
ATOM     12  C   UNL     1      -3.884   4.317   7.451  0.00  0.00    +0.012 C 
ATOM     13  C   UNL     1      -4.374   5.889   5.526  0.00  0.00    +0.012 C 
ATOM     14  C   UNL     1      -1.869   4.010   5.010  0.00  0.00    +0.013 C 
ENDBRANCH   3   5
BRANCH   1  17
ATOM     15  C   UNL     1      -3.868   1.891  -0.910  0.00  0.00    +0.090 C 
ATOM     16  C   UNL     1      -2.949   1.041  -0.070  0.00  0.00    +0.147 A 
ATOM     17  C   UNL     1      -2.493   1.327   1.192  0.00  0.00    +0.106 A 
ATOM     18  C   UNL     1      -1.643   0.160   1.507  0.00  0.00    +0.126 A 
ATOM     19  N   UNL     1      -1.720  -0.612   0.452  0.00  0.00    -0.077 NA
ATOM     20  O   UNL     1      -2.425  -0.140  -0.405  0.00  0.00    -0.359 OA
BRANCH  18  21
ATOM     21  C   UNL     1      -0.875  -0.087   2.751  0.00  0.00    +0.004 A 
ATOM     22  C   UNL     1      -0.740  -1.384   3.245  0.00  0.00    +0.010 A 
ATOM     23  C   UNL     1      -0.019  -1.608   4.400  0.00  0.00    +0.001 A 
ATOM     24  C   UNL     1       0.565  -0.549   5.071  0.00  0.00    +0.000 A 
ATOM     25  C   UNL     1       0.431   0.741   4.588  0.00  0.00    +0.001 A 
ATOM     26  C   UNL     1      -0.288   0.977   3.434  0.00  0.00    +0.010 A 
ENDBRANCH  18  21
ENDBRANCH   1  17
TORSDOF 3
