REMARK  Name = ZINC20464701
REMARK  13 active torsions:
REMARK  status: ('A' for Active; 'I' for Inactive)
REMARK    1  A    between atoms: C_1  and  O_2
REMARK    2  A    between atoms: O_2  and  C_3
REMARK    3  A    between atoms: C_3  and  C_4
REMARK    4  A    between atoms: N_9  and  C_10
REMARK    5  A    between atoms: C_12  and  C_22
REMARK    6  A    between atoms: C_15  and  C_20
REMARK    7  A    between atoms: C_17  and  O_19
REMARK    8  A    between atoms: C_20  and  O_21
REMARK    9  A    between atoms: C_22  and  N_23
REMARK   10  A    between atoms: N_23  and  C_24
REMARK   11  A    between atoms: N_23  and  C_32
REMARK   12  A    between atoms: C_24  and  C_25
REMARK   13  A    between atoms: C_32  and  C_33
REMARK                            x       y       z     vdW  Elec       q    Type
REMARK                         _______ _______ _______ _____ _____    ______ ____
ROOT
ATOM      1  C   UNL     1      -1.264   0.071   1.345  0.00  0.00    -0.009 C 
ATOM      2  C   UNL     1      -2.298   0.030   2.492  0.00  0.00    +0.091 C 
ATOM      3  O   UNL     1      -3.572   0.251   1.849  0.00  0.00    -0.372 OA
ATOM      4  C   UNL     1      -3.517  -0.511   0.624  0.00  0.00    +0.171 C 
ATOM      5  C   UNL     1      -2.084  -0.293   0.087  0.00  0.00    +0.134 C 
ENDROOT
BRANCH   1  10
ATOM      6  C   UNL     1      -0.555   1.800  -0.207  0.00  0.00    -0.042 C 
ATOM      7  C   UNL     1       0.711   2.668  -0.321  0.00  0.00    -0.015 C 
ATOM      8  C   UNL     1       1.292   2.725   1.111  0.00  0.00    -0.020 C 
ATOM      9  C   UNL     1       0.678   1.472   1.784  0.00  0.00    -0.078 C 
ATOM     10  N   UNL     1      -0.693   1.418   1.215  0.00  0.00    +0.388 N 
ATOM     11  H   UNL     1      -1.383   2.089   1.747  0.00  0.00    -0.081 HD
BRANCH   6  12
ATOM     12  C   UNL     1      -1.778   2.600  -0.657  0.00  0.00    +0.144 C 
BRANCH  12  14
ATOM     13  C   UNL     1      -2.785   4.771  -0.520  0.00  0.00    +0.193 C 
ATOM     14  O   UNL     1      -1.685   3.935  -0.155  0.00  0.00    -0.385 OA
ENDBRANCH  12  14
ENDBRANCH   6  12
ENDBRANCH   1  10
BRANCH   5  15
ATOM     15  O   UNL     1      -2.060   0.781  -0.855  0.00  0.00    -0.391 OA
ATOM     16  H   UNL     1      -2.597   0.687  -1.810  0.00  0.00    +0.210 HD
ENDBRANCH   5  15
BRANCH   4  17
ATOM     17  C   UNL     1      -4.546   0.013  -0.380  0.00  0.00    +0.190 C 
BRANCH  17  18
ATOM     18  O   UNL     1      -5.862  -0.302   0.080  0.00  0.00    -0.392 OA
ATOM     19  H   UNL     1      -6.739  -0.003  -0.514  0.00  0.00    +0.210 HD
ENDBRANCH  17  18
ENDBRANCH   4  17
BRANCH   2  20
ATOM     20  C   UNL     1      -2.013   1.140   3.506  0.00  0.00    -0.048 C 
BRANCH  20  21
ATOM     21  N   UNL     1      -3.002   1.078   4.591  0.00  0.00    +0.387 N 
ATOM     22  H   UNL     1      -4.003   1.068   4.135  0.00  0.00    -0.081 HD
BRANCH  21  23
ATOM     23  C   UNL     1      -2.849  -0.156   5.372  0.00  0.00    -0.042 C 
BRANCH  23  24
ATOM     24  C   UNL     1      -1.415  -0.298   5.812  0.00  0.00    -0.064 A 
ATOM     25  C   UNL     1      -0.480  -0.844   4.952  0.00  0.00    +0.004 A 
ATOM     26  C   UNL     1       0.837  -0.970   5.352  0.00  0.00    +0.038 A 
ATOM     27  C   UNL     1       1.218  -0.557   6.618  0.00  0.00    +0.123 A 
ATOM     28  C   UNL     1       0.280  -0.015   7.480  0.00  0.00    +0.038 A 
ATOM     29  C   UNL     1      -1.035   0.114   7.076  0.00  0.00    +0.004 A 
ATOM     30  F   UNL     1       2.504  -0.685   7.012  0.00  0.00    -0.205 F 
ENDBRANCH  23  24
ENDBRANCH  21  23
BRANCH  21  31
ATOM     31  C   UNL     1      -2.911   2.263   5.454  0.00  0.00    -0.042 C 
BRANCH  31  32
ATOM     32  C   UNL     1      -4.196   2.423   6.225  0.00  0.00    -0.064 A 
ATOM     33  C   UNL     1      -5.307   2.970   5.610  0.00  0.00    +0.004 A 
ATOM     34  C   UNL     1      -6.487   3.112   6.314  0.00  0.00    +0.038 A 
ATOM     35  C   UNL     1      -6.554   2.716   7.640  0.00  0.00    +0.123 A 
ATOM     36  C   UNL     1      -5.439   2.174   8.256  0.00  0.00    +0.038 A 
ATOM     37  C   UNL     1      -4.261   2.028   7.548  0.00  0.00    +0.004 A 
ATOM     38  F   UNL     1      -7.706   2.859   8.331  0.00  0.00    -0.205 F 
ENDBRANCH  31  32
ENDBRANCH  21  31
ENDBRANCH  20  21
ENDBRANCH   2  20
TORSDOF 12
