REMARK  Name = ZINC16883134
REMARK  9 active torsions:
REMARK  status: ('A' for Active; 'I' for Inactive)
REMARK    1  A    between atoms: C_1  and  C_2
REMARK    2  A    between atoms: C_2  and  C_3
REMARK    3  A    between atoms: C_3  and  C_4
REMARK    4  A    between atoms: C_5  and  O_26
REMARK    5  A    between atoms: C_7  and  C_20
REMARK    6  A    between atoms: N_8  and  C_11
REMARK    7  A    between atoms: C_11  and  C_12
REMARK    8  A    between atoms: C_14  and  C_19
REMARK    9  A    between atoms: C_17  and  C_18
REMARK                            x       y       z     vdW  Elec       q    Type
REMARK                         _______ _______ _______ _____ _____    ______ ____
ROOT
ATOM      1  C   UNL     1      -1.330   4.412   1.830  0.00  0.00    +0.078 A 
ATOM      2  C   UNL     1      -2.060   5.233   0.989  0.00  0.00    +0.223 A 
ATOM      3  N   UNL     1      -1.710   6.515   0.843  0.00  0.00    -0.195 NA
ATOM      4  C   UNL     1      -0.671   7.015   1.476  0.00  0.00    +0.147 A 
ATOM      5  N   UNL     1       0.085   6.250   2.312  0.00  0.00    -0.288 N 
ATOM      6  C   UNL     1      -0.224   4.950   2.504  0.00  0.00    +0.261 A 
ATOM      7  O   UNL     1       0.448   4.255   3.249  0.00  0.00    -0.267 OA
ENDROOT
BRANCH   4   8
ATOM      8  C   UNL     1      -0.319   8.437   1.279  0.00  0.00    +0.018 A 
ATOM      9  C   UNL     1      -0.074   9.258   2.381  0.00  0.00    +0.011 A 
ATOM     10  C   UNL     1       0.259  10.583   2.189  0.00  0.00    +0.001 A 
ATOM     11  C   UNL     1       0.341  11.101   0.908  0.00  0.00    +0.000 A 
ATOM     12  C   UNL     1       0.096  10.293  -0.188  0.00  0.00    +0.001 A 
ATOM     13  C   UNL     1      -0.234   8.965  -0.011  0.00  0.00    +0.011 A 
ENDBRANCH   4   8
BRANCH   2  14
ATOM     14  O   UNL     1      -3.129   4.741   0.320  0.00  0.00    -0.492 OA
ATOM     15  H   UNL     1      -3.574   5.390  -0.241  0.00  0.00    +0.294 HD
ENDBRANCH   2  14
BRANCH   1  16
ATOM     16  C   UNL     1      -1.712   2.966   2.013  0.00  0.00    +0.046 C 
BRANCH  16  18
ATOM     17  C   UNL     1      -1.285   0.629   1.239  0.00  0.00    +0.004 C 
ATOM     18  C   UNL     1      -0.897   2.097   1.053  0.00  0.00    +0.002 C 
ENDBRANCH  16  18
ENDBRANCH   1  16
BRANCH   5  19
ATOM     19  C   UNL     1       1.235   6.838   3.003  0.00  0.00    +0.162 C 
BRANCH  19  20
ATOM     20  C   UNL     1       2.495   6.128   2.577  0.00  0.00    -0.024 A 
ATOM     21  C   UNL     1       3.097   5.219   3.426  0.00  0.00    +0.009 A 
ATOM     22  C   UNL     1       4.252   4.568   3.035  0.00  0.00    -0.050 A 
ATOM     23  C   UNL     1       4.804   4.826   1.794  0.00  0.00    +0.003 A 
ATOM     24  C   UNL     1       4.202   5.735   0.945  0.00  0.00    +0.004 A 
ATOM     25  C   UNL     1       3.044   6.382   1.334  0.00  0.00    -0.046 A 
ATOM     26  C   UNL     1       2.383   7.369   0.406  0.00  0.00    +0.044 C 
ATOM     27  C   UNL     1       4.909   3.576   3.960  0.00  0.00    +0.044 C 
ENDBRANCH  19  20
ENDBRANCH   5  19
TORSDOF 6
