REMARK  Name = ZINC13443742
REMARK  5 active torsions:
REMARK  status: ('A' for Active; 'I' for Inactive)
REMARK    1  A    between atoms: C_3  and  C_24
REMARK    2  A    between atoms: C_6  and  C_7
REMARK    3  A    between atoms: C_7  and  C_8
REMARK    4  A    between atoms: C_8  and  N_9
REMARK    5  A    between atoms: C_10  and  C_12
REMARK                            x       y       z     vdW  Elec       q    Type
REMARK                         _______ _______ _______ _____ _____    ______ ____
ROOT
ATOM      1  N   UNL     1       1.330   6.895  -4.029  0.00  0.00    -0.311 N 
ATOM      2  C   UNL     1       0.662   6.722  -2.871  0.00  0.00    +0.244 C 
ATOM      3  O   UNL     1       0.353   7.686  -2.198  0.00  0.00    -0.270 OA
ATOM      4  H   UNL     1       1.576   6.126  -4.566  0.00  0.00    +0.149 HD
ENDROOT
BRANCH   2   5
ATOM      5  C   UNL     1       0.305   5.362  -2.421  0.00  0.00    +0.042 A 
ATOM      6  C   UNL     1      -0.387   5.182  -1.220  0.00  0.00    +0.062 A 
ATOM      7  C   UNL     1      -0.716   3.906  -0.806  0.00  0.00    +0.164 A 
ATOM      8  C   UNL     1      -0.360   2.807  -1.580  0.00  0.00    +0.180 A 
ATOM      9  C   UNL     1       0.327   2.983  -2.773  0.00  0.00    +0.087 A 
ATOM     10  C   UNL     1       0.660   4.254  -3.194  0.00  0.00    +0.037 A 
ATOM     11 CL   UNL     1       0.767   1.606  -3.734  0.00  0.00    -0.080 Cl
ATOM     12  O   UNL     1      -0.692   1.553  -1.159  0.00  0.00    -0.487 OA
ATOM     13  C   UNL     1      -0.013   1.086   0.008  0.00  0.00    +0.232 C 
ATOM     14  C   UNL     1      -0.712   1.570   1.269  0.00  0.00    +0.082 C 
ATOM     15  C   UNL     1      -0.661   3.083   1.414  0.00  0.00    +0.232 C 
ATOM     16  O   UNL     1      -1.393   3.717   0.363  0.00  0.00    -0.488 OA
ENDBRANCH   2   5
BRANCH   1  17
ATOM     17  C   UNL     1       1.684   8.245  -4.476  0.00  0.00    +0.109 C 
BRANCH  17  18
ATOM     18  C   UNL     1       2.431   8.161  -5.808  0.00  0.00    +0.054 C 
BRANCH  18  24
ATOM     19  C   UNL     1       1.922  10.260  -7.072  0.00  0.00    +0.004 A 
ATOM     20  C   UNL     1       2.247  11.533  -7.492  0.00  0.00    +0.015 A 
ATOM     21  C   UNL     1       3.465  12.100  -7.113  0.00  0.00    +0.063 A 
ATOM     22  C   UNL     1       4.344  11.376  -6.306  0.00  0.00    +0.015 A 
ATOM     23  C   UNL     1       4.004  10.106  -5.888  0.00  0.00    +0.004 A 
ATOM     24  C   UNL     1       2.795   9.549  -6.268  0.00  0.00    -0.046 A 
BRANCH  21  25
ATOM     25  C   UNL     1       3.822  13.461  -7.564  0.00  0.00    +0.387 C 
ATOM     26  O   UNL     1       4.882  13.952  -7.232  0.00  0.00    -0.241 OA
ATOM     27  O   UNL     1       2.972  14.157  -8.343  0.00  0.00    -0.241 OA
ENDBRANCH  21  25
ENDBRANCH  18  24
ENDBRANCH  17  18
ENDBRANCH   1  17
TORSDOF 5
