REMARK  Name = ZINC39945422
REMARK  6 active torsions:
REMARK  status: ('A' for Active; 'I' for Inactive)
REMARK    1  A    between atoms: C_4  and  N_7
REMARK    2  A    between atoms: C_8  and  S_22
REMARK    3  A    between atoms: C_12  and  C_13
REMARK    4  A    between atoms: S_22  and  C_23
REMARK    5  A    between atoms: C_23  and  C_24
REMARK    6  A    between atoms: C_24  and  C_26
REMARK                            x       y       z     vdW  Elec       q    Type
REMARK                         _______ _______ _______ _____ _____    ______ ____
ROOT
ATOM      1  N   UNL     1       3.620  -0.649  -0.031  0.00  0.00    -0.254 N 
ATOM      2  C   UNL     1       3.817  -2.105   0.054  0.00  0.00    +0.241 C 
ATOM      3  N   UNL     1       5.277  -2.279  -0.015  0.00  0.00    -0.237 N 
ATOM      4  N   UNL     1       5.825  -0.996  -0.129  0.00  0.00    -0.169 NA
ATOM      5  C   UNL     1       4.892  -0.081  -0.144  0.00  0.00    +0.151 C 
ATOM      6  H   UNL     1       5.764  -3.117   0.014  0.00  0.00    +0.171 HD
ENDROOT
BRANCH   5   7
ATOM      7  C   UNL     1       5.137   1.297  -0.256  0.00  0.00    +0.022 C 
ATOM      8  C   UNL     1       6.366   1.921  -0.468  0.00  0.00    +0.006 A 
ATOM      9  C   UNL     1       7.675   1.418  -0.630  0.00  0.00    +0.010 A 
ATOM     10  C   UNL     1       8.707   2.278  -0.827  0.00  0.00    +0.001 A 
ATOM     11  C   UNL     1       8.509   3.660  -0.874  0.00  0.00    +0.002 A 
ATOM     12  C   UNL     1       7.280   4.212  -0.726  0.00  0.00    +0.026 A 
ATOM     13  C   UNL     1       6.152   3.376  -0.517  0.00  0.00    +0.043 A 
ATOM     14  N   UNL     1       4.875   3.661  -0.348  0.00  0.00    -0.380 N 
ATOM     15  C   UNL     1       4.121   2.415  -0.177  0.00  0.00    +0.152 C 
ATOM     16  H   UNL     1       4.495   4.553  -0.342  0.00  0.00    +0.160 HD
ENDBRANCH   5   7
BRANCH   1  20
ATOM     17  C   UNL     1      -0.016   1.380   0.036  0.00  0.00    +0.000 A 
ATOM     18  C   UNL     1       0.491   0.912  -1.163  0.00  0.00    +0.002 A 
ATOM     19  C   UNL     1       1.697   0.239  -1.188  0.00  0.00    +0.023 A 
ATOM     20  C   UNL     1       2.401   0.032  -0.008  0.00  0.00    +0.038 A 
ATOM     21  C   UNL     1       1.888   0.503   1.194  0.00  0.00    +0.023 A 
ATOM     22  C   UNL     1       0.682   1.175   1.212  0.00  0.00    +0.002 A 
ENDBRANCH   1  20
BRANCH   2  23
ATOM     23  S   UNL     1       3.172  -2.742   1.626  0.00  0.00    -0.110 S 
BRANCH  23  24
ATOM     24  C   UNL     1       4.136  -1.860   2.885  0.00  0.00    +0.147 C 
BRANCH  24  25
ATOM     25  C   UNL     1       3.695  -2.302   4.256  0.00  0.00    +0.149 C 
ATOM     26  O   UNL     1       2.820  -3.127   4.372  0.00  0.00    -0.296 OA
BRANCH  25  27
ATOM     27  C   UNL     1       4.344  -1.715   5.482  0.00  0.00    +0.031 C 
ATOM     28  C   UNL     1       4.132  -0.200   5.496  0.00  0.00    +0.018 C 
ATOM     29  C   UNL     1       4.792   0.396   6.741  0.00  0.00    -0.010 C 
ATOM     30  C   UNL     1       4.165  -0.218   7.994  0.00  0.00    +0.007 C 
ATOM     31  C   UNL     1       4.377  -1.733   7.981  0.00  0.00    -0.010 C 
ATOM     32  C   UNL     1       3.717  -2.329   6.736  0.00  0.00    +0.018 C 
ATOM     33  C   UNL     1       5.876  -2.038   7.959  0.00  0.00    +0.007 C 
ATOM     34  C   UNL     1       6.503  -1.424   6.706  0.00  0.00    -0.010 C 
ATOM     35  C   UNL     1       6.291   0.091   6.720  0.00  0.00    +0.007 C 
ATOM     36  C   UNL     1       5.843  -2.020   5.461  0.00  0.00    +0.018 C 
ENDBRANCH  25  27
ENDBRANCH  24  25
ENDBRANCH  23  24
ENDBRANCH   2  23
TORSDOF 6
