REMARK  Name = ZINC24073322
REMARK  5 active torsions:
REMARK  status: ('A' for Active; 'I' for Inactive)
REMARK    1  A    between atoms: C_5  and  N_7
REMARK    2  A    between atoms: C_11  and  S_13
REMARK    3  A    between atoms: S_13  and  C_14
REMARK    4  A    between atoms: C_14  and  C_15
REMARK    5  A    between atoms: C_21  and  C_26
REMARK                            x       y       z     vdW  Elec       q    Type
REMARK                         _______ _______ _______ _____ _____    ______ ____
ROOT
ATOM      1  C   UNL     1      -5.811  -6.143   0.632  0.00  0.00    +0.121 A 
ATOM      2  N   UNL     1      -7.117  -5.770   0.663  0.00  0.00    -0.310 N 
ATOM      3  H   UNL     1      -7.343  -4.829   0.599  0.00  0.00    +0.170 HD
ATOM      4  C   UNL     1      -8.101  -6.679   0.780  0.00  0.00    +0.260 A 
ATOM      5  O   UNL     1      -9.268  -6.328   0.805  0.00  0.00    -0.267 OA
ATOM      6  C   UNL     1      -7.758  -8.066   0.873  0.00  0.00    +0.080 A 
ATOM      7  C   UNL     1      -8.631  -9.226   1.004  0.00  0.00    +0.004 A 
ATOM      8  C   UNL     1      -8.072 -10.458   1.074  0.00  0.00    +0.056 A 
ATOM      9  S   UNL     1      -6.324 -10.124   0.968  0.00  0.00    -0.076 S 
ATOM     10  C   UNL     1      -6.385  -8.356   0.833  0.00  0.00    +0.116 A 
ATOM     11  N   UNL     1      -5.467  -7.400   0.711  0.00  0.00    -0.226 NA
ENDROOT
BRANCH   7  12
ATOM     12  C   UNL     1     -10.104  -9.061   1.058  0.00  0.00    -0.016 A 
ATOM     13  C   UNL     1     -10.672  -8.139   1.937  0.00  0.00    +0.011 A 
ATOM     14  C   UNL     1     -12.042  -7.988   1.984  0.00  0.00    +0.039 A 
ATOM     15  C   UNL     1     -12.854  -8.752   1.160  0.00  0.00    +0.123 A 
ATOM     16  C   UNL     1     -12.294  -9.669   0.286  0.00  0.00    +0.039 A 
ATOM     17  C   UNL     1     -10.924  -9.822   0.228  0.00  0.00    +0.011 A 
ATOM     18  F   UNL     1     -14.196  -8.601   1.210  0.00  0.00    -0.205 F 
ENDBRANCH   7  12
BRANCH   1  19
ATOM     19  C   UNL     1      -4.742  -5.089   0.500  0.00  0.00    +0.150 C 
BRANCH  19  20
ATOM     20  S   UNL     1      -3.111  -5.882   0.480  0.00  0.00    -0.089 S 
BRANCH  20  25
ATOM     21  N   UNL     1       1.237  -2.079  -0.021  0.00  0.00    -0.290 N 
ATOM     22  C   UNL     1       0.050  -2.794   0.091  0.00  0.00    +0.187 A 
ATOM     23  N   UNL     1      -1.192  -2.352   0.119  0.00  0.00    -0.125 NA
ATOM     24  N   UNL     1      -2.234  -3.243   0.237  0.00  0.00    -0.133 NA
ATOM     25  C   UNL     1      -1.985  -4.536   0.322  0.00  0.00    +0.160 A 
ATOM     26  S   UNL     1      -0.201  -4.557   0.229  0.00  0.00    -0.024 S 
ATOM     27  H   UNL     1       2.088  -2.538   0.056  0.00  0.00    +0.154 HD
BRANCH  21  32
ATOM     28  C   UNL     1      -0.026   1.290  -0.777  0.00  0.00    +0.002 A 
ATOM     29  C   UNL     1       1.137   2.033  -0.690  0.00  0.00    +0.003 A 
ATOM     30  C   UNL     1       2.335   1.414  -0.382  0.00  0.00    +0.040 A 
ATOM     31  C   UNL     1       2.373   0.050  -0.159  0.00  0.00    +0.144 A 
ATOM     32  C   UNL     1       1.204  -0.699  -0.245  0.00  0.00    +0.068 A 
ATOM     33  C   UNL     1       0.004  -0.073  -0.556  0.00  0.00    +0.026 A 
ATOM     34  F   UNL     1       3.543  -0.555   0.143  0.00  0.00    -0.204 F 
ENDBRANCH  21  32
ENDBRANCH  20  25
ENDBRANCH  19  20
ENDBRANCH   1  19
TORSDOF 5
