REMARK  Name = ZINC30000173
REMARK  9 active torsions:
REMARK  status: ('A' for Active; 'I' for Inactive)
REMARK    1  A    between atoms: C_1  and  C_2
REMARK    2  A    between atoms: C_5  and  C_8
REMARK    3  A    between atoms: C_8  and  C_34
REMARK    4  A    between atoms: N_11  and  C_15
REMARK    5  A    between atoms: C_15  and  C_16
REMARK    6  A    between atoms: N_18  and  C_19
REMARK    7  A    between atoms: C_19  and  C_21
REMARK    8  A    between atoms: C_19  and  C_28
REMARK    9  A    between atoms: N_32  and  C_33
REMARK                            x       y       z     vdW  Elec       q    Type
REMARK                         _______ _______ _______ _____ _____    ______ ____
ROOT
ATOM      1  C   UNL     1       1.474  -2.252  -1.639  0.00  0.00    +0.232 C 
ATOM      2  O   UNL     1       1.300  -1.548  -2.612  0.00  0.00    -0.274 OA
ATOM      3  N   UNL     1       2.077  -3.449  -1.773  0.00  0.00    -0.300 N 
ATOM      4  H   UNL     1       2.235  -4.087  -0.891  0.00  0.00    +0.150 HD
ENDROOT
BRANCH   1   5
ATOM      5  C   UNL     1       1.015  -1.787  -0.281  0.00  0.00    +0.213 C 
BRANCH   5   9
ATOM      6  C   UNL     1      -1.098   1.242  -0.679  0.00  0.00    +0.135 C 
ATOM      7  C   UNL     1      -0.917  -0.263  -0.634  0.00  0.00    +0.251 C 
ATOM      8  O   UNL     1      -1.775  -1.108  -0.776  0.00  0.00    -0.272 OA
ATOM      9  N   UNL     1       0.395  -0.465  -0.402  0.00  0.00    -0.215 N 
ATOM     10  C   UNL     1       1.061   0.690  -0.295  0.00  0.00    +0.310 C 
ATOM     11  O   UNL     1       2.256   0.764  -0.086  0.00  0.00    -0.252 OA
ATOM     12  N   UNL     1       0.260   1.761  -0.445  0.00  0.00    -0.281 N 
ATOM     13  C   UNL     1      -1.613   1.681  -2.051  0.00  0.00    +0.047 C 
ATOM     14  H   UNL     1       0.438   2.846  -0.424  0.00  0.00    +0.152 HD
BRANCH   6  19
ATOM     15  C   UNL     1      -4.689   2.985   3.499  0.00  0.00    +0.044 C 
ATOM     16  C   UNL     1      -3.753   2.530   2.409  0.00  0.00    -0.050 A 
ATOM     17  C   UNL     1      -2.749   3.370   1.966  0.00  0.00    +0.004 A 
ATOM     18  C   UNL     1      -1.890   2.953   0.967  0.00  0.00    +0.006 A 
ATOM     19  C   UNL     1      -2.035   1.696   0.410  0.00  0.00    -0.015 A 
ATOM     20  C   UNL     1      -3.042   0.858   0.850  0.00  0.00    +0.006 A 
ATOM     21  C   UNL     1      -3.898   1.273   1.853  0.00  0.00    +0.004 A 
ENDBRANCH   6  19
ENDBRANCH   5   9
ENDBRANCH   1   5
BRANCH   3  22
ATOM     22  C   UNL     1       2.523  -3.901  -3.093  0.00  0.00    +0.172 C 
BRANCH  22  23
ATOM     23  C   UNL     1       2.535  -5.408  -3.131  0.00  0.00    +0.015 A 
ATOM     24  C   UNL     1       2.728  -6.127  -1.967  0.00  0.00    +0.009 A 
ATOM     25  C   UNL     1       2.733  -7.509  -2.000  0.00  0.00    +0.001 A 
ATOM     26  C   UNL     1       2.556  -8.173  -3.200  0.00  0.00    +0.003 A 
ATOM     27  C   UNL     1       2.369  -7.456  -4.366  0.00  0.00    +0.039 A 
ATOM     28  C   UNL     1       2.358  -6.072  -4.333  0.00  0.00    +0.129 A 
ATOM     29  F   UNL     1       2.176  -5.370  -5.473  0.00  0.00    -0.205 F 
ENDBRANCH  22  23
BRANCH  22  30
ATOM     30  C   UNL     1       3.913  -3.381  -3.360  0.00  0.00    +0.134 A 
ATOM     31  N   UNL     1       4.905  -3.395  -2.512  0.00  0.00    -0.238 NA
ATOM     32  C   UNL     1       5.988  -2.855  -3.091  0.00  0.00    +0.130 A 
ATOM     33  C   UNL     1       5.651  -2.485  -4.341  0.00  0.00    +0.106 A 
ATOM     34  N   UNL     1       4.335  -2.819  -4.512  0.00  0.00    -0.336 N 
ATOM     35  C   UNL     1       3.534  -2.606  -5.721  0.00  0.00    +0.150 C 
ENDBRANCH  22  30
ENDBRANCH   3  22
TORSDOF 6
