REMARK  Name = ZINC39687109
REMARK  9 active torsions:
REMARK  status: ('A' for Active; 'I' for Inactive)
REMARK    1  A    between atoms: C_1  and  C_2
REMARK    2  A    between atoms: C_4  and  C_7
REMARK    3  A    between atoms: C_8  and  C_13
REMARK    4  A    between atoms: C_9  and  C_12
REMARK    5  A    between atoms: C_17  and  C_26
REMARK    6  A    between atoms: N_28  and  C_29
REMARK    7  A    between atoms: C_29  and  C_31
REMARK    8  A    between atoms: C_29  and  C_32
REMARK    9  A    between atoms: C_32  and  C_33
REMARK                            x       y       z     vdW  Elec       q    Type
REMARK                         _______ _______ _______ _____ _____    ______ ____
ROOT
ATOM      1  C   UNL     1      -0.048  -5.163  -0.210  0.00  0.00    +0.252 C 
ATOM      2  O   UNL     1       0.397  -5.363   0.904  0.00  0.00    -0.270 OA
ATOM      3  N   UNL     1       0.734  -5.356  -1.292  0.00  0.00    -0.296 N 
ATOM      4  C   UNL     1       0.376  -5.161  -2.716  0.00  0.00    +0.121 C 
ATOM      5  C   UNL     1       1.637  -4.536  -3.353  0.00  0.00    +0.100 C 
ATOM      6  C   UNL     1       2.795  -4.967  -2.437  0.00  0.00    -0.004 C 
ATOM      7  C   UNL     1       2.146  -5.804  -1.324  0.00  0.00    +0.115 C 
ATOM      8  C   UNL     1       3.800  -5.810  -3.215  0.00  0.00    -0.010 C 
ATOM      9  C   UNL     1       4.970  -6.178  -2.298  0.00  0.00    -0.082 C 
ATOM     10  N   UNL     1       5.608  -4.953  -1.802  0.00  0.00    +0.379 N 
ATOM     11  C   UNL     1       4.661  -4.194  -0.976  0.00  0.00    -0.082 C 
ATOM     12  C   UNL     1       3.478  -3.742  -1.838  0.00  0.00    -0.010 C 
ATOM     13  H   UNL     1       6.415  -5.197  -1.247  0.00  0.00    -0.086 HD
ATOM     14  H   UNL     1       5.900  -4.386  -2.584  0.00  0.00    -0.086 HD
ENDROOT
BRANCH   1  16
ATOM     15  C   UNL     1      -1.878  -3.396  -0.416  0.00  0.00    +0.201 A 
ATOM     16  C   UNL     1      -1.439  -4.712  -0.378  0.00  0.00    +0.108 A 
ATOM     17  C   UNL     1      -2.579  -5.540  -0.530  0.00  0.00    +0.093 A 
ATOM     18  N   UNL     1      -3.622  -4.774  -0.651  0.00  0.00    -0.082 NA
ATOM     19  O   UNL     1      -3.211  -3.423  -0.578  0.00  0.00    -0.352 OA
ATOM     20  C   UNL     1      -2.580  -7.046  -0.550  0.00  0.00    +0.070 C 
BRANCH  15  24
ATOM     21  C   UNL     1      -0.447   1.466  -0.167  0.00  0.00    +0.089 C 
ATOM     22  C   UNL     1      -0.421  -0.041  -0.187  0.00  0.00    +0.135 A 
ATOM     23  C   UNL     1      -1.489  -0.845  -0.329  0.00  0.00    +0.079 A 
ATOM     24  C   UNL     1      -1.035  -2.187  -0.295  0.00  0.00    +0.152 A 
ATOM     25  N   UNL     1       0.268  -2.165  -0.136  0.00  0.00    -0.075 NA
ATOM     26  O   UNL     1       0.673  -0.809  -0.071  0.00  0.00    -0.359 OA
ENDBRANCH  15  24
ENDBRANCH   1  16
BRANCH   5  27
ATOM     27  C   UNL     1       1.521  -3.034  -3.384  0.00  0.00    +0.218 C 
ATOM     28  O   UNL     1       0.915  -2.455  -2.507  0.00  0.00    -0.275 OA
ATOM     29  N   UNL     1       2.089  -2.334  -4.386  0.00  0.00    -0.312 N 
ATOM     30  H   UNL     1       2.574  -2.797  -5.087  0.00  0.00    +0.149 HD
BRANCH  29  31
ATOM     31  C   UNL     1       1.976  -0.874  -4.416  0.00  0.00    +0.074 C 
ATOM     32  C   UNL     1       0.658  -0.478  -5.084  0.00  0.00    +0.028 C 
BRANCH  31  33
ATOM     33  C   UNL     1       3.146  -0.288  -5.209  0.00  0.00    +0.060 C 
BRANCH  33  34
ATOM     34  C   UNL     1       4.436  -0.573  -4.484  0.00  0.00    -0.010 A 
ATOM     35  C   UNL     1       4.970   0.369  -3.625  0.00  0.00    +0.006 A 
ATOM     36  C   UNL     1       6.153   0.108  -2.961  0.00  0.00    +0.000 A 
ATOM     37  C   UNL     1       6.805  -1.095  -3.155  0.00  0.00    +0.003 A 
ATOM     38  C   UNL     1       6.274  -2.039  -4.013  0.00  0.00    +0.038 A 
ATOM     39  C   UNL     1       5.085  -1.780  -4.676  0.00  0.00    +0.127 A 
ATOM     40  F   UNL     1       4.562  -2.704  -5.511  0.00  0.00    -0.205 F 
ENDBRANCH  33  34
ENDBRANCH  31  33
ENDBRANCH  29  31
ENDBRANCH   5  27
TORSDOF 6
