REMARK  Name = ZINC22126705
REMARK  7 active torsions:
REMARK  status: ('A' for Active; 'I' for Inactive)
REMARK    1  A    between atoms: C_1  and  C_2
REMARK    2  A    between atoms: C_8  and  C_16
REMARK    3  A    between atoms: C_16  and  O_18
REMARK    4  A    between atoms: O_18  and  C_19
REMARK    5  A    between atoms: C_19  and  C_20
REMARK    6  A    between atoms: N_22  and  C_23
REMARK    7  A    between atoms: C_23  and  C_29
REMARK                            x       y       z     vdW  Elec       q    Type
REMARK                         _______ _______ _______ _____ _____    ______ ____
ROOT
ATOM      1  C   UNL     1       1.502   3.343   0.006  0.00  0.00    +0.341 C 
ATOM      2  O   UNL     1       0.529   4.070   0.019  0.00  0.00    -0.245 OA
ENDROOT
BRANCH   1  10
ATOM      3  C   UNL     1       2.928   3.995  -4.943  0.00  0.00    +0.044 C 
ATOM      4  C   UNL     1       3.580   4.266  -3.611  0.00  0.00    -0.050 A 
ATOM      5  C   UNL     1       4.859   4.818  -3.571  0.00  0.00    +0.005 A 
ATOM      6  C   UNL     1       5.475   5.074  -2.385  0.00  0.00    +0.028 A 
ATOM      7  C   UNL     1       4.816   4.780  -1.177  0.00  0.00    +0.072 A 
ATOM      8  C   UNL     1       3.518   4.214  -1.224  0.00  0.00    +0.015 A 
ATOM      9  C   UNL     1       2.911   3.968  -2.462  0.00  0.00    +0.014 A 
ATOM     10  C   UNL     1       2.860   3.927  -0.004  0.00  0.00    +0.073 A 
ATOM     11  C   UNL     1       3.529   4.202   1.188  0.00  0.00    -0.012 A 
ATOM     12  C   UNL     1       4.803   4.751   1.149  0.00  0.00    +0.046 A 
ATOM     13  N   UNL     1       5.392   5.019  -0.001  0.00  0.00    -0.251 NA
ATOM     14  C   UNL     1       5.579   5.063   2.405  0.00  0.00    +0.056 C 
ATOM     15  C   UNL     1       4.646   5.122   3.612  0.00  0.00    +0.006 C 
ATOM     16  C   UNL     1       3.806   3.840   3.639  0.00  0.00    +0.005 C 
ATOM     17  C   UNL     1       2.816   3.889   2.477  0.00  0.00    +0.038 C 
ENDBRANCH   1  10
BRANCH   1  18
ATOM     18  O   UNL     1       1.344   2.005   0.000  0.00  0.00    -0.452 OA
BRANCH  18  19
ATOM     19  C   UNL     1      -0.018   1.503   0.010  0.00  0.00    +0.328 C 
BRANCH  19  20
ATOM     20  C   UNL     1       0.002  -0.004   0.002  0.00  0.00    +0.252 C 
ATOM     21  O   UNL     1       1.060  -0.596  -0.011  0.00  0.00    -0.272 OA
ATOM     22  N   UNL     1      -1.156  -0.694   0.009  0.00  0.00    -0.295 N 
ATOM     23  H   UNL     1      -2.116  -0.157   0.021  0.00  0.00    +0.150 HD
BRANCH  22  24
ATOM     24  C   UNL     1      -1.136  -2.159   0.001  0.00  0.00    +0.121 C 
ATOM     25  C   UNL     1      -0.420  -2.652  -1.258  0.00  0.00    +0.041 C 
ATOM     26  C   UNL     1      -0.399  -4.182  -1.266  0.00  0.00    +0.003 C 
ATOM     27  C   UNL     1      -1.835  -4.711  -1.255  0.00  0.00    +0.000 C 
ATOM     28  C   UNL     1      -2.551  -4.218   0.004  0.00  0.00    +0.003 C 
ATOM     29  C   UNL     1      -2.571  -2.688   0.012  0.00  0.00    +0.041 C 
BRANCH  24  30
ATOM     30  C   UNL     1      -0.424  -2.646   1.194  0.00  0.00    +0.088 C 
ATOM     31  N   UNL     1       0.125  -3.022   2.114  0.00  0.00    -0.194 NA
ENDBRANCH  24  30
ENDBRANCH  22  24
ENDBRANCH  19  20
ENDBRANCH  18  19
ENDBRANCH   1  18
TORSDOF 6
