REMARK  Name = ZINC09167389
REMARK  5 active torsions:
REMARK  status: ('A' for Active; 'I' for Inactive)
REMARK    1  A    between atoms: C_1  and  C_2
REMARK    2  A    between atoms: C_5  and  N_8
REMARK    3  A    between atoms: C_9  and  C_31
REMARK    4  A    between atoms: C_11  and  C_16
REMARK    5  A    between atoms: N_18  and  N_19
REMARK                            x       y       z     vdW  Elec       q    Type
REMARK                         _______ _______ _______ _____ _____    ______ ____
ROOT
ATOM      1  N   UNL     1      -4.675  -0.333   2.884  0.00  0.00    -0.263 N 
ATOM      2  C   UNL     1      -5.101   1.035   2.566  0.00  0.00    +0.130 C 
ATOM      3  C   UNL     1      -4.764   1.234   1.072  0.00  0.00    +0.111 C 
ATOM      4  C   UNL     1      -4.790  -0.219   0.546  0.00  0.00    +0.111 C 
ATOM      5  C   UNL     1      -4.498  -1.061   1.768  0.00  0.00    +0.221 C 
ATOM      6  O   UNL     1      -4.155  -2.224   1.745  0.00  0.00    -0.275 OA
ENDROOT
BRANCH   1  11
ATOM      7  C   UNL     1      -3.875  -2.294   8.147  0.00  0.00    +0.044 C 
ATOM      8  C   UNL     1      -4.088  -1.773   6.749  0.00  0.00    -0.050 A 
ATOM      9  C   UNL     1      -4.607  -0.506   6.556  0.00  0.00    +0.005 A 
ATOM     10  C   UNL     1      -4.803  -0.026   5.277  0.00  0.00    +0.024 A 
ATOM     11  C   UNL     1      -4.478  -0.817   4.182  0.00  0.00    +0.037 A 
ATOM     12  C   UNL     1      -3.962  -2.091   4.379  0.00  0.00    +0.024 A 
ATOM     13  C   UNL     1      -3.763  -2.563   5.662  0.00  0.00    +0.005 A 
ENDBRANCH   1  11
BRANCH   2  14
ATOM     14  C   UNL     1      -4.342   2.027   3.409  0.00  0.00    +0.011 A 
ATOM     15  C   UNL     1      -4.747   3.230   3.885  0.00  0.00    +0.013 A 
ATOM     16  C   UNL     1      -3.872   3.978   4.649  0.00  0.00    +0.008 A 
ATOM     17  C   UNL     1      -2.630   3.491   4.892  0.00  0.00    +0.045 A 
ATOM     18  S   UNL     1      -2.672   1.927   4.033  0.00  0.00    -0.100 S 
ENDBRANCH   2  14
BRANCH   3  19
ATOM     19  C   UNL     1      -3.397   1.845   0.904  0.00  0.00    +0.235 C 
ATOM     20  O   UNL     1      -2.426   1.298   1.384  0.00  0.00    -0.274 OA
ATOM     21  N   UNL     1      -3.252   2.997   0.221  0.00  0.00    -0.223 N 
ATOM     22  H   UNL     1      -4.029   3.434  -0.163  0.00  0.00    +0.174 HD
BRANCH  21  23
ATOM     23  N   UNL     1      -1.981   3.564   0.065  0.00  0.00    -0.137 N 
ATOM     24  C   UNL     1      -1.271   3.531  -1.082  0.00  0.00    +0.263 C 
ATOM     25  O   UNL     1      -1.599   3.025  -2.134  0.00  0.00    -0.271 OA
ATOM     26  C   UNL     1       0.016   4.264  -0.782  0.00  0.00    +0.114 C 
ATOM     27  C   UNL     1       0.147   5.495  -1.672  0.00  0.00    +0.035 C 
ATOM     28  C   UNL     1       1.441   6.239  -1.332  0.00  0.00    +0.003 C 
ATOM     29  C   UNL     1       2.635   5.305  -1.544  0.00  0.00    +0.000 C 
ATOM     30  C   UNL     1       2.502   4.088  -0.627  0.00  0.00    +0.003 C 
ATOM     31  C   UNL     1       1.212   3.336  -0.964  0.00  0.00    +0.035 C 
ATOM     32  N   UNL     1      -0.119   4.660   0.626  0.00  0.00    -0.284 N 
ATOM     33  C   UNL     1      -1.317   4.203   1.036  0.00  0.00    +0.326 C 
ATOM     34  O   UNL     1      -1.751   4.359   2.161  0.00  0.00    -0.251 OA
ATOM     35  H   UNL     1       0.527   5.152   1.155  0.00  0.00    +0.151 HD
ENDBRANCH  21  23
ENDBRANCH   3  19
TORSDOF 4
