REMARK  Name = ZINC25688853
REMARK  9 active torsions:
REMARK  status: ('A' for Active; 'I' for Inactive)
REMARK    1  A    between atoms: C_1  and  C_2
REMARK    2  A    between atoms: C_2  and  C_4
REMARK    3  A    between atoms: C_2  and  N_12
REMARK    4  A    between atoms: C_13  and  C_15
REMARK    5  A    between atoms: C_15  and  C_17
REMARK    6  A    between atoms: C_15  and  N_20
REMARK    7  A    between atoms: C_17  and  C_18
REMARK    8  A    between atoms: C_17  and  C_19
REMARK    9  A    between atoms: C_21  and  C_23
REMARK                            x       y       z     vdW  Elec       q    Type
REMARK                         _______ _______ _______ _____ _____    ______ ____
ROOT
ATOM      1  N   UNL     1       1.144  -0.159  -1.582  0.00  0.00    -0.307 N 
ATOM      2  C   UNL     1       2.320  -0.702  -1.208  0.00  0.00    +0.234 C 
ATOM      3  O   UNL     1       2.562  -0.872  -0.032  0.00  0.00    -0.274 OA
ATOM      4  H   UNL     1       0.918  -0.092  -2.523  0.00  0.00    +0.149 HD
ENDROOT
BRANCH   1   6
ATOM      5  C   UNL     1       0.520   1.795  -0.249  0.00  0.00    +0.033 C 
ATOM      6  C   UNL     1       0.208   0.331  -0.567  0.00  0.00    +0.103 C 
BRANCH   6   7
ATOM      7  C   UNL     1      -1.202   0.220  -1.089  0.00  0.00    +0.008 A 
ATOM      8  C   UNL     1      -1.441   0.277  -2.449  0.00  0.00    +0.011 A 
ATOM      9  C   UNL     1      -2.733   0.175  -2.929  0.00  0.00    +0.039 A 
ATOM     10  C   UNL     1      -3.789   0.016  -2.047  0.00  0.00    +0.126 A 
ATOM     11  C   UNL     1      -3.551  -0.041  -0.685  0.00  0.00    +0.077 A 
ATOM     12  C   UNL     1      -2.255   0.056  -0.206  0.00  0.00    +0.131 A 
ATOM     13  F   UNL     1      -2.020  -0.005   1.123  0.00  0.00    -0.205 F 
ATOM     14  F   UNL     1      -5.052  -0.083  -2.517  0.00  0.00    -0.205 F 
ENDBRANCH   6   7
ENDBRANCH   1   6
BRANCH   2  15
ATOM     15  C   UNL     1       3.332  -1.098  -2.251  0.00  0.00    +0.162 C 
BRANCH  15  16
ATOM     16  N   UNL     1       4.679  -1.022  -1.678  0.00  0.00    -0.299 N 
ATOM     17  C   UNL     1       5.743  -0.831  -2.482  0.00  0.00    +0.251 C 
ATOM     18  O   UNL     1       5.586  -0.722  -3.684  0.00  0.00    -0.270 OA
ATOM     19  H   UNL     1       4.804  -1.109  -0.720  0.00  0.00    +0.150 HD
BRANCH  17  20
ATOM     20  C   UNL     1       7.090  -0.755  -1.909  0.00  0.00    +0.074 A 
ATOM     21  C   UNL     1       8.303  -0.560  -2.552  0.00  0.00    +0.021 A 
ATOM     22  C   UNL     1       9.412  -0.534  -1.739  0.00  0.00    +0.008 A 
ATOM     23  C   UNL     1       9.253  -0.696  -0.403  0.00  0.00    +0.046 A 
ATOM     24  S   UNL     1       7.595  -0.881  -0.204  0.00  0.00    -0.092 S 
ENDBRANCH  17  20
ENDBRANCH  15  16
BRANCH  15  25
ATOM     25  C   UNL     1       3.055  -2.530  -2.713  0.00  0.00    +0.012 C 
ATOM     26  C   UNL     1       1.684  -2.591  -3.389  0.00  0.00    +0.009 C 
ATOM     27  C   UNL     1       4.134  -2.962  -3.708  0.00  0.00    +0.009 C 
ENDBRANCH  15  25
ENDBRANCH   2  15
TORSDOF 6
