REMARK  Name = ZINC09620583
REMARK  7 active torsions:
REMARK  status: ('A' for Active; 'I' for Inactive)
REMARK    1  A    between atoms: C_4  and  C_7
REMARK    2  A    between atoms: C_7  and  C_9
REMARK    3  A    between atoms: C_7  and  N_14
REMARK    4  A    between atoms: C_15  and  C_17
REMARK    5  A    between atoms: C_17  and  N_53
REMARK    6  A    between atoms: N_20  and  S_23
REMARK    7  A    between atoms: S_23  and  C_26
REMARK                            x       y       z     vdW  Elec       q    Type
REMARK                         _______ _______ _______ _____ _____    ______ ____
ROOT
ATOM      1  N   UNL     1      -0.756   0.862  -4.806  0.00  0.00    -0.306 N 
ATOM      2  C   UNL     1      -1.068   1.304  -3.572  0.00  0.00    +0.197 C 
ATOM      3  O   UNL     1      -2.071   1.963  -3.400  0.00  0.00    -0.278 OA
ATOM      4  H   UNL     1       0.047   0.335  -4.944  0.00  0.00    +0.150 HD
ENDROOT
BRANCH   1   5
ATOM      5  C   UNL     1      -1.629   1.176  -5.939  0.00  0.00    +0.140 C 
BRANCH   5   9
ATOM      6  C   UNL     1       0.639   1.069  -9.557  0.00  0.00    +0.000 A 
ATOM      7  C   UNL     1      -0.316   2.051  -9.369  0.00  0.00    +0.000 A 
ATOM      8  C   UNL     1      -1.050   2.085  -8.198  0.00  0.00    +0.006 A 
ATOM      9  C   UNL     1      -0.829   1.138  -7.216  0.00  0.00    -0.022 A 
ATOM     10  C   UNL     1       0.130   0.160  -7.402  0.00  0.00    +0.006 A 
ATOM     11  C   UNL     1       0.861   0.123  -8.574  0.00  0.00    +0.000 A 
ENDBRANCH   5   9
BRANCH   5  12
ATOM     12  C   UNL     1      -2.741   0.162  -6.013  0.00  0.00    +0.014 A 
ATOM     13  C   UNL     1      -4.052   0.351  -6.301  0.00  0.00    +0.013 A 
ATOM     14  C   UNL     1      -4.901  -0.740  -6.313  0.00  0.00    +0.008 A 
ATOM     15  C   UNL     1      -4.397  -1.967  -6.036  0.00  0.00    +0.045 A 
ATOM     16  S   UNL     1      -2.672  -1.603  -5.752  0.00  0.00    -0.099 S 
ENDBRANCH   5  12
ENDBRANCH   1   5
BRANCH   2  17
ATOM     17  C   UNL     1      -0.170   0.981  -2.406  0.00  0.00    +0.019 C 
BRANCH  17  23
ATOM     18  C   UNL     1      -0.013   1.086   0.008  0.00  0.00    -0.061 C 
ATOM     19  C   UNL     1      -0.731   1.581   1.268  0.00  0.00    +0.091 C 
ATOM     20  N   UNL     1      -0.872   3.042   1.182  0.00  0.00    -0.180 NA
ATOM     21  C   UNL     1      -1.452   3.615  -0.042  0.00  0.00    +0.091 C 
ATOM     22  C   UNL     1      -0.705   3.040  -1.250  0.00  0.00    -0.061 C 
ATOM     23  N   UNL     1      -0.753   1.564  -1.180  0.00  0.00    +0.387 N 
ATOM     24  H   UNL     1      -1.733   1.266  -1.103  0.00  0.00    -0.081 HD
BRANCH  20  25
ATOM     25  S   UNL     1      -0.390   4.017   2.431  0.00  0.00    +0.067 S 
ATOM     26  O   UNL     1       0.587   3.288   3.162  0.00  0.00    -0.152 OA
ATOM     27  O   UNL     1      -0.125   5.295   1.870  0.00  0.00    -0.152 OA
BRANCH  25  28
ATOM     28  C   UNL     1      -1.776   4.215   3.502  0.00  0.00    +0.143 A 
ATOM     29  C   UNL     1      -2.149   3.459   4.563  0.00  0.00    +0.036 A 
ATOM     30  C   UNL     1      -3.285   3.809   5.268  0.00  0.00    +0.010 A 
ATOM     31  C   UNL     1      -3.998   4.891   4.871  0.00  0.00    +0.047 A 
ATOM     32  S   UNL     1      -3.056   5.458   3.465  0.00  0.00    -0.077 S 
ENDBRANCH  25  28
ENDBRANCH  20  25
ENDBRANCH  17  23
ENDBRANCH   2  17
TORSDOF 7
