REMARK  Name = ZINC66599570
REMARK  8 active torsions:
REMARK  status: ('A' for Active; 'I' for Inactive)
REMARK    1  A    between atoms: C_1  and  C_2
REMARK    2  A    between atoms: C_2  and  C_3
REMARK    3  A    between atoms: C_3  and  C_4
REMARK    4  A    between atoms: C_4  and  N_5
REMARK    5  A    between atoms: C_10  and  C_12
REMARK    6  A    between atoms: C_12  and  N_13
REMARK    7  A    between atoms: C_24  and  C_27
REMARK    8  A    between atoms: C_24  and  C_28
REMARK                            x       y       z     vdW  Elec       q    Type
REMARK                         _______ _______ _______ _____ _____    ______ ____
ROOT
ATOM      1  N   UNL     1      -0.707  -3.901   1.002  0.00  0.00    -0.301 N 
ATOM      2  C   UNL     1      -2.013  -4.057   0.709  0.00  0.00    +0.302 C 
ATOM      3  O   UNL     1      -2.737  -4.674   1.466  0.00  0.00    -0.253 OA
ATOM      4  N   UNL     1      -2.518  -3.529  -0.424  0.00  0.00    -0.285 N 
ATOM      5  C   UNL     1      -3.959  -3.590  -0.702  0.00  0.00    +0.114 C 
ATOM      6  C   UNL     1      -4.465  -2.174  -0.995  0.00  0.00    +0.084 C 
ATOM      7  C   UNL     1      -3.633  -1.563  -2.124  0.00  0.00    +0.173 C 
ATOM      8  C   UNL     1      -2.168  -1.473  -1.691  0.00  0.00    +0.084 C 
ATOM      9  C   UNL     1      -1.637  -2.876  -1.403  0.00  0.00    +0.114 C 
ATOM     10  O   UNL     1      -3.736  -2.384  -3.290  0.00  0.00    -0.348 OA
ATOM     11  C   UNL     1      -3.015  -1.879  -4.418  0.00  0.00    +0.172 C 
ATOM     12  C   UNL     1      -3.527  -0.472  -4.747  0.00  0.00    +0.012 C 
ATOM     13  C   UNL     1      -3.428   0.397  -3.488  0.00  0.00    +0.172 C 
ATOM     14  O   UNL     1      -4.123  -0.252  -2.419  0.00  0.00    -0.348 OA
ATOM     15  C   UNL     1      -4.986  -0.551  -5.201  0.00  0.00    +0.015 C 
ATOM     16  C   UNL     1      -2.673   0.137  -5.859  0.00  0.00    +0.015 C 
ATOM     17  H   UNL     1      -0.115  -3.473   0.364  0.00  0.00    +0.150 HD
ENDROOT
BRANCH   1  18
ATOM     18  C   UNL     1      -0.181  -4.378   2.283  0.00  0.00    +0.090 C 
BRANCH  18  24
ATOM     19  N   UNL     1       2.034  -4.457   1.246  0.00  0.00    +0.383 N 
ATOM     20  C   UNL     1       3.459  -4.140   1.399  0.00  0.00    -0.078 C 
ATOM     21  C   UNL     1       3.646  -2.622   1.440  0.00  0.00    -0.019 C 
ATOM     22  C   UNL     1       2.864  -2.048   2.626  0.00  0.00    -0.003 C 
ATOM     23  C   UNL     1       1.391  -2.449   2.494  0.00  0.00    -0.014 C 
ATOM     24  C   UNL     1       1.288  -3.973   2.414  0.00  0.00    -0.051 C 
ATOM     25  H   UNL     1       1.680  -4.011   0.414  0.00  0.00    -0.081 HD
BRANCH  19  26
ATOM     26  C   UNL     1       1.868  -5.912   1.129  0.00  0.00    -0.078 C 
BRANCH  26  27
ATOM     27  C   UNL     1       2.528  -6.398  -0.163  0.00  0.00    -0.019 C 
BRANCH  27  29
ATOM     28  C   UNL     1       3.014  -8.400  -1.577  0.00  0.00    +0.004 C 
ATOM     29  C   UNL     1       2.354  -7.913  -0.285  0.00  0.00    -0.005 C 
ENDBRANCH  27  29
ENDBRANCH  26  27
ENDBRANCH  19  26
ENDBRANCH  18  24
ENDBRANCH   1  18
TORSDOF 5
