REMARK  Name = ZINC39465503
REMARK  5 active torsions:
REMARK  status: ('A' for Active; 'I' for Inactive)
REMARK    1  A    between atoms: C_1  and  S_2
REMARK    2  A    between atoms: S_2  and  C_3
REMARK    3  A    between atoms: C_8  and  S_9
REMARK    4  A    between atoms: S_9  and  O_12
REMARK    5  A    between atoms: O_12  and  C_13
REMARK                            x       y       z     vdW  Elec       q    Type
REMARK                         _______ _______ _______ _____ _____    ______ ____
ROOT
ATOM      1  C   UNL     1       1.175  -0.470  -1.440  0.00  0.00    +0.036 A 
ATOM      2  C   UNL     1       1.762   0.485  -2.258  0.00  0.00    +0.022 A 
ATOM      3  C   UNL     1       2.377   0.109  -3.443  0.00  0.00    -0.022 A 
ATOM      4  C   UNL     1       2.403  -1.221  -3.807  0.00  0.00    -0.039 A 
ATOM      5  C   UNL     1       1.817  -2.177  -2.991  0.00  0.00    +0.035 A 
ATOM      6  C   UNL     1       1.208  -1.809  -1.809  0.00  0.00    +0.142 A 
ATOM      7  C   UNL     1       3.058  -1.673  -5.087  0.00  0.00    +0.052 C 
ATOM      8  C   UNL     1       4.014  -0.589  -5.586  0.00  0.00    +0.108 C 
ATOM      9  N   UNL     1       3.291   0.691  -5.640  0.00  0.00    -0.224 NA
ATOM     10  C   UNL     1       3.000   1.184  -4.293  0.00  0.00    +0.130 C 
ATOM     11  C   UNL     1       2.058   2.391  -4.342  0.00  0.00    +0.196 C 
ATOM     12  O   UNL     1       2.711   3.458  -5.059  0.00  0.00    -0.292 OA
ATOM     13  P   UNL     1       3.372   3.122  -6.506  0.00  0.00    +0.448 P 
ATOM     14  O   UNL     1       4.476   4.150  -6.840  0.00  0.00    -0.236 OA
ATOM     15  N   UNL     1       4.023   1.610  -6.359  0.00  0.00    -0.154 NA
ATOM     16  O   UNL     1       2.285   3.133  -7.604  0.00  0.00    -0.126 OA
ATOM     17  H   UNL     1       4.878   1.382  -6.758  0.00  0.00    +0.153 HD
ENDROOT
BRANCH   6  18
ATOM     18  S   UNL     1       0.471  -3.030  -0.775  0.00  0.00    +0.152 S 
ATOM     19  O   UNL     1       1.506  -3.538   0.056  0.00  0.00    -0.131 OA
ATOM     20  O   UNL     1      -0.716  -2.454  -0.248  0.00  0.00    -0.131 OA
BRANCH  18  21
ATOM     21  O   UNL     1       0.034  -4.178  -1.675  0.00  0.00    -0.342 OA
BRANCH  21  22
ATOM     22  C   UNL     1      -1.093  -3.921  -2.390  0.00  0.00    +0.157 A 
ATOM     23  C   UNL     1      -2.340  -4.129  -1.820  0.00  0.00    +0.048 A 
ATOM     24  C   UNL     1      -3.484  -3.867  -2.549  0.00  0.00    +0.004 A 
ATOM     25  C   UNL     1      -3.386  -3.399  -3.846  0.00  0.00    +0.000 A 
ATOM     26  C   UNL     1      -2.144  -3.191  -4.417  0.00  0.00    +0.004 A 
ATOM     27  C   UNL     1      -0.998  -3.446  -3.690  0.00  0.00    +0.048 A 
ENDBRANCH  21  22
ENDBRANCH  18  21
ENDBRANCH   6  18
BRANCH   1  29
ATOM     28  C   UNL     1       0.604   1.815   0.107  0.00  0.00    +0.090 C 
ATOM     29  S   UNL     1       0.396   0.014   0.065  0.00  0.00    -0.127 S 
ENDBRANCH   1  29
TORSDOF 4
