REMARK  Name = ZINC44188323
REMARK  6 active torsions:
REMARK  status: ('A' for Active; 'I' for Inactive)
REMARK    1  A    between atoms: C_1  and  C_2
REMARK    2  A    between atoms: C_2  and  C_3
REMARK    3  A    between atoms: C_4  and  C_20
REMARK    4  A    between atoms: N_6  and  C_9
REMARK    5  A    between atoms: C_7  and  C_8
REMARK    6  A    between atoms: C_17  and  O_19
REMARK                            x       y       z     vdW  Elec       q    Type
REMARK                         _______ _______ _______ _____ _____    ______ ____
ROOT
ATOM      1  C   UNL     1      -4.499  -1.658  -1.496  0.00  0.00    +0.136 C 
ATOM      2  C   UNL     1      -4.771  -3.138  -1.229  0.00  0.00    +0.029 C 
ATOM      3  C   UNL     1      -6.149  -3.566  -1.741  0.00  0.00    +0.002 C 
ATOM      4  C   UNL     1      -6.100  -3.714  -3.272  0.00  0.00    +0.000 C 
ATOM      5  C   UNL     1      -6.069  -2.326  -3.916  0.00  0.00    +0.000 C 
ATOM      6  C   UNL     1      -7.075  -1.405  -3.225  0.00  0.00    +0.003 C 
ATOM      7  C   UNL     1      -6.352  -0.280  -2.496  0.00  0.00    +0.033 C 
ATOM      8  C   UNL     1      -5.674  -0.743  -1.213  0.00  0.00    +0.139 C 
ENDROOT
BRANCH   1  12
ATOM      9  C   UNL     1      -1.412  -0.526   0.013  0.00  0.00    -0.004 A 
ATOM     10  C   UNL     1      -2.175  -0.811   1.149  0.00  0.00    +0.063 A 
ATOM     11  N   UNL     1      -3.347  -1.241   0.758  0.00  0.00    -0.176 NA
ATOM     12  N   UNL     1      -3.366  -1.244  -0.643  0.00  0.00    -0.263 N 
ATOM     13  C   UNL     1      -2.169  -0.795  -1.076  0.00  0.00    +0.040 A 
ATOM     14  C   UNL     1      -1.750  -0.628  -2.514  0.00  0.00    +0.065 C 
ATOM     15  C   UNL     1      -1.726  -0.650   2.579  0.00  0.00    +0.068 C 
BRANCH   9  17
ATOM     16  C   UNL     1      -0.019   1.526   0.010  0.00  0.00    +0.009 C 
ATOM     17  C   UNL     1       0.002  -0.004   0.002  0.00  0.00    +0.035 C 
ENDBRANCH   9  17
ENDBRANCH   1  12
BRANCH   8  18
ATOM     18  O   UNL     1      -6.596  -1.288  -0.282  0.00  0.00    -0.390 OA
ATOM     19  H   UNL     1      -7.351  -0.713  -0.094  0.00  0.00    +0.210 HD
ENDBRANCH   8  18
TORSDOF 3
