REMARK  Name = ZINC13595742
REMARK  7 active torsions:
REMARK  status: ('A' for Active; 'I' for Inactive)
REMARK    1  A    between atoms: C_1  and  C_2
REMARK    2  A    between atoms: C_2  and  C_3
REMARK    3  A    between atoms: C_2  and  C_4
REMARK    4  A    between atoms: C_4  and  C_5
REMARK    5  A    between atoms: C_20  and  C_22
REMARK    6  A    between atoms: C_24  and  C_28
REMARK    7  A    between atoms: C_28  and  C_30
REMARK                            x       y       z     vdW  Elec       q    Type
REMARK                         _______ _______ _______ _____ _____    ______ ____
ROOT
ATOM      1  C   UNL     1      -0.229  -0.257   3.325  0.00  0.00    +0.123 C 
ATOM      2  C   UNL     1       0.287  -0.455   4.733  0.00  0.00    +0.041 A 
ATOM      3  C   UNL     1       0.857   0.529   5.463  0.00  0.00    -0.016 A 
ATOM      4  C   UNL     1       1.220  -0.050   6.741  0.00  0.00    +0.003 A 
ATOM      5  C   UNL     1       1.834   0.479   7.880  0.00  0.00    +0.010 A 
ATOM      6  C   UNL     1       2.027  -0.378   8.935  0.00  0.00    +0.001 A 
ATOM      7  C   UNL     1       1.637  -1.706   8.886  0.00  0.00    +0.002 A 
ATOM      8  C   UNL     1       1.028  -2.256   7.771  0.00  0.00    +0.026 A 
ATOM      9  C   UNL     1       0.818  -1.409   6.684  0.00  0.00    +0.047 A 
ATOM     10  N   UNL     1       0.259  -1.617   5.457  0.00  0.00    -0.356 N 
ATOM     11  H   UNL     1      -0.104  -2.461   5.144  0.00  0.00    +0.166 HD
ATOM     12  C   UNL     1       1.049   1.948   4.991  0.00  0.00    +0.056 C 
ATOM     13  C   UNL     1       0.925   1.987   3.463  0.00  0.00    +0.113 C 
ATOM     14  N   UNL     1      -0.245   1.191   3.057  0.00  0.00    -0.287 N 
ATOM     15  C   UNL     1      -1.302   1.771   2.456  0.00  0.00    +0.265 C 
ATOM     16  O   UNL     1      -1.334   2.979   2.314  0.00  0.00    -0.268 OA
ENDROOT
BRANCH  15  17
ATOM     17  C   UNL     1      -2.420   0.944   1.972  0.00  0.00    +0.121 A 
ATOM     18  C   UNL     1      -3.673   1.380   1.634  0.00  0.00    +0.065 A 
ATOM     19  C   UNL     1      -4.378   0.225   1.233  0.00  0.00    +0.128 A 
ATOM     20  N   UNL     1      -3.552  -0.801   1.344  0.00  0.00    -0.170 NA
ATOM     21  N   UNL     1      -2.404  -0.409   1.767  0.00  0.00    -0.272 N 
ATOM     22  H   UNL     1      -1.640  -0.987   1.921  0.00  0.00    +0.189 HD
BRANCH  19  23
ATOM     23  C   UNL     1      -5.774   0.172   0.775  0.00  0.00    +0.180 C 
ATOM     24  O   UNL     1      -6.432   1.189   0.716  0.00  0.00    -0.291 OA
ATOM     25  C   UNL     1      -6.388  -1.146   0.379  0.00  0.00    +0.093 C 
ENDBRANCH  19  23
ENDBRANCH  15  17
BRANCH   1  26
ATOM     26  C   UNL     1       0.696  -0.960   2.329  0.00  0.00    +0.031 C 
BRANCH  26  28
ATOM     27  C   UNL     1       0.913   0.836   0.605  0.00  0.00    +0.007 C 
ATOM     28  C   UNL     1       0.322  -0.544   0.905  0.00  0.00    -0.015 C 
ATOM     29  C   UNL     1       0.881  -1.565  -0.088  0.00  0.00    +0.007 C 
ENDBRANCH  26  28
ENDBRANCH   1  26
TORSDOF 4
