REMARK  Name = ZINC09281664
REMARK  5 active torsions:
REMARK  status: ('A' for Active; 'I' for Inactive)
REMARK    1  A    between atoms: C_4  and  C_7
REMARK    2  A    between atoms: C_14  and  N_39
REMARK    3  A    between atoms: C_15  and  C_37
REMARK    4  A    between atoms: N_23  and  C_26
REMARK    5  A    between atoms: C_26  and  C_27
REMARK                            x       y       z     vdW  Elec       q    Type
REMARK                         _______ _______ _______ _____ _____    ______ ____
ROOT
ATOM      1  C   UNL     1       3.515  -0.523   0.240  0.00  0.00    +0.074 A 
ATOM      2  C   UNL     1       3.831  -1.777  -0.163  0.00  0.00    +0.066 A 
ATOM      3  C   UNL     1       5.086  -2.110   0.389  0.00  0.00    +0.246 A 
ATOM      4  N   UNL     1       5.505  -1.097   1.093  0.00  0.00    -0.135 NA
ATOM      5  N   UNL     1       4.544  -0.076   1.020  0.00  0.00    -0.273 N 
ATOM      6  H   UNL     1       4.601   0.792   1.448  0.00  0.00    +0.189 HD
ATOM      7  O   UNL     1       5.673  -3.316   0.161  0.00  0.00    -0.421 OA
ATOM      8  C   UNL     1       4.919  -4.289  -0.386  0.00  0.00    +0.201 C 
ATOM      9  C   UNL     1       3.709  -4.089  -0.954  0.00  0.00    +0.110 C 
ATOM     10  C   UNL     1       3.068  -2.732  -1.036  0.00  0.00    +0.145 C 
ATOM     11  C   UNL     1       3.005  -2.245  -2.449  0.00  0.00    -0.001 A 
ATOM     12  C   UNL     1       3.994  -1.985  -3.372  0.00  0.00    +0.007 A 
ATOM     13  C   UNL     1       3.587  -1.533  -4.623  0.00  0.00    +0.000 A 
ATOM     14  C   UNL     1       2.252  -1.354  -4.923  0.00  0.00    +0.002 A 
ATOM     15  C   UNL     1       1.251  -1.614  -3.999  0.00  0.00    +0.024 A 
ATOM     16  C   UNL     1       1.646  -2.069  -2.740  0.00  0.00    +0.041 A 
ATOM     17  N   UNL     1       0.871  -2.403  -1.644  0.00  0.00    -0.265 N 
ATOM     18  C   UNL     1       1.622  -2.805  -0.597  0.00  0.00    +0.241 C 
ATOM     19  O   UNL     1       1.215  -3.159   0.490  0.00  0.00    -0.274 OA
ENDROOT
BRANCH   1  23
ATOM     20  C   UNL     1      -0.012   1.629  -0.750  0.00  0.00    +0.000 A 
ATOM     21  C   UNL     1       0.348   1.469   0.576  0.00  0.00    +0.001 A 
ATOM     22  C   UNL     1       1.492   0.771   0.904  0.00  0.00    +0.010 A 
ATOM     23  C   UNL     1       2.286   0.226  -0.105  0.00  0.00    +0.000 A 
ATOM     24  C   UNL     1       1.917   0.390  -1.440  0.00  0.00    +0.010 A 
ATOM     25  C   UNL     1       0.771   1.090  -1.755  0.00  0.00    +0.001 A 
ENDBRANCH   1  23
BRANCH   8  26
ATOM     26  N   UNL     1       5.413  -5.570  -0.365  0.00  0.00    -0.328 N 
ATOM     27  H   UNL     1       6.279  -5.749   0.034  0.00  0.00    +0.145 HD
ATOM     28  H   UNL     1       4.897  -6.295  -0.750  0.00  0.00    +0.145 HD
ENDBRANCH   8  26
BRANCH   9  29
ATOM     29  C   UNL     1       3.010  -5.215  -1.498  0.00  0.00    +0.102 C 
ATOM     30  N   UNL     1       2.456  -6.107  -1.930  0.00  0.00    -0.191 NA
ENDBRANCH   9  29
BRANCH  17  31
ATOM     31  C   UNL     1      -0.592  -2.329  -1.622  0.00  0.00    +0.149 C 
BRANCH  31  32
ATOM     32  C   UNL     1      -1.168  -3.614  -2.159  0.00  0.00    -0.022 A 
ATOM     33  C   UNL     1      -0.347  -4.568  -2.678  0.00  0.00    +0.006 A 
ATOM     34  C   UNL     1      -0.862  -5.761  -3.179  0.00  0.00    +0.001 A 
ATOM     35  C   UNL     1      -2.201  -6.008  -3.165  0.00  0.00    +0.008 A 
ATOM     36  C   UNL     1      -3.079  -5.047  -2.638  0.00  0.00    -0.018 A 
ATOM     37  C   UNL     1      -2.555  -3.835  -2.122  0.00  0.00    -0.013 A 
ATOM     38  C   UNL     1      -3.434  -2.876  -1.589  0.00  0.00    +0.009 A 
ATOM     39  C   UNL     1      -4.771  -3.126  -1.570  0.00  0.00    +0.001 A 
ATOM     40  C   UNL     1      -5.286  -4.320  -2.072  0.00  0.00    +0.001 A 
ATOM     41  C   UNL     1      -4.467  -5.266  -2.607  0.00  0.00    +0.008 A 
ENDBRANCH  31  32
ENDBRANCH  17  31
TORSDOF 5
