REMARK  Name = ZINC09833744
REMARK  2 active torsions:
REMARK  status: ('A' for Active; 'I' for Inactive)
REMARK    1  A    between atoms: C_3  and  C_8
REMARK    2  A    between atoms: C_11  and  C_20
REMARK                            x       y       z     vdW  Elec       q    Type
REMARK                         _______ _______ _______ _____ _____    ______ ____
ROOT
ATOM      1  C   UNL     1       3.672   2.183  -0.022  0.00  0.00    +0.143 C 
ATOM      2  C   UNL     1       4.499   1.815   1.216  0.00  0.00    +0.058 C 
ATOM      3  C   UNL     1       5.918   2.377   1.077  0.00  0.00    +0.106 C 
ATOM      4  N   UNL     1       6.559   1.751  -0.096  0.00  0.00    -0.307 N 
ATOM      5  C   UNL     1       5.778   1.643  -1.238  0.00  0.00    +0.216 A 
ATOM      6  N   UNL     1       4.437   1.844  -1.222  0.00  0.00    -0.224 N 
ATOM      7  N   UNL     1       3.987   1.661  -2.530  0.00  0.00    -0.132 NA
ATOM      8  C   UNL     1       5.042   1.366  -3.256  0.00  0.00    +0.233 A 
ATOM      9  N   UNL     1       6.130   1.352  -2.463  0.00  0.00    -0.180 NA
ATOM     10  N   UNL     1       5.035   1.104  -4.627  0.00  0.00    -0.326 N 
ATOM     11  H   UNL     1       7.476   1.434  -0.070  0.00  0.00    +0.149 HD
ATOM     12  H   UNL     1       4.202   1.131  -5.122  0.00  0.00    +0.145 HD
ATOM     13  H   UNL     1       5.864   0.894  -5.085  0.00  0.00    +0.145 HD
ENDROOT
BRANCH   1  16
ATOM     14  C   UNL     1      -0.017   1.378   0.010  0.00  0.00    +0.001 A 
ATOM     15  C   UNL     1       1.171   2.086   0.002  0.00  0.00    +0.006 A 
ATOM     16  C   UNL     1       2.378   1.411  -0.013  0.00  0.00    -0.022 A 
ATOM     17  C   UNL     1       2.397   0.029  -0.022  0.00  0.00    +0.021 A 
ATOM     18  C   UNL     1       1.210  -0.679  -0.014  0.00  0.00    +0.018 A 
ATOM     19  C   UNL     1       0.002  -0.004   0.002  0.00  0.00    +0.015 A 
ATOM     20 BR   UNL     1       1.236  -2.570  -0.025  0.00  0.00    -0.050 Br
ENDBRANCH   1  16
BRANCH   3  21
ATOM     21  C   UNL     1       6.711   2.063   2.319  0.00  0.00    -0.027 A 
ATOM     22  C   UNL     1       7.269   0.809   2.484  0.00  0.00    +0.006 A 
ATOM     23  C   UNL     1       7.996   0.521   3.624  0.00  0.00    +0.015 A 
ATOM     24  C   UNL     1       8.166   1.487   4.599  0.00  0.00    +0.018 A 
ATOM     25  C   UNL     1       7.607   2.742   4.433  0.00  0.00    +0.015 A 
ATOM     26  C   UNL     1       6.884   3.031   3.291  0.00  0.00    +0.006 A 
ATOM     27 BR   UNL     1       9.161   1.093   6.158  0.00  0.00    -0.050 Br
ENDBRANCH   3  21
TORSDOF 2
