REMARK  Name = ZINC39663666
REMARK  13 active torsions:
REMARK  status: ('A' for Active; 'I' for Inactive)
REMARK    1  A    between atoms: C_1  and  C_2
REMARK    2  A    between atoms: C_2  and  C_3
REMARK    3  A    between atoms: C_3  and  C_4
REMARK    4  A    between atoms: C_4  and  C_5
REMARK    5  A    between atoms: C_9  and  C_18
REMARK    6  A    between atoms: N_20  and  C_21
REMARK    7  A    between atoms: C_21  and  C_22
REMARK    8  A    between atoms: C_22  and  C_24
REMARK    9  A    between atoms: C_22  and  N_32
REMARK   10  A    between atoms: C_27  and  O_30
REMARK   11  A    between atoms: O_30  and  C_31
REMARK   12  A    between atoms: N_32  and  C_33
REMARK   13  A    between atoms: N_32  and  C_34
REMARK                            x       y       z     vdW  Elec       q    Type
REMARK                         _______ _______ _______ _____ _____    ______ ____
ROOT
ATOM      1  C   UNL     1      -2.054  -2.964  -0.463  0.00  0.00    +0.216 C 
ATOM      2  O   UNL     1      -2.941  -2.148  -0.601  0.00  0.00    -0.276 OA
ATOM      3  N   UNL     1      -2.350  -4.277  -0.399  0.00  0.00    -0.300 N 
ATOM      4  C   UNL     1      -1.413  -5.412  -0.227  0.00  0.00    +0.121 C 
ATOM      5  C   UNL     1      -2.147  -6.384   0.724  0.00  0.00    +0.100 C 
ATOM      6  C   UNL     1      -3.638  -6.052   0.549  0.00  0.00    -0.004 C 
ATOM      7  C   UNL     1      -3.687  -4.912  -0.478  0.00  0.00    +0.115 C 
ATOM      8  C   UNL     1      -4.234  -5.587   1.874  0.00  0.00    -0.010 C 
ATOM      9  C   UNL     1      -5.731  -5.317   1.689  0.00  0.00    -0.082 C 
ATOM     10  N   UNL     1      -6.397  -6.543   1.233  0.00  0.00    +0.379 N 
ATOM     11  C   UNL     1      -5.883  -6.933  -0.085  0.00  0.00    -0.082 C 
ATOM     12  C   UNL     1      -4.393  -7.270   0.025  0.00  0.00    -0.010 C 
ATOM     13  H   UNL     1      -6.222  -7.285   1.894  0.00  0.00    -0.086 HD
ATOM     14  H   UNL     1      -7.391  -6.380   1.170  0.00  0.00    -0.086 HD
ENDROOT
BRANCH   5  15
ATOM     15  C   UNL     1      -1.717  -6.148   2.149  0.00  0.00    +0.218 C 
ATOM     16  O   UNL     1      -1.322  -5.053   2.489  0.00  0.00    -0.275 OA
ATOM     17  N   UNL     1      -1.773  -7.153   3.045  0.00  0.00    -0.316 N 
ATOM     18  H   UNL     1      -2.089  -8.028   2.773  0.00  0.00    +0.149 HD
BRANCH  17  19
ATOM     19  C   UNL     1      -1.355  -6.923   4.430  0.00  0.00    +0.093 C 
BRANCH  19  20
ATOM     20  C   UNL     1      -1.411  -8.241   5.205  0.00  0.00    -0.021 C 
BRANCH  20  21
ATOM     21  C   UNL     1      -2.841  -8.711   5.295  0.00  0.00    -0.059 A 
ATOM     22  C   UNL     1      -3.692  -8.156   6.233  0.00  0.00    +0.005 A 
ATOM     23  C   UNL     1      -5.002  -8.585   6.317  0.00  0.00    +0.046 A 
ATOM     24  C   UNL     1      -5.464  -9.573   5.460  0.00  0.00    +0.120 A 
ATOM     25  C   UNL     1      -4.608 -10.127   4.519  0.00  0.00    +0.046 A 
ATOM     26  C   UNL     1      -3.300  -9.691   4.435  0.00  0.00    +0.005 A 
BRANCH  24  27
ATOM     27  O   UNL     1      -6.752  -9.997   5.541  0.00  0.00    -0.495 OA
ATOM     28  C   UNL     1      -7.159 -11.017   4.627  0.00  0.00    +0.277 C 
ENDBRANCH  24  27
ENDBRANCH  20  21
BRANCH  20  29
ATOM     29  N   UNL     1      -0.877  -8.036   6.559  0.00  0.00    +0.382 N 
ATOM     30  C   UNL     1      -0.943  -9.299   7.306  0.00  0.00    -0.096 C 
ATOM     31  C   UNL     1       0.520  -7.590   6.471  0.00  0.00    -0.096 C 
ATOM     32  H   UNL     1      -1.425  -7.335   7.034  0.00  0.00    -0.082 HD
ENDBRANCH  20  29
ENDBRANCH  19  20
ENDBRANCH  17  19
ENDBRANCH   5  15
BRANCH   1  33
ATOM     33  C   UNL     1      -0.620  -2.509  -0.363  0.00  0.00    +0.096 C 
BRANCH  33  34
ATOM     34  C   UNL     1      -0.561  -0.984  -0.464  0.00  0.00    +0.009 C 
BRANCH  34  36
ATOM     35  C   UNL     1       0.953   1.004  -0.463  0.00  0.00    +0.004 C 
ATOM     36  C   UNL     1       0.894  -0.522  -0.362  0.00  0.00    -0.003 C 
ENDBRANCH  34  36
ENDBRANCH  33  34
ENDBRANCH   1  33
TORSDOF 9
