REMARK  Name = ZINC34738630
REMARK  9 active torsions:
REMARK  status: ('A' for Active; 'I' for Inactive)
REMARK    1  A    between atoms: C_1  and  C_2
REMARK    2  A    between atoms: C_2  and  C_3
REMARK    3  A    between atoms: C_2  and  C_4
REMARK    4  A    between atoms: C_2  and  N_5
REMARK    5  A    between atoms: N_5  and  S_6
REMARK    6  A    between atoms: S_6  and  C_9
REMARK    7  A    between atoms: N_13  and  C_25
REMARK    8  A    between atoms: C_14  and  C_16
REMARK    9  A    between atoms: C_20  and  N_22
REMARK                            x       y       z     vdW  Elec       q    Type
REMARK                         _______ _______ _______ _____ _____    ______ ____
ROOT
ATOM      1  C   UNL     1       3.238  -1.064  -0.396  0.00  0.00    +0.199 C 
ATOM      2  C   UNL     1       2.735  -2.497  -0.087  0.00  0.00    +0.215 C 
ATOM      3  O   UNL     1       3.564  -2.891   1.030  0.00  0.00    -0.295 OA
ATOM      4  N   UNL     1       4.907  -2.356   0.754  0.00  0.00    -0.182 NA
ATOM      5  C   UNL     1       4.756  -1.173  -0.125  0.00  0.00    +0.142 C 
ATOM      6  C   UNL     1       5.596  -1.997   2.001  0.00  0.00    +0.138 C 
ENDROOT
BRANCH   5   7
ATOM      7  C   UNL     1       5.253   0.068   0.572  0.00  0.00    -0.024 A 
ATOM      8  C   UNL     1       6.341   0.756   0.067  0.00  0.00    +0.005 A 
ATOM      9  C   UNL     1       6.796   1.894   0.706  0.00  0.00    +0.003 A 
ATOM     10  C   UNL     1       6.163   2.345   1.850  0.00  0.00    +0.033 A 
ATOM     11  C   UNL     1       5.075   1.658   2.354  0.00  0.00    +0.127 A 
ATOM     12  C   UNL     1       4.617   0.522   1.712  0.00  0.00    +0.038 A 
BRANCH  11  13
ATOM     13  N   UNL     1       4.398   2.140   3.578  0.00  0.00    +0.056 N 
ATOM     14  O   UNL     1       4.796   3.135   4.138  0.00  0.00    -0.126 OA
ATOM     15  O   UNL     1       3.446   1.539   4.019  0.00  0.00    -0.126 OA
ENDBRANCH  11  13
ENDBRANCH   5   7
BRANCH   1  16
ATOM     16  S   UNL     1       2.923  -0.630  -2.129  0.00  0.00    +0.037 S 
ATOM     17  O   UNL     1       3.427  -1.644  -2.987  0.00  0.00    -0.158 OA
ATOM     18  O   UNL     1       3.241   0.737  -2.357  0.00  0.00    -0.158 OA
BRANCH  16  19
ATOM     19  N   UNL     1       1.277  -0.714  -2.296  0.00  0.00    -0.189 NA
ATOM     20  H   UNL     1       0.879  -1.418  -2.831  0.00  0.00    +0.148 HD
BRANCH  19  22
ATOM     21  C   UNL     1       0.611   1.639  -2.302  0.00  0.00    +0.029 C 
ATOM     22  C   UNL     1       0.422   0.276  -1.635  0.00  0.00    +0.031 C 
ATOM     23  C   UNL     1       0.804   0.373  -0.157  0.00  0.00    +0.029 C 
ATOM     24  C   UNL     1      -1.042  -0.153  -1.757  0.00  0.00    +0.029 C 
ENDBRANCH  19  22
ENDBRANCH  16  19
ENDBRANCH   1  16
TORSDOF 5
