REMARK  Name = ZINC39673778
REMARK  12 active torsions:
REMARK  status: ('A' for Active; 'I' for Inactive)
REMARK    1  A    between atoms: C_1  and  C_2
REMARK    2  A    between atoms: C_2  and  C_3
REMARK    3  A    between atoms: C_3  and  C_4
REMARK    4  A    between atoms: C_4  and  C_6
REMARK    5  A    between atoms: C_4  and  N_7
REMARK    6  A    between atoms: C_8  and  C_10
REMARK    7  A    between atoms: C_21  and  C_23
REMARK    8  A    between atoms: C_25  and  C_32
REMARK    9  A    between atoms: N_27  and  C_28
REMARK   10  A    between atoms: C_28  and  C_29
REMARK   11  A    between atoms: C_28  and  C_30
REMARK   12  A    between atoms: C_28  and  C_31
REMARK                            x       y       z     vdW  Elec       q    Type
REMARK                         _______ _______ _______ _____ _____    ______ ____
ROOT
ATOM      1  C   UNL     1       2.117  -4.261   1.923  0.00  0.00    +0.100 C 
ATOM      2  C   UNL     1       3.559  -4.099   1.393  0.00  0.00    +0.121 C 
ATOM      3  N   UNL     1       4.270  -5.309   1.867  0.00  0.00    -0.295 N 
ATOM      4  C   UNL     1       3.282  -6.403   1.707  0.00  0.00    +0.115 C 
ATOM      5  C   UNL     1       1.939  -5.775   2.127  0.00  0.00    -0.004 C 
ATOM      6  C   UNL     1       0.812  -6.298   1.242  0.00  0.00    -0.010 C 
ATOM      7  C   UNL     1       0.615  -7.794   1.504  0.00  0.00    -0.082 C 
ATOM      8  N   UNL     1       0.290  -8.005   2.920  0.00  0.00    +0.379 N 
ATOM      9  C   UNL     1       1.418  -7.584   3.761  0.00  0.00    -0.082 C 
ATOM     10  C   UNL     1       1.649  -6.080   3.593  0.00  0.00    -0.010 C 
ATOM     11  C   UNL     1       5.530  -5.397   2.336  0.00  0.00    +0.265 C 
ATOM     12  O   UNL     1       5.972  -6.471   2.698  0.00  0.00    -0.268 OA
ATOM     13  H   UNL     1      -0.527  -7.464   3.161  0.00  0.00    -0.086 HD
ATOM     14  H   UNL     1       0.101  -8.983   3.078  0.00  0.00    -0.086 HD
ENDROOT
BRANCH  11  15
ATOM     15  C   UNL     1       6.373  -4.192   2.412  0.00  0.00    +0.124 A 
ATOM     16  C   UNL     1       6.104  -2.955   1.853  0.00  0.00    +0.057 A 
ATOM     17  C   UNL     1       7.192  -2.149   2.198  0.00  0.00    +0.061 A 
ATOM     18  N   UNL     1       8.022  -2.876   2.902  0.00  0.00    -0.175 NA
ATOM     19  N   UNL     1       7.573  -4.070   3.051  0.00  0.00    -0.254 N 
ATOM     20  C   UNL     1       7.378  -0.701   1.824  0.00  0.00    +0.067 C 
BRANCH  19  21
ATOM     21  C   UNL     1       8.248  -5.139   3.791  0.00  0.00    +0.056 C 
ATOM     22  C   UNL     1       8.622  -6.268   2.829  0.00  0.00    +0.036 C 
ATOM     23  C   UNL     1       9.516  -4.585   4.445  0.00  0.00    +0.036 C 
ATOM     24  C   UNL     1       7.311  -5.681   4.873  0.00  0.00    +0.036 C 
ENDBRANCH  19  21
ENDBRANCH  11  15
BRANCH   1  26
ATOM     25  N   UNL     1      -0.045  -3.220   1.323  0.00  0.00    -0.312 N 
ATOM     26  C   UNL     1       1.125  -3.747   0.912  0.00  0.00    +0.218 C 
ATOM     27  O   UNL     1       1.380  -3.808  -0.273  0.00  0.00    -0.275 OA
ATOM     28  H   UNL     1      -0.281  -3.237   2.263  0.00  0.00    +0.149 HD
BRANCH  25  29
ATOM     29  C   UNL     1      -0.961  -2.621   0.348  0.00  0.00    +0.070 C 
ATOM     30  C   UNL     1      -0.561  -1.165   0.100  0.00  0.00    +0.028 C 
BRANCH  29  31
ATOM     31  C   UNL     1      -2.390  -2.671   0.894  0.00  0.00    +0.022 C 
BRANCH  31  33
ATOM     32  C   UNL     1      -4.263  -4.179   1.570  0.00  0.00    +0.004 C 
ATOM     33  C   UNL     1      -2.835  -4.129   1.025  0.00  0.00    -0.002 C 
ENDBRANCH  31  33
ENDBRANCH  29  31
ENDBRANCH  25  29
ENDBRANCH   1  26
TORSDOF 6
