REMARK  Name = ZINC24751776
REMARK  8 active torsions:
REMARK  status: ('A' for Active; 'I' for Inactive)
REMARK    1  A    between atoms: C_1  and  C_2
REMARK    2  A    between atoms: C_3  and  C_27
REMARK    3  A    between atoms: C_4  and  S_13
REMARK    4  A    between atoms: C_6  and  C_8
REMARK    5  A    between atoms: S_13  and  C_14
REMARK    6  A    between atoms: C_15  and  O_25
REMARK    7  A    between atoms: O_25  and  C_26
REMARK    8  A    between atoms: C_27  and  C_29
REMARK                            x       y       z     vdW  Elec       q    Type
REMARK                         _______ _______ _______ _____ _____    ______ ____
ROOT
ATOM      1  C   UNL     1       4.576  -6.365   0.776  0.00  0.00    +0.066 C 
ATOM      2  C   UNL     1       3.682  -5.181   0.516  0.00  0.00    +0.054 A 
ATOM      3  C   UNL     1       4.207  -3.879   0.516  0.00  0.00    +0.070 A 
ATOM      4  C   UNL     1       3.320  -2.801   0.271  0.00  0.00    +0.117 A 
ATOM      5  N   UNL     1       2.039  -3.066   0.041  0.00  0.00    -0.217 NA
ATOM      6  C   UNL     1       1.593  -4.317   0.047  0.00  0.00    +0.197 A 
ATOM      7  N   UNL     1       2.397  -5.354   0.279  0.00  0.00    -0.229 NA
ENDROOT
BRANCH   6   8
ATOM      8  C   UNL     1       0.165  -4.565  -0.213  0.00  0.00    +0.172 A 
ATOM      9  C   UNL     1      -0.798  -3.613  -0.370  0.00  0.00    +0.053 A 
ATOM     10  C   UNL     1      -2.006  -4.294  -0.598  0.00  0.00    +0.042 A 
ATOM     11  C   UNL     1      -1.729  -5.615  -0.570  0.00  0.00    +0.196 A 
ATOM     12  O   UNL     1      -0.417  -5.774  -0.342  0.00  0.00    -0.460 OA
ENDBRANCH   6   8
BRANCH   3  13
ATOM     13  C   UNL     1       5.627  -3.642   0.768  0.00  0.00    +0.164 C 
ATOM     14  O   UNL     1       6.389  -4.580   0.881  0.00  0.00    -0.292 OA
ATOM     15  C   UNL     1       6.146  -2.232   0.886  0.00  0.00    +0.092 C 
ENDBRANCH   3  13
BRANCH   4  16
ATOM     16  S   UNL     1       3.908  -1.140   0.263  0.00  0.00    -0.060 S 
BRANCH  16  17
ATOM     17  C   UNL     1       2.390  -0.279   0.024  0.00  0.00    +0.121 A 
ATOM     18  C   UNL     1       1.882   0.552   1.014  0.00  0.00    +0.155 A 
ATOM     19  C   UNL     1       0.676   1.214   0.784  0.00  0.00    +0.078 A 
ATOM     20  C   UNL     1      -0.040   1.072  -0.408  0.00  0.00    +0.060 A 
ATOM     21  C   UNL     1      -1.228   1.805  -0.492  0.00  0.00    +0.034 A 
ATOM     22  C   UNL     1      -1.626   2.579   0.541  0.00  0.00    +0.048 A 
ATOM     23  S   UNL     1      -0.318   2.339   1.732  0.00  0.00    -0.091 S 
ATOM     24  N   UNL     1       0.510   0.226  -1.375  0.00  0.00    -0.321 N 
ATOM     25  H   UNL     1      -0.008   0.074  -2.333  0.00  0.00    +0.169 HD
ATOM     26  C   UNL     1       1.667  -0.419  -1.172  0.00  0.00    +0.267 A 
ATOM     27  O   UNL     1       2.104  -1.147  -2.050  0.00  0.00    -0.267 OA
BRANCH  18  28
ATOM     28  O   UNL     1       2.547   0.717   2.185  0.00  0.00    -0.493 OA
ATOM     29  C   UNL     1       3.059   2.022   2.462  0.00  0.00    +0.277 C 
ENDBRANCH  18  28
ENDBRANCH  16  17
ENDBRANCH   4  16
TORSDOF 5
