REMARK  Name = ZINC60091351
REMARK  8 active torsions:
REMARK  status: ('A' for Active; 'I' for Inactive)
REMARK    1  A    between atoms: C_1  and  C_2
REMARK    2  A    between atoms: C_2  and  C_24
REMARK    3  A    between atoms: N_5  and  C_9
REMARK    4  A    between atoms: C_9  and  C_10
REMARK    5  A    between atoms: C_10  and  C_12
REMARK    6  A    between atoms: C_10  and  O_23
REMARK    7  A    between atoms: C_12  and  O_13
REMARK    8  A    between atoms: O_13  and  C_14
REMARK                            x       y       z     vdW  Elec       q    Type
REMARK                         _______ _______ _______ _____ _____    ______ ____
ROOT
ATOM      1  C   UNL     1      -0.019   1.526   0.010  0.00  0.00    +0.047 C 
ATOM      2  C   UNL     1       0.002  -0.004   0.002  0.00  0.00    +0.135 C 
ATOM      3  C   UNL     1      -1.403  -0.557   0.139  0.00  0.00    +0.251 C 
ATOM      4  O   UNL     1      -2.332  -0.392  -0.621  0.00  0.00    -0.272 OA
ATOM      5  N   UNL     1      -1.403  -1.272   1.282  0.00  0.00    -0.221 N 
ATOM      6  C   UNL     1      -0.206  -1.247   1.879  0.00  0.00    +0.310 C 
ATOM      7  O   UNL     1       0.040  -1.819   2.924  0.00  0.00    -0.252 OA
ATOM      8  N   UNL     1       0.695  -0.520   1.195  0.00  0.00    -0.281 N 
ATOM      9  H   UNL     1       1.621  -0.365   1.440  0.00  0.00    +0.152 HD
ENDROOT
BRANCH   2  10
ATOM     10  C   UNL     1       0.657  -0.517  -1.255  0.00  0.00    -0.012 A 
ATOM     11  C   UNL     1      -0.109  -0.772  -2.377  0.00  0.00    +0.010 A 
ATOM     12  C   UNL     1       0.488  -1.243  -3.531  0.00  0.00    +0.050 A 
ATOM     13  C   UNL     1       1.857  -1.462  -3.566  0.00  0.00    +0.162 A 
ATOM     14  C   UNL     1       2.627  -1.204  -2.438  0.00  0.00    +0.162 A 
ATOM     15  C   UNL     1       2.023  -0.727  -1.285  0.00  0.00    +0.055 A 
ATOM     16  O   UNL     1       3.973  -1.404  -2.453  0.00  0.00    -0.485 OA
ATOM     17  C   UNL     1       4.490  -2.228  -3.504  0.00  0.00    +0.270 C 
ATOM     18  C   UNL     1       3.849  -1.780  -4.825  0.00  0.00    +0.270 C 
ATOM     19  O   UNL     1       2.430  -1.931  -4.708  0.00  0.00    -0.485 OA
ENDBRANCH   2  10
BRANCH   5  20
ATOM     20  C   UNL     1      -2.569  -1.986   1.805  0.00  0.00    +0.152 C 
BRANCH  20  21
ATOM     21  C   UNL     1      -2.585  -3.413   1.252  0.00  0.00    +0.170 C 
BRANCH  21  22
ATOM     22  O   UNL     1      -1.450  -4.128   1.745  0.00  0.00    -0.387 OA
ATOM     23  H   UNL     1      -1.418  -4.196   2.709  0.00  0.00    +0.210 HD
ENDBRANCH  21  22
BRANCH  21  24
ATOM     24  C   UNL     1      -3.867  -4.119   1.697  0.00  0.00    +0.261 C 
BRANCH  24  25
ATOM     25  O   UNL     1      -3.937  -5.409   1.086  0.00  0.00    -0.489 OA
BRANCH  25  26
ATOM     26  C   UNL     1      -5.023  -6.173   1.379  0.00  0.00    +0.124 A 
ATOM     27  C   UNL     1      -6.002  -5.687   2.233  0.00  0.00    +0.049 A 
ATOM     28  C   UNL     1      -7.107  -6.462   2.533  0.00  0.00    +0.053 A 
ATOM     29  C   UNL     1      -7.239  -7.725   1.981  0.00  0.00    +0.166 A 
ATOM     30  C   UNL     1      -6.258  -8.215   1.123  0.00  0.00    +0.170 A 
ATOM     31  C   UNL     1      -5.154  -7.434   0.820  0.00  0.00    +0.095 A 
ATOM     32  O   UNL     1      -6.618  -9.468   0.718  0.00  0.00    -0.452 OA
ATOM     33  C   UNL     1      -7.622  -9.901   1.655  0.00  0.00    +0.466 C 
ATOM     34  O   UNL     1      -8.215  -8.672   2.114  0.00  0.00    -0.453 OA
ENDBRANCH  25  26
ENDBRANCH  24  25
ENDBRANCH  21  24
ENDBRANCH  20  21
ENDBRANCH   5  20
TORSDOF 7
