REMARK  Name = ZINC09541393
REMARK  4 active torsions:
REMARK  status: ('A' for Active; 'I' for Inactive)
REMARK    1  A    between atoms: C_4  and  O_28
REMARK    2  A    between atoms: C_5  and  C_7
REMARK    3  A    between atoms: C_10  and  C_21
REMARK    4  A    between atoms: C_12  and  C_14
REMARK                            x       y       z     vdW  Elec       q    Type
REMARK                         _______ _______ _______ _____ _____    ______ ____
ROOT
ATOM      1  C   UNL     1      -1.194   6.163   2.167  0.00  0.00    -0.028 C 
ATOM      2  C   UNL     1      -0.081   7.027   2.768  0.00  0.00    +0.044 C 
ATOM      3  C   UNL     1       1.142   6.945   1.898  0.00  0.00    +0.040 C 
ATOM      4  N   UNL     1       1.119   6.497   0.701  0.00  0.00    -0.299 NA
ATOM      5  C   UNL     1      -0.079   6.003   0.034  0.00  0.00    +0.081 C 
ATOM      6  N   UNL     1      -1.290   6.470   0.726  0.00  0.00    +0.401 N 
ATOM      7  H   UNL     1      -1.386   7.484   0.599  0.00  0.00    -0.081 HD
ATOM      8  H   UNL     1      -2.112   5.996   0.331  0.00  0.00    -0.081 HD
ENDROOT
BRANCH   5   9
ATOM      9  C   UNL     1      -0.059   4.497   0.026  0.00  0.00    -0.040 A 
ATOM     10  C   UNL     1       1.148   3.822   0.012  0.00  0.00    +0.005 A 
ATOM     11  C   UNL     1       1.167   2.440   0.004  0.00  0.00    +0.020 A 
ATOM     12  C   UNL     1      -0.021   1.732   0.012  0.00  0.00    +0.041 A 
ATOM     13  C   UNL     1      -1.229   2.407   0.021  0.00  0.00    +0.020 A 
ATOM     14  C   UNL     1      -1.247   3.789   0.034  0.00  0.00    +0.005 A 
ATOM     15 CL   UNL     1       0.002  -0.004   0.002  0.00  0.00    -0.084 Cl
ENDBRANCH   5   9
BRANCH   3  16
ATOM     16  C   UNL     1       2.431   7.403   2.453  0.00  0.00    -0.004 A 
ATOM     17  C   UNL     1       2.496   7.904   3.755  0.00  0.00    +0.011 A 
ATOM     18  C   UNL     1       3.704   8.325   4.270  0.00  0.00    +0.016 A 
ATOM     19  C   UNL     1       4.849   8.262   3.494  0.00  0.00    +0.018 A 
ATOM     20  C   UNL     1       4.791   7.772   2.201  0.00  0.00    +0.016 A 
ATOM     21  C   UNL     1       3.590   7.343   1.676  0.00  0.00    +0.011 A 
ATOM     22 BR   UNL     1       6.501   8.848   4.205  0.00  0.00    -0.050 Br
ENDBRANCH   3  16
BRANCH   1  27
ATOM     23  C   UNL     1      -4.605   7.631   2.849  0.00  0.00    +0.000 A 
ATOM     24  C   UNL     1      -4.913   7.064   4.072  0.00  0.00    +0.004 A 
ATOM     25  C   UNL     1      -4.020   6.205   4.681  0.00  0.00    +0.045 A 
ATOM     26  C   UNL     1      -2.814   5.907   4.063  0.00  0.00    +0.118 A 
ATOM     27  C   UNL     1      -2.505   6.481   2.839  0.00  0.00    -0.019 A 
ATOM     28  C   UNL     1      -3.402   7.339   2.233  0.00  0.00    +0.005 A 
BRANCH  26  29
ATOM     29  O   UNL     1      -1.936   5.058   4.658  0.00  0.00    -0.507 OA
ATOM     30  H   UNL     1      -1.304   5.494   5.245  0.00  0.00    +0.292 HD
ENDBRANCH  26  29
ENDBRANCH   1  27
TORSDOF 4
