REMARK  Name = ZINC45622161
REMARK  6 active torsions:
REMARK  status: ('A' for Active; 'I' for Inactive)
REMARK    1  A    between atoms: C_1  and  C_2
REMARK    2  A    between atoms: C_12  and  C_14
REMARK    3  A    between atoms: C_14  and  C_16
REMARK    4  A    between atoms: C_14  and  N_27
REMARK    5  A    between atoms: C_16  and  C_17
REMARK    6  A    between atoms: C_28  and  C_30
REMARK                            x       y       z     vdW  Elec       q    Type
REMARK                         _______ _______ _______ _____ _____    ______ ____
ROOT
ATOM      1  C   UNL     1       0.122  -8.485   0.891  0.00  0.00    +0.164 C 
ENDROOT
BRANCH   1  13
ATOM      2  C   UNL     1      -0.018   1.503   0.010  0.00  0.00    +0.044 C 
ATOM      3  C   UNL     1       0.002  -0.004   0.002  0.00  0.00    -0.049 A 
ATOM      4  C   UNL     1       0.006  -0.698  -1.199  0.00  0.00    +0.005 A 
ATOM      5  C   UNL     1       0.024  -2.068  -1.235  0.00  0.00    +0.029 A 
ATOM      6  C   UNL     1       0.040  -2.822  -0.038  0.00  0.00    +0.080 A 
ATOM      7  C   UNL     1       0.036  -2.081   1.166  0.00  0.00    +0.041 A 
ATOM      8  C   UNL     1       0.023  -0.709   1.191  0.00  0.00    +0.020 A 
ATOM      9  S   UNL     1       0.059  -3.361   2.397  0.00  0.00    -0.052 S 
ATOM     10  C   UNL     1       0.073  -4.752   1.275  0.00  0.00    +0.165 A 
ATOM     11  N   UNL     1       0.059  -4.165   0.101  0.00  0.00    -0.225 NA
ATOM     12  N   UNL     1       0.093  -6.106   1.569  0.00  0.00    -0.263 N 
ATOM     13  C   UNL     1       0.101  -7.012   0.571  0.00  0.00    +0.239 C 
ATOM     14  O   UNL     1       0.090  -6.643  -0.584  0.00  0.00    -0.273 OA
ATOM     15  H   UNL     1       0.101  -6.402   2.493  0.00  0.00    +0.157 HD
ENDBRANCH   1  13
BRANCH   1  16
ATOM     16  N   UNL     1      -0.345  -9.244  -0.272  0.00  0.00    -0.299 N 
ATOM     17  C   UNL     1       0.314  -9.155  -1.444  0.00  0.00    +0.251 C 
ATOM     18  O   UNL     1       1.298  -8.445  -1.536  0.00  0.00    -0.270 OA
ATOM     19  H   UNL     1      -1.129  -9.810  -0.198  0.00  0.00    +0.150 HD
BRANCH  17  20
ATOM     20  C   UNL     1      -0.153  -9.915  -2.607  0.00  0.00    +0.074 A 
ATOM     21  C   UNL     1       0.378  -9.969  -3.886  0.00  0.00    +0.021 A 
ATOM     22  C   UNL     1      -0.287 -10.779  -4.775  0.00  0.00    +0.008 A 
ATOM     23  C   UNL     1      -1.387 -11.454  -4.357  0.00  0.00    +0.046 A 
ATOM     24  S   UNL     1      -1.548 -11.017  -2.743  0.00  0.00    -0.092 S 
ENDBRANCH  17  20
ENDBRANCH   1  16
BRANCH   1  25
ATOM     25  C   UNL     1       1.550  -8.911   1.238  0.00  0.00    +0.069 C 
BRANCH  25  26
ATOM     26  C   UNL     1       1.552 -10.352   1.676  0.00  0.00    -0.020 A 
ATOM     27  C   UNL     1       1.486 -10.803   2.938  0.00  0.00    +0.087 A 
ATOM     28  N   UNL     1       1.512 -12.171   2.947  0.00  0.00    -0.360 N 
ATOM     29  H   UNL     1       1.475 -12.724   3.744  0.00  0.00    +0.165 HD
ATOM     30  C   UNL     1       1.598 -12.646   1.658  0.00  0.00    +0.047 A 
ATOM     31  C   UNL     1       1.621 -11.528   0.804  0.00  0.00    +0.003 A 
ATOM     32  C   UNL     1       1.700 -11.708  -0.578  0.00  0.00    +0.010 A 
ATOM     33  C   UNL     1       1.751 -12.972  -1.095  0.00  0.00    +0.001 A 
ATOM     34  C   UNL     1       1.724 -14.078  -0.258  0.00  0.00    +0.002 A 
ATOM     35  C   UNL     1       1.656 -13.923   1.110  0.00  0.00    +0.026 A 
ENDBRANCH  25  26
ENDBRANCH   1  25
TORSDOF 5
