REMARK  Name = ZINC09590749
REMARK  6 active torsions:
REMARK  status: ('A' for Active; 'I' for Inactive)
REMARK    1  A    between atoms: C_10  and  C_12
REMARK    2  A    between atoms: C_17  and  C_20
REMARK    3  A    between atoms: C_20  and  S_21
REMARK    4  A    between atoms: S_21  and  C_22
REMARK    5  A    between atoms: C_22  and  C_23
REMARK    6  A    between atoms: N_25  and  C_26
REMARK                            x       y       z     vdW  Elec       q    Type
REMARK                         _______ _______ _______ _____ _____    ______ ____
ROOT
ATOM      1  C   UNL     1      -1.322   2.042   0.033  0.00  0.00    +0.285 C 
ATOM      2  O   UNL     1      -2.353   1.399   0.026  0.00  0.00    -0.266 OA
ATOM      3  N   UNL     1      -1.368   3.389   0.042  0.00  0.00    -0.258 N 
ATOM      4  C   UNL     1      -2.592   4.042   0.043  0.00  0.00    +0.165 A 
ATOM      5  N   UNL     1      -2.841   5.337   0.057  0.00  0.00    -0.229 NA
ATOM      6  C   UNL     1      -4.077   5.795   0.052  0.00  0.00    +0.060 A 
ATOM      7  C   UNL     1      -5.097   4.902   0.044  0.00  0.00    +0.072 A 
ATOM      8  S   UNL     1      -4.191   3.362   0.036  0.00  0.00    -0.060 S 
ATOM      9  H   UNL     1      -0.544   3.902   0.047  0.00  0.00    +0.157 HD
ENDROOT
BRANCH   1  19
ATOM     10  C   UNL     1       4.879   0.405   0.013  0.00  0.00    +0.001 A 
ATOM     11  C   UNL     1       4.726   1.784   0.023  0.00  0.00    +0.004 A 
ATOM     12  C   UNL     1       3.471   2.354   0.029  0.00  0.00    +0.047 A 
ATOM     13  C   UNL     1       2.341   1.541   0.027  0.00  0.00    +0.139 A 
ATOM     14  C   UNL     1       2.505   0.145   0.017  0.00  0.00    +0.064 A 
ATOM     15  C   UNL     1       3.783  -0.413   0.010  0.00  0.00    +0.015 A 
ATOM     16  C   UNL     1       1.298  -0.703   0.014  0.00  0.00    +0.193 A 
ATOM     17  O   UNL     1       1.372  -1.919   0.005  0.00  0.00    -0.287 OA
ATOM     18  C   UNL     1       0.001  -0.010   0.022  0.00  0.00    +0.103 A 
ATOM     19  C   UNL     1      -0.015   1.345   0.031  0.00  0.00    +0.194 A 
ATOM     20  O   UNL     1       1.107   2.080   0.033  0.00  0.00    -0.450 OA
ENDBRANCH   1  19
BRANCH   6  21
ATOM     21  C   UNL     1      -4.350   7.277   0.062  0.00  0.00    +0.125 C 
BRANCH  21  22
ATOM     22  S   UNL     1      -4.463   7.860   1.776  0.00  0.00    -0.145 S 
BRANCH  22  23
ATOM     23  C   UNL     1      -4.789   9.637   1.614  0.00  0.00    +0.165 C 
BRANCH  23  24
ATOM     24  C   UNL     1      -4.907  10.253   2.985  0.00  0.00    +0.227 C 
ATOM     25  O   UNL     1      -4.783   9.561   3.973  0.00  0.00    -0.275 OA
ATOM     26  N   UNL     1      -5.150  11.573   3.112  0.00  0.00    -0.285 N 
ATOM     27  H   UNL     1      -5.183  12.138   2.325  0.00  0.00    +0.155 HD
BRANCH  26  28
ATOM     28  C   UNL     1      -5.356  12.127   4.381  0.00  0.00    +0.034 A 
ATOM     29  C   UNL     1      -6.253  13.174   4.545  0.00  0.00    +0.026 A 
ATOM     30  C   UNL     1      -6.459  13.716   5.799  0.00  0.00    +0.040 A 
ATOM     31  C   UNL     1      -5.763  13.224   6.890  0.00  0.00    +0.124 A 
ATOM     32  C   UNL     1      -4.863  12.184   6.727  0.00  0.00    +0.040 A 
ATOM     33  C   UNL     1      -4.659  11.635   5.476  0.00  0.00    +0.026 A 
ATOM     34  F   UNL     1      -5.961  13.759   8.114  0.00  0.00    -0.205 F 
ENDBRANCH  26  28
ENDBRANCH  23  24
ENDBRANCH  22  23
ENDBRANCH  21  22
ENDBRANCH   6  21
TORSDOF 6
