REMARK  Name = ZINC13349817
REMARK  5 active torsions:
REMARK  status: ('A' for Active; 'I' for Inactive)
REMARK    1  A    between atoms: C_1  and  C_2
REMARK    2  A    between atoms: C_2  and  C_3
REMARK    3  A    between atoms: C_6  and  N_9
REMARK    4  A    between atoms: C_10  and  C_12
REMARK    5  A    between atoms: C_12  and  N_13
REMARK                            x       y       z     vdW  Elec       q    Type
REMARK                         _______ _______ _______ _____ _____    ______ ____
ROOT
ATOM      1  C   UNL     1      -2.887   4.469   6.588  0.00  0.00    +0.244 C 
ENDROOT
BRANCH   1   2
ATOM      2  N   UNL     1      -2.270   5.717   7.044  0.00  0.00    -0.203 N 
ATOM      3  C   UNL     1      -2.678   6.967   6.739  0.00  0.00    +0.353 A 
ATOM      4  O   UNL     1      -3.628   7.259   6.033  0.00  0.00    -0.244 OA
ATOM      5  N   UNL     1      -1.853   7.833   7.354  0.00  0.00    -0.233 N 
ATOM      6  C   UNL     1      -1.794   9.201   7.401  0.00  0.00    +0.210 A 
ATOM      7  N   UNL     1      -0.899   9.854   8.059  0.00  0.00    -0.236 NA
ATOM      8  C   UNL     1       0.098   9.248   8.790  0.00  0.00    +0.083 A 
ATOM      9  C   UNL     1       1.119   9.853   9.541  0.00  0.00    +0.036 A 
ATOM     10  C   UNL     1       2.018   9.094  10.201  0.00  0.00    +0.048 A 
ATOM     11  S   UNL     1       1.489   7.434   9.811  0.00  0.00    -0.091 S 
ATOM     12  C   UNL     1       0.101   7.848   8.791  0.00  0.00    +0.082 A 
ATOM     13  C   UNL     1      -0.900   7.101   8.055  0.00  0.00    +0.179 A 
ATOM     14  N   UNL     1      -1.144   5.829   7.873  0.00  0.00    -0.147 NA
ENDBRANCH   1   2
BRANCH   1  16
ATOM     15  N   UNL     1      -2.668   2.915   4.676  0.00  0.00    -0.284 N 
ATOM     16  C   UNL     1      -2.256   4.043   5.287  0.00  0.00    +0.239 C 
ATOM     17  O   UNL     1      -1.377   4.716   4.790  0.00  0.00    -0.273 OA
ATOM     18  H   UNL     1      -3.421   2.419   5.031  0.00  0.00    +0.155 HD
BRANCH  15  22
ATOM     19  C   UNL     1      -0.706   1.561   1.259  0.00  0.00    -0.048 A 
ATOM     20  C   UNL     1      -2.068   1.362   1.397  0.00  0.00    +0.005 A 
ATOM     21  C   UNL     1      -2.720   1.806   2.531  0.00  0.00    +0.023 A 
ATOM     22  C   UNL     1      -2.009   2.461   3.528  0.00  0.00    +0.033 A 
ATOM     23  C   UNL     1      -0.643   2.663   3.384  0.00  0.00    +0.023 A 
ATOM     24  C   UNL     1       0.004   2.213   2.250  0.00  0.00    +0.005 A 
BRANCH  19  26
ATOM     25  C   UNL     1       0.500  -0.358   0.253  0.00  0.00    +0.009 C 
ATOM     26  C   UNL     1       0.004   1.071   0.023  0.00  0.00    +0.032 C 
ENDBRANCH  19  26
ENDBRANCH  15  22
ENDBRANCH   1  16
TORSDOF 4
