REMARK  Name = ZINC65428763
REMARK  6 active torsions:
REMARK  status: ('A' for Active; 'I' for Inactive)
REMARK    1  A    between atoms: C_1  and  C_2
REMARK    2  A    between atoms: C_5  and  C_26
REMARK    3  A    between atoms: C_9  and  C_13
REMARK    4  A    between atoms: C_15  and  C_18
REMARK    5  A    between atoms: C_18  and  C_19
REMARK    6  A    between atoms: C_19  and  C_20
REMARK                            x       y       z     vdW  Elec       q    Type
REMARK                         _______ _______ _______ _____ _____    ______ ____
ROOT
ATOM      1  C   UNL     1       0.434   1.249   2.788  0.00  0.00    +0.176 A 
ATOM      2  N   UNL     1       0.991   1.784   3.901  0.00  0.00    -0.326 N 
ATOM      3  C   UNL     1       0.831   3.125   3.792  0.00  0.00    +0.131 A 
ATOM      4  N   UNL     1       0.210   3.352   2.666  0.00  0.00    -0.134 NA
ATOM      5  N   UNL     1      -0.021   2.237   2.067  0.00  0.00    -0.131 NA
ATOM      6  H   UNL     1       1.417   1.305   4.629  0.00  0.00    +0.168 HD
ENDROOT
BRANCH   1  14
ATOM      7  C   UNL     1      -2.416   0.686   3.845  0.00  0.00    +0.033 C 
ATOM      8  C   UNL     1      -2.149  -0.727   3.321  0.00  0.00    +0.100 C 
ATOM      9  C   UNL     1      -3.451  -1.281   2.767  0.00  0.00    +0.018 C 
ATOM     10  C   UNL     1      -3.458  -1.655   1.485  0.00  0.00    +0.040 C 
ATOM     11  N   UNL     1      -2.377  -1.556   0.698  0.00  0.00    -0.220 NA
ATOM     12  C   UNL     1      -1.213  -1.093   1.079  0.00  0.00    +0.214 C 
ATOM     13  N   UNL     1      -1.033  -0.660   2.377  0.00  0.00    -0.264 N 
ATOM     14  C   UNL     1       0.360  -0.216   2.443  0.00  0.00    +0.283 C 
ATOM     15  N   UNL     1       0.864  -0.457   1.080  0.00  0.00    -0.178 NA
ATOM     16  N   UNL     1      -0.037  -0.933   0.405  0.00  0.00    -0.251 N 
ATOM     17  C   UNL     1      -4.731  -2.210   0.900  0.00  0.00    +0.065 C 
ATOM     18  H   UNL     1       0.073  -1.171  -0.529  0.00  0.00    +0.191 HD
ENDBRANCH   1  14
BRANCH   3  19
ATOM     19  C   UNL     1       1.285   4.163   4.786  0.00  0.00    +0.081 C 
BRANCH  19  20
ATOM     20  C   UNL     1       2.173   5.190   4.080  0.00  0.00    +0.043 C 
BRANCH  20  21
ATOM     21  C   UNL     1       2.627   6.228   5.074  0.00  0.00    -0.047 A 
ATOM     22  C   UNL     1       1.868   7.363   5.284  0.00  0.00    +0.003 A 
ATOM     23  C   UNL     1       2.285   8.315   6.196  0.00  0.00    +0.000 A 
ATOM     24  C   UNL     1       3.461   8.131   6.898  0.00  0.00    +0.000 A 
ATOM     25  C   UNL     1       4.220   6.995   6.689  0.00  0.00    +0.000 A 
ATOM     26  C   UNL     1       3.801   6.041   5.780  0.00  0.00    +0.003 A 
ENDBRANCH  20  21
ENDBRANCH  19  20
ENDBRANCH   3  19
TORSDOF 4
