REMARK  Name = ZINC43741527
REMARK  12 active torsions:
REMARK  status: ('A' for Active; 'I' for Inactive)
REMARK    1  A    between atoms: C_1  and  O_2
REMARK    2  A    between atoms: O_2  and  C_3
REMARK    3  A    between atoms: C_8  and  C_9
REMARK    4  A    between atoms: C_17  and  O_42
REMARK    5  A    between atoms: N_20  and  C_21
REMARK    6  A    between atoms: C_21  and  C_22
REMARK    7  A    between atoms: N_24  and  C_25
REMARK    8  A    between atoms: C_25  and  C_27
REMARK    9  A    between atoms: C_25  and  C_38
REMARK   10  A    between atoms: C_27  and  C_28
REMARK   11  A    between atoms: C_38  and  O_40
REMARK   12  A    between atoms: O_40  and  C_41
REMARK                            x       y       z     vdW  Elec       q    Type
REMARK                         _______ _______ _______ _____ _____    ______ ____
ROOT
ATOM      1  C   UNL     1       0.018  -2.829  -0.013  0.00  0.00    -0.028 C 
ATOM      2  C   UNL     1       0.530  -3.003   1.421  0.00  0.00    +0.011 C 
ATOM      3  C   UNL     1      -0.528  -3.741   2.244  0.00  0.00    +0.005 C 
ATOM      4  C   UNL     1      -0.015  -3.953   3.669  0.00  0.00    +0.000 C 
ATOM      5  C   UNL     1       1.265  -4.791   3.628  0.00  0.00    +0.003 C 
ATOM      6  C   UNL     1       2.328  -4.052   2.813  0.00  0.00    +0.035 C 
ATOM      7  C   UNL     1       1.828  -3.814   1.389  0.00  0.00    +0.066 C 
ATOM      8  C   UNL     1       1.563  -5.160   0.710  0.00  0.00    +0.016 C 
ATOM      9  C   UNL     1       1.005  -4.913  -0.694  0.00  0.00    -0.075 C 
ATOM     10  N   UNL     1      -0.244  -4.147  -0.602  0.00  0.00    +0.390 N 
ATOM     11  H   UNL     1      -0.902  -4.648  -0.024  0.00  0.00    -0.080 HD
ENDROOT
BRANCH   1  17
ATOM     12  C   UNL     1      -1.200  -0.637   0.010  0.00  0.00    +0.122 A 
ATOM     13  C   UNL     1      -2.375   0.101   0.019  0.00  0.00    +0.046 A 
ATOM     14  C   UNL     1      -3.596  -0.545   0.027  0.00  0.00    +0.004 A 
ATOM     15  C   UNL     1      -3.648  -1.927   0.026  0.00  0.00    +0.000 A 
ATOM     16  C   UNL     1      -2.479  -2.665   0.017  0.00  0.00    +0.005 A 
ATOM     17  C   UNL     1      -1.255  -2.023   0.003  0.00  0.00    -0.019 A 
BRANCH  12  19
ATOM     18  C   UNL     1      -0.017   1.425   0.010  0.00  0.00    +0.277 C 
ATOM     19  O   UNL     1       0.002  -0.004   0.002  0.00  0.00    -0.495 OA
ENDBRANCH  12  19
ENDBRANCH   1  17
BRANCH   7  20
ATOM     20  O   UNL     1       2.815  -3.101   0.641  0.00  0.00    -0.388 OA
ATOM     21  H   UNL     1       3.666  -3.556   0.579  0.00  0.00    +0.210 HD
ENDBRANCH   7  20
BRANCH  10  22
ATOM     22  C   UNL     1      -0.811  -3.977  -1.946  0.00  0.00    +0.019 C 
BRANCH  22  23
ATOM     23  C   UNL     1      -1.195  -5.323  -2.505  0.00  0.00    +0.197 C 
ATOM     24  O   UNL     1      -1.014  -6.326  -1.847  0.00  0.00    -0.278 OA
ATOM     25  N   UNL     1      -1.739  -5.412  -3.734  0.00  0.00    -0.304 N 
ATOM     26  H   UNL     1      -1.884  -4.610  -4.260  0.00  0.00    +0.149 HD
BRANCH  25  27
ATOM     27  C   UNL     1      -2.112  -6.721  -4.277  0.00  0.00    +0.186 C 
BRANCH  27  28
ATOM     28  C   UNL     1      -0.909  -7.359  -4.921  0.00  0.00    +0.328 C 
ATOM     29  O   UNL     1       0.152  -6.780  -4.927  0.00  0.00    -0.249 OA
BRANCH  28  30
ATOM     30  O   UNL     1      -1.015  -8.571  -5.489  0.00  0.00    -0.467 OA
ATOM     31  C   UNL     1       0.166  -9.115  -6.081  0.00  0.00    +0.280 C 
ENDBRANCH  28  30
ENDBRANCH  27  28
BRANCH  27  32
ATOM     32  C   UNL     1      -3.216  -6.544  -5.321  0.00  0.00    +0.071 C 
BRANCH  32  33
ATOM     33  C   UNL     1      -4.461  -6.021  -4.652  0.00  0.00    -0.020 A 
ATOM     34  C   UNL     1      -5.492  -6.752  -4.199  0.00  0.00    +0.087 A 
ATOM     35  N   UNL     1      -6.441  -5.931  -3.652  0.00  0.00    -0.360 N 
ATOM     36  H   UNL     1      -7.276  -6.230  -3.260  0.00  0.00    +0.165 HD
ATOM     37  C   UNL     1      -6.034  -4.619  -3.744  0.00  0.00    +0.047 A 
ATOM     38  C   UNL     1      -4.774  -4.618  -4.369  0.00  0.00    +0.003 A 
ATOM     39  C   UNL     1      -4.107  -3.411  -4.591  0.00  0.00    +0.010 A 
ATOM     40  C   UNL     1      -4.683  -2.236  -4.197  0.00  0.00    +0.001 A 
ATOM     41  C   UNL     1      -5.925  -2.232  -3.577  0.00  0.00    +0.002 A 
ATOM     42  C   UNL     1      -6.604  -3.411  -3.356  0.00  0.00    +0.026 A 
ENDBRANCH  32  33
ENDBRANCH  27  32
ENDBRANCH  25  27
ENDBRANCH  22  23
ENDBRANCH  10  22
TORSDOF 10
