REMARK  Name = ZINC36889912
REMARK  1 active torsions:
REMARK  status: ('A' for Active; 'I' for Inactive)
REMARK    1  A    between atoms: C_6  and  N_7
REMARK                            x       y       z     vdW  Elec       q    Type
REMARK                         _______ _______ _______ _____ _____    ______ ____
ROOT
ATOM      1  N   UNL     1      -1.201  -0.723   0.010  0.00  0.00    -0.281 N 
ATOM      2  C   UNL     1      -1.659  -1.551   1.025  0.00  0.00    +0.075 A 
ATOM      3  C   UNL     1      -1.153  -1.928   2.259  0.00  0.00    +0.030 A 
ATOM      4  C   UNL     1      -1.869  -2.794   3.060  0.00  0.00    +0.022 A 
ATOM      5  C   UNL     1      -3.095  -3.289   2.638  0.00  0.00    +0.043 A 
ATOM      6  C   UNL     1      -3.613  -2.925   1.414  0.00  0.00    +0.050 A 
ATOM      7  C   UNL     1      -2.899  -2.049   0.592  0.00  0.00    +0.093 A 
ATOM      8  N   UNL     1      -3.139  -1.518  -0.636  0.00  0.00    -0.214 NA
ATOM      9  C   UNL     1      -2.147  -0.734  -0.978  0.00  0.00    +0.199 A 
ATOM     10  N   UNL     1      -2.066  -0.028  -2.160  0.00  0.00    -0.329 N 
ATOM     11 CL   UNL     1      -3.982  -4.377   3.659  0.00  0.00    -0.083 Cl
ATOM     12  H   UNL     1      -1.294   0.531  -2.340  0.00  0.00    +0.145 HD
ATOM     13  H   UNL     1      -2.782  -0.090  -2.812  0.00  0.00    +0.145 HD
ENDROOT
BRANCH   1  19
ATOM     14  C   UNL     1      -0.017   1.384   0.010  0.00  0.00    +0.027 A 
ATOM     15  C   UNL     1       1.171   2.090   0.002  0.00  0.00    +0.017 A 
ATOM     16  C   UNL     1       2.378   1.414  -0.013  0.00  0.00    +0.018 A 
ATOM     17  C   UNL     1       2.400   0.031  -0.022  0.00  0.00    +0.017 A 
ATOM     18  C   UNL     1       1.215  -0.679  -0.014  0.00  0.00    +0.027 A 
ATOM     19  C   UNL     1       0.002  -0.004   0.002  0.00  0.00    +0.050 A 
ATOM     20 BR   UNL     1       4.002   2.384  -0.024  0.00  0.00    -0.050 Br
ENDBRANCH   1  19
TORSDOF 1
