REMARK  Name = ZINC16937339
REMARK  8 active torsions:
REMARK  status: ('A' for Active; 'I' for Inactive)
REMARK    1  A    between atoms: C_1  and  C_2
REMARK    2  A    between atoms: C_5  and  N_9
REMARK    3  A    between atoms: C_6  and  O_8
REMARK    4  A    between atoms: C_15  and  C_16
REMARK    5  A    between atoms: C_21  and  O_22
REMARK    6  A    between atoms: O_22  and  C_23
REMARK    7  A    between atoms: C_23  and  C_25
REMARK    8  A    between atoms: C_23  and  C_26
REMARK                            x       y       z     vdW  Elec       q    Type
REMARK                         _______ _______ _______ _____ _____    ______ ____
ROOT
ATOM      1  N   UNL     1      -0.562  -4.060  -0.048  0.00  0.00    -0.222 NA
ATOM      2  C   UNL     1      -0.539  -4.725  -1.181  0.00  0.00    +0.166 C 
ATOM      3  N   UNL     1      -0.740  -6.073  -1.389  0.00  0.00    -0.260 N 
ATOM      4  C   UNL     1      -0.681  -6.583  -2.607  0.00  0.00    +0.256 C 
ATOM      5  O   UNL     1      -0.856  -7.770  -2.809  0.00  0.00    -0.269 OA
ATOM      6  C   UNL     1      -0.393  -5.648  -3.711  0.00  0.00    +0.078 C 
ATOM      7  C   UNL     1      -0.276  -5.895  -5.041  0.00  0.00    +0.032 C 
ATOM      8  S   UNL     1      -0.246  -4.101  -2.828  0.00  0.00    -0.049 S 
ATOM      9  H   UNL     1      -0.927  -6.652  -0.634  0.00  0.00    +0.157 HD
ENDROOT
BRANCH   1  14
ATOM     10  C   UNL     1       0.002   1.561  -0.061  0.00  0.00    +0.044 C 
ATOM     11  C   UNL     1      -0.147   0.061  -0.055  0.00  0.00    -0.047 A 
ATOM     12  C   UNL     1      -1.091  -0.540  -0.869  0.00  0.00    +0.005 A 
ATOM     13  C   UNL     1      -1.234  -1.913  -0.872  0.00  0.00    +0.032 A 
ATOM     14  C   UNL     1      -0.424  -2.698  -0.051  0.00  0.00    +0.108 A 
ATOM     15  C   UNL     1       0.530  -2.085   0.771  0.00  0.00    +0.142 A 
ATOM     16  C   UNL     1       0.665  -0.708   0.759  0.00  0.00    +0.051 A 
BRANCH  15  17
ATOM     17  O   UNL     1       1.324  -2.841   1.575  0.00  0.00    -0.505 OA
ATOM     18  H   UNL     1       2.152  -3.121   1.160  0.00  0.00    +0.292 HD
ENDBRANCH  15  17
ENDBRANCH   1  14
BRANCH   7  19
ATOM     19  C   UNL     1      -0.145  -4.779  -5.986  0.00  0.00    +0.018 A 
ATOM     20  C   UNL     1      -0.646  -3.514  -5.656  0.00  0.00    +0.011 A 
ATOM     21  C   UNL     1      -0.518  -2.472  -6.548  0.00  0.00    +0.001 A 
ATOM     22  C   UNL     1       0.103  -2.670  -7.771  0.00  0.00    +0.004 A 
ATOM     23  C   UNL     1       0.601  -3.913  -8.110  0.00  0.00    +0.046 A 
ATOM     24  C   UNL     1       0.488  -4.973  -7.224  0.00  0.00    +0.129 A 
BRANCH  24  25
ATOM     25  O   UNL     1       0.983  -6.193  -7.554  0.00  0.00    -0.477 OA
BRANCH  25  26
ATOM     26  C   UNL     1       1.713  -6.288  -8.779  0.00  0.00    +0.282 C 
ATOM     27  C   UNL     1       0.737  -6.499  -9.939  0.00  0.00    +0.064 C 
BRANCH  26  28
ATOM     28  C   UNL     1       2.667  -7.452  -8.707  0.00  0.00    +0.395 C 
ATOM     29  O   UNL     1       2.653  -8.192  -7.738  0.00  0.00    -0.242 OA
ATOM     30  O   UNL     1       3.452  -7.655  -9.617  0.00  0.00    -0.242 OA
ENDBRANCH  26  28
ENDBRANCH  25  26
ENDBRANCH  24  25
ENDBRANCH   7  19
TORSDOF 6
