REMARK  Name = ZINC04116640
REMARK  8 active torsions:
REMARK  status: ('A' for Active; 'I' for Inactive)
REMARK    1  A    between atoms: C_1  and  N_2
REMARK    2  A    between atoms: N_2  and  C_3
REMARK    3  A    between atoms: N_2  and  C_4
REMARK    4  A    between atoms: C_7  and  C_10
REMARK    5  A    between atoms: C_12  and  C_24
REMARK    6  A    between atoms: C_14  and  C_19
REMARK    7  A    between atoms: C_14  and  O_23
REMARK    8  A    between atoms: C_24  and  C_26
REMARK                            x       y       z     vdW  Elec       q    Type
REMARK                         _______ _______ _______ _____ _____    ______ ____
ROOT
ATOM      1  C   UNL     1       6.056  -0.706  -0.783  0.00  0.00    +0.120 C 
ATOM      2  C   UNL     1       4.987   0.112  -0.050  0.00  0.00    +0.144 C 
ATOM      3  C   UNL     1       5.454   0.347   1.390  0.00  0.00    +0.243 C 
ATOM      4  N   UNL     1       6.772   0.984   1.369  0.00  0.00    -0.264 N 
ATOM      5  C   UNL     1       7.633   0.774   0.362  0.00  0.00    +0.302 C 
ATOM      6  O   UNL     1       8.719   1.319   0.399  0.00  0.00    -0.253 OA
ATOM      7  N   UNL     1       7.341  -0.012  -0.685  0.00  0.00    -0.292 N 
ATOM      8  H   UNL     1       7.029   1.569   2.099  0.00  0.00    +0.153 HD
ATOM      9  H   UNL     1       7.996  -0.124  -1.392  0.00  0.00    +0.151 HD
ENDROOT
BRANCH   1  13
ATOM     10  C   UNL     1       4.966  -1.125  -4.894  0.00  0.00    +0.029 A 
ATOM     11  C   UNL     1       4.731  -2.164  -4.002  0.00  0.00    +0.023 A 
ATOM     12  C   UNL     1       5.085  -2.025  -2.674  0.00  0.00    +0.007 A 
ATOM     13  C   UNL     1       5.672  -0.854  -2.232  0.00  0.00    -0.026 A 
ATOM     14  C   UNL     1       5.902   0.185  -3.116  0.00  0.00    +0.007 A 
ATOM     15  C   UNL     1       5.556   0.050  -4.447  0.00  0.00    +0.023 A 
BRANCH  10  17
ATOM     16  C   UNL     1       4.104  -2.544  -6.734  0.00  0.00    +0.129 C 
ATOM     17  N   UNL     1       4.610  -1.262  -6.237  0.00  0.00    -0.336 N 
ATOM     18  C   UNL     1       4.742  -0.123  -7.150  0.00  0.00    +0.129 C 
ENDBRANCH  10  17
ENDBRANCH   1  13
BRANCH   3  19
ATOM     19  C   UNL     1       4.458   1.258   2.109  0.00  0.00    +0.436 C 
ATOM     20  F   UNL     1       3.197   0.652   2.122  0.00  0.00    -0.166 F 
ATOM     21  F   UNL     1       4.885   1.472   3.424  0.00  0.00    -0.166 F 
ATOM     22  F   UNL     1       4.379   2.484   1.438  0.00  0.00    -0.166 F 
ENDBRANCH   3  19
BRANCH   3  23
ATOM     23  O   UNL     1       5.539  -0.904   2.075  0.00  0.00    -0.364 OA
ATOM     24  H   UNL     1       5.830  -0.831   2.995  0.00  0.00    +0.212 HD
ENDBRANCH   3  23
BRANCH   2  25
ATOM     25  C   UNL     1       3.686  -0.649  -0.042  0.00  0.00    +0.173 C 
ATOM     26  O   UNL     1       3.692  -1.861  -0.045  0.00  0.00    -0.292 OA
BRANCH  25  27
ATOM     27  C   UNL     1       2.408   0.080  -0.030  0.00  0.00    +0.018 A 
ATOM     28  C   UNL     1       1.198  -0.622  -0.022  0.00  0.00    +0.011 A 
ATOM     29  C   UNL     1       0.004   0.069  -0.011  0.00  0.00    +0.001 A 
ATOM     30  C   UNL     1       0.001   1.453  -0.008  0.00  0.00    +0.000 A 
ATOM     31  C   UNL     1       1.194   2.155  -0.016  0.00  0.00    +0.001 A 
ATOM     32  C   UNL     1       2.396   1.479  -0.026  0.00  0.00    +0.011 A 
ENDBRANCH  25  27
ENDBRANCH   2  25
TORSDOF 6
