REMARK  Name = ZINC36504601
REMARK  10 active torsions:
REMARK  status: ('A' for Active; 'I' for Inactive)
REMARK    1  A    between atoms: C_1  and  C_2
REMARK    2  A    between atoms: C_5  and  S_8
REMARK    3  A    between atoms: S_8  and  C_11
REMARK    4  A    between atoms: C_11  and  N_12
REMARK    5  A    between atoms: C_13  and  C_15
REMARK    6  A    between atoms: C_15  and  C_17
REMARK    7  A    between atoms: C_15  and  N_23
REMARK    8  A    between atoms: N_23  and  C_24
REMARK    9  A    between atoms: C_24  and  C_25
REMARK   10  A    between atoms: C_30  and  C_32
REMARK                            x       y       z     vdW  Elec       q    Type
REMARK                         _______ _______ _______ _____ _____    ______ ____
ROOT
ATOM      1  C   UNL     1       2.874  -4.914   3.643  0.00  0.00    +0.193 C 
ENDROOT
BRANCH   1   2
ATOM      2  C   UNL     1       1.911  -3.961   4.302  0.00  0.00    -0.018 A 
ATOM      3  C   UNL     1       0.869  -4.451   5.067  0.00  0.00    +0.006 A 
ATOM      4  C   UNL     1      -0.015  -3.577   5.672  0.00  0.00    +0.000 A 
ATOM      5  C   UNL     1       0.143  -2.213   5.511  0.00  0.00    +0.000 A 
ATOM      6  C   UNL     1       1.185  -1.723   4.746  0.00  0.00    +0.000 A 
ATOM      7  C   UNL     1       2.071  -2.597   4.145  0.00  0.00    +0.006 A 
ENDBRANCH   1   2
BRANCH   1   9
ATOM      8  N   UNL     1       1.752  -4.551   1.468  0.00  0.00    -0.294 N 
ATOM      9  C   UNL     1       2.279  -5.420   2.354  0.00  0.00    +0.239 C 
ATOM     10  O   UNL     1       2.272  -6.609   2.115  0.00  0.00    -0.273 OA
ATOM     11  H   UNL     1       1.757  -3.600   1.660  0.00  0.00    +0.150 HD
BRANCH   8  12
ATOM     12  C   UNL     1       1.173  -5.043   0.216  0.00  0.00    +0.278 C 
BRANCH  12  13
ATOM     13  S   UNL     1      -0.617  -5.252   0.418  0.00  0.00    +0.013 S 
ATOM     14  O   UNL     1      -0.896  -5.945   1.627  0.00  0.00    -0.168 OA
ATOM     15  O   UNL     1      -1.203  -5.668  -0.807  0.00  0.00    -0.168 OA
BRANCH  13  20
ATOM     16  C   UNL     1      -2.738   0.324   1.320  0.00  0.00    +0.044 C 
ATOM     17  C   UNL     1      -2.208  -1.068   1.095  0.00  0.00    -0.050 A 
ATOM     18  C   UNL     1      -2.114  -1.573  -0.189  0.00  0.00    +0.005 A 
ATOM     19  C   UNL     1      -1.627  -2.850  -0.395  0.00  0.00    +0.027 A 
ATOM     20  C   UNL     1      -1.236  -3.623   0.681  0.00  0.00    +0.090 A 
ATOM     21  C   UNL     1      -1.330  -3.119   1.965  0.00  0.00    +0.027 A 
ATOM     22  C   UNL     1      -1.812  -1.839   2.171  0.00  0.00    +0.005 A 
ENDBRANCH  13  20
ENDBRANCH  12  13
ENDBRANCH   8  12
ENDBRANCH   1   9
BRANCH   1  23
ATOM     23  N   UNL     1       3.133  -6.044   4.538  0.00  0.00    -0.277 N 
ATOM     24  C   UNL     1       3.956  -5.892   5.595  0.00  0.00    +0.237 C 
ATOM     25  O   UNL     1       4.482  -4.820   5.804  0.00  0.00    -0.274 OA
BRANCH  24  26
ATOM     26  C   UNL     1       4.221  -7.055   6.516  0.00  0.00    +0.159 C 
ATOM     27  C   UNL     1       3.068  -7.206   7.533  0.00  0.00    +0.041 C 
ATOM     28  C   UNL     1       3.599  -6.389   8.734  0.00  0.00    +0.098 C 
ATOM     29  C   UNL     1       5.102  -6.420   8.569  0.00  0.00    +0.214 C 
ATOM     30  O   UNL     1       5.902  -6.142   9.438  0.00  0.00    -0.276 OA
ATOM     31  N   UNL     1       5.424  -6.802   7.319  0.00  0.00    -0.304 N 
ATOM     32  H   UNL     1       6.331  -6.898   6.991  0.00  0.00    +0.149 HD
ENDBRANCH  24  26
BRANCH  23  33
ATOM     33  C   UNL     1       2.496  -7.339   4.286  0.00  0.00    +0.183 C 
BRANCH  33  34
ATOM     34  C   UNL     1       3.465  -8.243   3.567  0.00  0.00    +0.122 A 
ATOM     35  C   UNL     1       4.242  -9.179   4.141  0.00  0.00    +0.046 A 
ATOM     36  C   UNL     1       4.987  -9.785   3.104  0.00  0.00    +0.041 A 
ATOM     37  C   UNL     1       4.621  -9.184   1.958  0.00  0.00    +0.195 A 
ATOM     38  O   UNL     1       3.694  -8.255   2.244  0.00  0.00    -0.466 OA
ENDBRANCH  33  34
ENDBRANCH  23  33
ENDBRANCH   1  23
TORSDOF 9
