REMARK  Name = ZINC41583732
REMARK  8 active torsions:
REMARK  status: ('A' for Active; 'I' for Inactive)
REMARK    1  A    between atoms: C_1  and  C_2
REMARK    2  A    between atoms: C_5  and  C_31
REMARK    3  A    between atoms: N_8  and  C_10
REMARK    4  A    between atoms: C_10  and  C_11
REMARK    5  A    between atoms: C_12  and  O_30
REMARK    6  A    between atoms: C_19  and  C_20
REMARK    7  A    between atoms: C_25  and  O_26
REMARK    8  A    between atoms: O_26  and  C_27
REMARK                            x       y       z     vdW  Elec       q    Type
REMARK                         _______ _______ _______ _____ _____    ______ ____
ROOT
ATOM      1  C   UNL     1       2.796  -1.563   1.506  0.00  0.00    +0.020 A 
ATOM      2  C   UNL     1       3.572  -2.130   0.507  0.00  0.00    +0.122 A 
ATOM      3  C   UNL     1       4.792  -1.562   0.150  0.00  0.00    +0.046 A 
ATOM      4  C   UNL     1       5.237  -0.436   0.784  0.00  0.00    +0.019 A 
ATOM      5  C   UNL     1       4.465   0.146   1.790  0.00  0.00    +0.068 A 
ATOM      6  C   UNL     1       3.231  -0.415   2.156  0.00  0.00    +0.144 A 
ATOM      7  O   UNL     1       2.670   0.321   3.139  0.00  0.00    -0.451 OA
ATOM      8  C   UNL     1       3.445   1.377   3.482  0.00  0.00    +0.176 C 
ATOM      9  C   UNL     1       3.163   2.303   4.434  0.00  0.00    +0.061 C 
ATOM     10  C   UNL     1       4.654   1.331   2.647  0.00  0.00    +0.231 C 
ATOM     11  O   UNL     1       5.594   2.106   2.653  0.00  0.00    -0.283 OA
ENDROOT
BRANCH   9  12
ATOM     12  C   UNL     1       4.174   3.296   4.815  0.00  0.00    +0.020 A 
ATOM     13  C   UNL     1       5.511   2.912   4.979  0.00  0.00    +0.011 A 
ATOM     14  C   UNL     1       6.455   3.849   5.336  0.00  0.00    +0.001 A 
ATOM     15  C   UNL     1       6.088   5.171   5.536  0.00  0.00    +0.004 A 
ATOM     16  C   UNL     1       4.773   5.564   5.379  0.00  0.00    +0.046 A 
ATOM     17  C   UNL     1       3.809   4.638   5.013  0.00  0.00    +0.127 A 
BRANCH  17  18
ATOM     18  O   UNL     1       2.518   5.024   4.853  0.00  0.00    -0.495 OA
ATOM     19  C   UNL     1       2.223   6.405   5.071  0.00  0.00    +0.277 C 
ENDBRANCH  17  18
ENDBRANCH   9  12
BRANCH   2  20
ATOM     20  O   UNL     1       3.140  -3.249  -0.127  0.00  0.00    -0.506 OA
ATOM     21  H   UNL     1       2.605  -3.074  -0.913  0.00  0.00    +0.292 HD
ENDBRANCH   2  20
BRANCH   1  22
ATOM     22  C   UNL     1       1.478  -2.189   1.882  0.00  0.00    -0.036 C 
BRANCH  22  28
ATOM     23  C   UNL     1      -0.927   1.927   0.770  0.00  0.00    +0.005 C 
ATOM     24  C   UNL     1      -0.785   0.439   0.447  0.00  0.00    -0.031 C 
ATOM     25  C   UNL     1      -2.126  -0.265   0.672  0.00  0.00    +0.003 C 
ATOM     26  C   UNL     1      -1.953  -1.765   0.422  0.00  0.00    -0.031 C 
ATOM     27  C   UNL     1      -0.853  -2.306   1.338  0.00  0.00    -0.075 C 
ATOM     28  N   UNL     1       0.409  -1.613   1.056  0.00  0.00    +0.383 N 
ATOM     29  C   UNL     1       0.273  -0.184   1.361  0.00  0.00    -0.075 C 
ATOM     30  C   UNL     1      -3.268  -2.488   0.719  0.00  0.00    +0.005 C 
ATOM     31  H   UNL     1       0.643  -1.726   0.080  0.00  0.00    -0.081 HD
ENDBRANCH  22  28
ENDBRANCH   1  22
TORSDOF 5
