REMARK  Name = ZINC03159510
REMARK  4 active torsions:
REMARK  status: ('A' for Active; 'I' for Inactive)
REMARK    1  A    between atoms: C_1  and  C_2
REMARK    2  A    between atoms: C_5  and  O_17
REMARK    3  A    between atoms: C_6  and  C_8
REMARK    4  A    between atoms: N_9  and  C_10
REMARK                            x       y       z     vdW  Elec       q    Type
REMARK                         _______ _______ _______ _____ _____    ______ ____
ROOT
ATOM      1  C   UNL     1       9.673   1.170  -0.090  0.00  0.00    +0.044 C 
ATOM      2  C   UNL     1       8.384   1.951  -0.072  0.00  0.00    -0.050 A 
ATOM      3  C   UNL     1       8.417   3.337  -0.066  0.00  0.00    +0.007 A 
ATOM      4  C   UNL     1       7.244   4.064  -0.050  0.00  0.00    +0.046 A 
ATOM      5  C   UNL     1       6.021   3.412  -0.046  0.00  0.00    +0.125 A 
ATOM      6  C   UNL     1       5.982   2.009  -0.048  0.00  0.00    +0.035 A 
ATOM      7  C   UNL     1       7.179   1.284  -0.064  0.00  0.00    +0.016 A 
ENDROOT
BRANCH   6   8
ATOM      8  C   UNL     1       4.692   1.305  -0.038  0.00  0.00    +0.124 C 
ATOM      9  N   UNL     1       3.578   1.984  -0.023  0.00  0.00    -0.236 NA
BRANCH   9  10
ATOM     10  C   UNL     1       2.378   1.330  -0.014  0.00  0.00    +0.153 A 
ATOM     11  C   UNL     1       1.188   2.062   0.002  0.00  0.00    +0.049 A 
ATOM     12  C   UNL     1      -0.017   1.385   0.010  0.00  0.00    +0.020 A 
ATOM     13  C   UNL     1       0.002  -0.004   0.002  0.00  0.00    +0.036 A 
ATOM     14  C   UNL     1       1.216  -0.667  -0.013  0.00  0.00    +0.128 A 
ATOM     15  N   UNL     1       2.352   0.001  -0.021  0.00  0.00    -0.235 NA
ATOM     16 BR   UNL     1      -1.618  -0.980   0.013  0.00  0.00    -0.049 Br
ENDBRANCH   9  10
ENDBRANCH   6   8
BRANCH   5  17
ATOM     17  O   UNL     1       4.867   4.126  -0.036  0.00  0.00    -0.506 OA
ATOM     18  H   UNL     1       4.540   4.332   0.850  0.00  0.00    +0.292 HD
ENDBRANCH   5  17
TORSDOF 3
