REMARK  Name = ZINC39634878
REMARK  15 active torsions:
REMARK  status: ('A' for Active; 'I' for Inactive)
REMARK    1  A    between atoms: C_1  and  C_2
REMARK    2  A    between atoms: C_2  and  C_3
REMARK    3  A    between atoms: C_3  and  C_5
REMARK    4  A    between atoms: C_3  and  C_6
REMARK    5  A    between atoms: C_6  and  C_7
REMARK    6  A    between atoms: C_11  and  C_20
REMARK    7  A    between atoms: N_22  and  C_23
REMARK    8  A    between atoms: C_23  and  C_24
REMARK    9  A    between atoms: C_24  and  N_25
REMARK   10  A    between atoms: N_25  and  C_26
REMARK   11  A    between atoms: N_25  and  C_29
REMARK   12  A    between atoms: C_26  and  C_27
REMARK   13  A    between atoms: C_26  and  C_28
REMARK   14  A    between atoms: C_29  and  C_30
REMARK   15  A    between atoms: C_29  and  C_31
REMARK                            x       y       z     vdW  Elec       q    Type
REMARK                         _______ _______ _______ _____ _____    ______ ____
ROOT
ATOM      1  C   UNL     1       0.745  -1.247   1.626  0.00  0.00    +0.216 C 
ATOM      2  O   UNL     1      -0.006  -0.299   1.539  0.00  0.00    -0.276 OA
ATOM      3  N   UNL     1       0.412  -2.424   1.059  0.00  0.00    -0.300 N 
ATOM      4  C   UNL     1       1.189  -3.686   1.064  0.00  0.00    +0.121 C 
ATOM      5  C   UNL     1       0.130  -4.796   1.247  0.00  0.00    +0.100 C 
ATOM      6  C   UNL     1      -1.181  -4.175   0.736  0.00  0.00    -0.004 C 
ATOM      7  C   UNL     1      -0.816  -2.750   0.296  0.00  0.00    +0.115 C 
ATOM      8  C   UNL     1      -2.215  -4.126   1.857  0.00  0.00    -0.010 C 
ATOM      9  C   UNL     1      -3.527  -3.557   1.310  0.00  0.00    -0.082 C 
ATOM     10  N   UNL     1      -4.008  -4.403   0.210  0.00  0.00    +0.379 N 
ATOM     11  C   UNL     1      -3.051  -4.371  -0.902  0.00  0.00    -0.082 C 
ATOM     12  C   UNL     1      -1.718  -4.973  -0.448  0.00  0.00    -0.010 C 
ATOM     13  H   UNL     1      -4.110  -5.352   0.538  0.00  0.00    -0.086 HD
ATOM     14  H   UNL     1      -4.903  -4.062  -0.108  0.00  0.00    -0.086 HD
ENDROOT
BRANCH   5  15
ATOM     15  C   UNL     1       0.004  -5.167   2.702  0.00  0.00    +0.218 C 
ATOM     16  O   UNL     1       0.303  -4.364   3.561  0.00  0.00    -0.275 OA
ATOM     17  N   UNL     1      -0.439  -6.391   3.050  0.00  0.00    -0.317 N 
ATOM     18  H   UNL     1      -0.678  -7.034   2.363  0.00  0.00    +0.149 HD
BRANCH  17  19
ATOM     19  C   UNL     1      -0.561  -6.752   4.464  0.00  0.00    +0.085 C 
BRANCH  19  20
ATOM     20  C   UNL     1      -1.083  -8.186   4.582  0.00  0.00    -0.059 C 
BRANCH  20  21
ATOM     21  N   UNL     1      -1.314  -8.508   5.996  0.00  0.00    +0.384 N 
ATOM     22  H   UNL     1      -0.473  -8.329   6.524  0.00  0.00    -0.081 HD
BRANCH  21  23
ATOM     23  C   UNL     1      -2.406  -7.675   6.516  0.00  0.00    -0.074 C 
ATOM     24  C   UNL     1      -3.749  -8.331   6.189  0.00  0.00    -0.014 C 
ATOM     25  C   UNL     1      -2.263  -7.536   8.034  0.00  0.00    -0.014 C 
ENDBRANCH  21  23
BRANCH  21  26
ATOM     26  C   UNL     1      -1.677  -9.926   6.122  0.00  0.00    -0.074 C 
ATOM     27  C   UNL     1      -0.604 -10.789   5.455  0.00  0.00    -0.014 C 
ATOM     28  C   UNL     1      -1.781 -10.296   7.603  0.00  0.00    -0.014 C 
ENDBRANCH  21  26
ENDBRANCH  20  21
ENDBRANCH  19  20
ENDBRANCH  17  19
ENDBRANCH   5  15
BRANCH   1  29
ATOM     29  C   UNL     1       2.049  -1.110   2.368  0.00  0.00    +0.099 C 
BRANCH  29  30
ATOM     30  C   UNL     1       2.181   0.315   2.910  0.00  0.00    -0.006 C 
ATOM     31  C   UNL     1       1.092   0.565   3.955  0.00  0.00    +0.008 C 
BRANCH  30  33
ATOM     32  C   UNL     1       3.737   1.948   3.984  0.00  0.00    +0.004 C 
ATOM     33  C   UNL     1       3.557   0.490   3.554  0.00  0.00    +0.000 C 
ENDBRANCH  30  33
ENDBRANCH  29  30
ENDBRANCH   1  29
TORSDOF 9
