REMARK  Name = ZINC13782007
REMARK  12 active torsions:
REMARK  status: ('A' for Active; 'I' for Inactive)
REMARK    1  A    between atoms: C_1  and  S_2
REMARK    2  A    between atoms: S_2  and  N_13
REMARK    3  A    between atoms: N_3  and  C_4
REMARK    4  A    between atoms: C_4  and  C_5
REMARK    5  A    between atoms: C_5  and  C_6
REMARK    6  A    between atoms: C_6  and  C_7
REMARK    7  A    between atoms: N_13  and  C_14
REMARK    8  A    between atoms: C_14  and  C_15
REMARK    9  A    between atoms: C_15  and  C_16
REMARK   10  A    between atoms: C_16  and  N_17
REMARK   11  A    between atoms: N_17  and  C_18
REMARK   12  A    between atoms: C_18  and  C_19
REMARK                            x       y       z     vdW  Elec       q    Type
REMARK                         _______ _______ _______ _____ _____    ______ ____
ROOT
ATOM      1  C   UNL     1       1.919  -0.233  -3.500  0.00  0.00    +0.035 C 
ENDROOT
BRANCH   1   2
ATOM      2  C   UNL     1       0.675  -0.166  -2.613  0.00  0.00    +0.096 C 
BRANCH   2   3
ATOM      3  N   UNL     1       1.058  -0.384  -1.216  0.00  0.00    -0.255 NA
ATOM      4  H   UNL     1       1.931  -0.750  -1.004  0.00  0.00    +0.136 HD
BRANCH   3   6
ATOM      5  C   UNL     1      -0.022   1.810   0.012  0.00  0.00    +0.115 C 
ATOM      6  S   UNL     1       0.002  -0.004   0.002  0.00  0.00    -0.035 S 
ATOM      7  N   UNL     1       0.743  -0.362   1.248  0.00  0.00    -0.249 NA
BRANCH   7   8
ATOM      8  C   UNL     1       1.186  -1.742   1.466  0.00  0.00    +0.151 C 
BRANCH   8   9
ATOM      9  C   UNL     1       2.710  -1.772   1.605  0.00  0.00    +0.030 C 
BRANCH   9  10
ATOM     10  C   UNL     1       3.172  -3.213   1.833  0.00  0.00    +0.056 C 
BRANCH  10  11
ATOM     11  C   UNL     1       4.673  -3.243   1.970  0.00  0.00    +0.033 A 
ATOM     12  C   UNL     1       5.559  -3.298   0.958  0.00  0.00    +0.105 A 
ATOM     13  N   UNL     1       6.806  -3.307   1.523  0.00  0.00    -0.352 N 
ATOM     14  H   UNL     1       7.652  -3.342   1.050  0.00  0.00    +0.166 HD
ATOM     15  C   UNL     1       6.638  -3.257   2.862  0.00  0.00    +0.171 A 
ATOM     16  N   UNL     1       5.359  -3.214   3.122  0.00  0.00    -0.350 N 
ATOM     17  H   UNL     1       4.968  -3.170   4.008  0.00  0.00    +0.166 HD
ENDBRANCH  10  11
ENDBRANCH   9  10
ENDBRANCH   8   9
ENDBRANCH   7   8
ENDBRANCH   3   6
ENDBRANCH   2   3
ENDBRANCH   1   2
BRANCH   1  18
ATOM     18  C   UNL     1       1.519  -0.005  -4.959  0.00  0.00    +0.108 C 
BRANCH  18  19
ATOM     19  N   UNL     1       2.710  -0.070  -5.808  0.00  0.00    -0.312 N 
ATOM     20  C   UNL     1       3.440   1.084  -6.071  0.00  0.00    +0.099 A 
ATOM     21  C   UNL     1       3.036   2.296  -5.520  0.00  0.00    +0.042 A 
ATOM     22  C   UNL     1       3.771   3.436  -5.790  0.00  0.00    +0.005 A 
ATOM     23  C   UNL     1       4.889   3.325  -6.606  0.00  0.00    +0.018 A 
ATOM     24  C   UNL     1       5.233   2.091  -7.119  0.00  0.00    +0.084 A 
ATOM     25  N   UNL     1       4.516   1.019  -6.840  0.00  0.00    -0.350 N 
ATOM     26  H   UNL     1       4.782   0.163  -7.210  0.00  0.00    +0.166 HD
BRANCH  19  27
ATOM     27  C   UNL     1       3.134  -1.350  -6.380  0.00  0.00    +0.141 C 
BRANCH  27  28
ATOM     28  C   UNL     1       2.475  -1.543  -7.722  0.00  0.00    -0.030 A 
ATOM     29  C   UNL     1       1.246  -2.169  -7.805  0.00  0.00    +0.006 A 
ATOM     30  C   UNL     1       0.641  -2.346  -9.036  0.00  0.00    +0.015 A 
ATOM     31  C   UNL     1       1.267  -1.895 -10.184  0.00  0.00    +0.018 A 
ATOM     32  C   UNL     1       2.498  -1.269 -10.101  0.00  0.00    +0.015 A 
ATOM     33  C   UNL     1       3.099  -1.088  -8.869  0.00  0.00    +0.006 A 
ATOM     34 BR   UNL     1       0.441  -2.137 -11.868  0.00  0.00    -0.050 Br
ENDBRANCH  27  28
ENDBRANCH  19  27
ENDBRANCH  18  19
ENDBRANCH   1  18
TORSDOF 11
