REMARK  Name = ZINC65297987
REMARK  5 active torsions:
REMARK  status: ('A' for Active; 'I' for Inactive)
REMARK    1  A    between atoms: C_1  and  C_2
REMARK    2  A    between atoms: C_2  and  N_3
REMARK    3  A    between atoms: C_10  and  C_22
REMARK    4  A    between atoms: C_13  and  C_15
REMARK    5  A    between atoms: C_27  and  O_28
REMARK                            x       y       z     vdW  Elec       q    Type
REMARK                         _______ _______ _______ _____ _____    ______ ____
ROOT
ATOM      1  N   UNL     1      -1.376  -0.512   0.012  0.00  0.00    +0.380 N 
ATOM      2  C   UNL     1      -2.051  -0.117  -1.230  0.00  0.00    -0.075 C 
ATOM      3  C   UNL     1      -3.510  -0.577  -1.190  0.00  0.00    +0.027 C 
ATOM      4  C   UNL     1      -3.555  -2.102  -1.048  0.00  0.00    +0.109 C 
ATOM      5  C   UNL     1      -2.788  -2.505   0.216  0.00  0.00    +0.027 C 
ATOM      6  C   UNL     1      -1.355  -1.976   0.125  0.00  0.00    -0.075 C 
ATOM      7  N   UNL     1      -4.953  -2.535  -0.925  0.00  0.00    -0.286 NA
ATOM      8  C   UNL     1      -5.036  -4.005  -0.978  0.00  0.00    +0.095 C 
ATOM      9  C   UNL     1      -4.650  -4.454  -2.391  0.00  0.00    +0.079 C 
ATOM     10  C   UNL     1      -3.391  -3.751  -2.814  0.00  0.00    +0.047 C 
ATOM     11  N   UNL     1      -2.931  -2.718  -2.214  0.00  0.00    -0.266 NA
ATOM     12  H   UNL     1      -5.368  -2.180  -0.076  0.00  0.00    +0.125 HD
ATOM     13  H   UNL     1      -1.871  -0.123   0.800  0.00  0.00    -0.082 HD
ENDROOT
BRANCH  10  14
ATOM     14  C   UNL     1      -2.649  -4.276  -3.976  0.00  0.00    -0.004 A 
ATOM     15  C   UNL     1      -3.122  -5.398  -4.661  0.00  0.00    +0.012 A 
ATOM     16  C   UNL     1      -2.425  -5.885  -5.746  0.00  0.00    +0.039 A 
ATOM     17  C   UNL     1      -1.257  -5.263  -6.158  0.00  0.00    +0.123 A 
ATOM     18  C   UNL     1      -0.783  -4.149  -5.483  0.00  0.00    +0.039 A 
ATOM     19  C   UNL     1      -1.475  -3.650  -4.400  0.00  0.00    +0.012 A 
ATOM     20  F   UNL     1      -0.578  -5.744  -7.222  0.00  0.00    -0.205 F 
ENDBRANCH  10  14
BRANCH   8  21
ATOM     21  C   UNL     1      -6.443  -4.447  -0.669  0.00  0.00    +0.013 A 
ATOM     22  C   UNL     1      -7.503  -3.592  -0.903  0.00  0.00    +0.028 A 
ATOM     23  C   UNL     1      -8.795  -3.997  -0.620  0.00  0.00    +0.042 A 
ATOM     24  C   UNL     1      -9.028  -5.259  -0.102  0.00  0.00    +0.023 A 
ATOM     25  C   UNL     1      -7.972  -6.116   0.133  0.00  0.00    +0.047 A 
ATOM     26  C   UNL     1      -6.676  -5.714  -0.155  0.00  0.00    +0.122 A 
ATOM     27 CL   UNL     1     -10.125  -2.921  -0.914  0.00  0.00    -0.084 Cl
BRANCH  26  28
ATOM     28  O   UNL     1      -5.635  -6.559   0.070  0.00  0.00    -0.506 OA
ATOM     29  H   UNL     1      -5.253  -6.485   0.955  0.00  0.00    +0.292 HD
ENDBRANCH  26  28
ENDBRANCH   8  21
BRANCH   1  31
ATOM     30  C   UNL     1      -0.019   1.526   0.010  0.00  0.00    -0.017 C 
ATOM     31  C   UNL     1       0.002  -0.004   0.002  0.00  0.00    -0.082 C 
ENDBRANCH   1  31
TORSDOF 4
