REMARK  Name = ZINC22130625
REMARK  4 active torsions:
REMARK  status: ('A' for Active; 'I' for Inactive)
REMARK    1  A    between atoms: C_1  and  C_2
REMARK    2  A    between atoms: C_8  and  C_9
REMARK    3  A    between atoms: N_11  and  C_25
REMARK    4  A    between atoms: C_13  and  C_14
REMARK                            x       y       z     vdW  Elec       q    Type
REMARK                         _______ _______ _______ _____ _____    ______ ____
ROOT
ATOM      1  C   UNL     1      -0.315  -1.532   3.505  0.00  0.00    +0.022 A 
ATOM      2  C   UNL     1      -0.185  -2.896   3.279  0.00  0.00    +0.123 A 
ATOM      3  N   UNL     1       0.045  -3.487   4.462  0.00  0.00    -0.239 N 
ATOM      4  N   UNL     1       0.068  -2.526   5.476  0.00  0.00    -0.166 NA
ATOM      5  C   UNL     1      -0.137  -1.338   4.952  0.00  0.00    +0.107 A 
ENDROOT
BRANCH   5   6
ATOM      6  C   UNL     1      -0.183  -0.051   5.680  0.00  0.00    +0.088 A 
ATOM      7  C   UNL     1      -0.169  -0.005   7.055  0.00  0.00    +0.028 A 
ATOM      8  C   UNL     1      -0.217   1.316   7.686  0.00  0.00    +0.018 A 
ATOM      9  C   UNL     1       0.058   1.472   9.049  0.00  0.00    +0.011 A 
ATOM     10  C   UNL     1       0.009   2.716   9.612  0.00  0.00    +0.001 A 
ATOM     11  C   UNL     1      -0.313   3.826   8.844  0.00  0.00    +0.004 A 
ATOM     12  C   UNL     1      -0.589   3.695   7.498  0.00  0.00    +0.047 A 
ATOM     13  C   UNL     1      -0.546   2.441   6.905  0.00  0.00    +0.139 A 
ATOM     14  O   UNL     1      -0.819   2.287   5.588  0.00  0.00    -0.422 OA
ATOM     15  C   UNL     1      -0.239   1.235   4.962  0.00  0.00    +0.347 A 
ATOM     16  O   UNL     1       0.218   1.345   3.839  0.00  0.00    -0.244 OA
ENDBRANCH   5   6
BRANCH   1  24
ATOM     17  C   UNL     1      -1.178   1.402   0.052  0.00  0.00    +0.068 C 
ATOM     18  C   UNL     1      -0.204   0.255   0.124  0.00  0.00    +0.068 C 
ATOM     19  N   UNL     1       0.574  -0.151  -0.832  0.00  0.00    -0.184 NA
ATOM     20  N   UNL     1       1.349  -1.239  -0.430  0.00  0.00    -0.203 N 
ATOM     21  C   UNL     1       1.066  -1.562   0.849  0.00  0.00    +0.265 C 
ATOM     22  O   UNL     1       1.564  -2.460   1.506  0.00  0.00    -0.268 OA
ATOM     23  C   UNL     1       0.042  -0.604   1.291  0.00  0.00    +0.061 C 
ATOM     24  C   UNL     1      -0.563  -0.530   2.537  0.00  0.00    +0.026 C 
ATOM     25  H   UNL     1       1.996  -1.697  -0.989  0.00  0.00    +0.178 HD
ENDBRANCH   1  24
BRANCH   3  26
ATOM     26  C   UNL     1       0.232  -4.862   4.652  0.00  0.00    +0.065 A 
ATOM     27  C   UNL     1       0.193  -5.726   3.566  0.00  0.00    +0.028 A 
ATOM     28  C   UNL     1       0.378  -7.081   3.757  0.00  0.00    +0.002 A 
ATOM     29  C   UNL     1       0.602  -7.578   5.028  0.00  0.00    +0.000 A 
ATOM     30  C   UNL     1       0.641  -6.720   6.112  0.00  0.00    +0.002 A 
ATOM     31  C   UNL     1       0.463  -5.363   5.927  0.00  0.00    +0.028 A 
ENDBRANCH   3  26
TORSDOF 3
