REMARK  Name = ZINC49469374
REMARK  11 active torsions:
REMARK  status: ('A' for Active; 'I' for Inactive)
REMARK    1  A    between atoms: C_1  and  C_2
REMARK    2  A    between atoms: C_4  and  C_29
REMARK    3  A    between atoms: C_5  and  S_9
REMARK    4  A    between atoms: C_6  and  C_8
REMARK    5  A    between atoms: S_9  and  N_12
REMARK    6  A    between atoms: N_12  and  C_13
REMARK    7  A    between atoms: C_13  and  C_14
REMARK    8  A    between atoms: C_14  and  N_15
REMARK    9  A    between atoms: C_20  and  C_22
REMARK   10  A    between atoms: C_23  and  C_28
REMARK   11  A    between atoms: C_25  and  C_27
REMARK                            x       y       z     vdW  Elec       q    Type
REMARK                         _______ _______ _______ _____ _____    ______ ____
ROOT
ATOM      1  C   UNL     1       1.226  -5.283   1.330  0.00  0.00    +0.129 C 
ENDROOT
BRANCH   1   2
ATOM      2  N   UNL     1       0.381  -5.331   0.134  0.00  0.00    -0.188 NA
ATOM      3  H   UNL     1       0.609  -5.924  -0.598  0.00  0.00    +0.148 HD
BRANCH   2   4
ATOM      4  S   UNL     1      -0.965  -4.371   0.034  0.00  0.00    +0.059 S 
ATOM      5  O   UNL     1      -1.681  -4.546   1.249  0.00  0.00    -0.153 OA
ATOM      6  O   UNL     1      -1.549  -4.623  -1.237  0.00  0.00    -0.153 OA
BRANCH   4  11
ATOM      7  C   UNL     1       0.932   1.356  -0.041  0.00  0.00    +0.044 C 
ATOM      8  C   UNL     1       0.458  -0.075  -0.022  0.00  0.00    -0.050 A 
ATOM      9  C   UNL     1       0.126  -0.677   1.177  0.00  0.00    +0.008 A 
ATOM     10  C   UNL     1      -0.309  -1.989   1.194  0.00  0.00    -0.024 A 
ATOM     11  C   UNL     1      -0.412  -2.699   0.012  0.00  0.00    +0.111 A 
ATOM     12  C   UNL     1      -0.080  -2.096  -1.187  0.00  0.00    -0.024 A 
ATOM     13  C   UNL     1       0.350  -0.782  -1.205  0.00  0.00    +0.008 A 
ATOM     14  C   UNL     1      -0.192  -2.869  -2.476  0.00  0.00    +0.046 C 
ATOM     15  C   UNL     1      -0.670  -2.646   2.501  0.00  0.00    +0.046 C 
ENDBRANCH   4  11
ENDBRANCH   2   4
ENDBRANCH   1   2
BRANCH   1  16
ATOM     16  C   UNL     1       2.159  -6.496   1.343  0.00  0.00    +0.164 C 
BRANCH  16  17
ATOM     17  N   UNL     1       3.005  -6.449   2.538  0.00  0.00    -0.228 N 
ATOM     18  C   UNL     1       2.578  -7.047   3.666  0.00  0.00    +0.267 A 
ATOM     19  O   UNL     1       1.501  -7.620   3.688  0.00  0.00    -0.266 OA
ATOM     20  C   UNL     1       3.386  -7.007   4.824  0.00  0.00    +0.074 A 
ATOM     21  C   UNL     1       4.581  -6.355   4.748  0.00  0.00    +0.036 A 
ATOM     22  C   UNL     1       4.940  -5.757   3.515  0.00  0.00    +0.100 A 
ATOM     23  N   UNL     1       4.135  -5.842   2.480  0.00  0.00    -0.168 NA
BRANCH  22  24
ATOM     24  C   UNL     1       6.226  -5.040   3.391  0.00  0.00    +0.062 A 
ATOM     25  C   UNL     1       6.768  -4.391   2.311  0.00  0.00    +0.055 A 
ATOM     26  N   UNL     1       7.945  -3.833   2.488  0.00  0.00    -0.249 NA
ATOM     27  C   UNL     1       8.567  -3.896   3.640  0.00  0.00    +0.076 A 
ATOM     28  S   UNL     1       7.505  -4.771   4.609  0.00  0.00    -0.070 S 
ATOM     29  C   UNL     1       9.909  -3.318   4.010  0.00  0.00    +0.073 C 
ATOM     30  C   UNL     1       6.050  -4.321   0.988  0.00  0.00    +0.067 C 
ENDBRANCH  22  24
ENDBRANCH  16  17
ENDBRANCH   1  16
TORSDOF 6
