REMARK  Name = ZINC65920897
REMARK  8 active torsions:
REMARK  status: ('A' for Active; 'I' for Inactive)
REMARK    1  A    between atoms: C_1  and  C_2
REMARK    2  A    between atoms: C_2  and  C_3
REMARK    3  A    between atoms: C_2  and  C_4
REMARK    4  A    between atoms: C_4  and  C_5
REMARK    5  A    between atoms: C_4  and  N_17
REMARK    6  A    between atoms: N_7  and  N_8
REMARK    7  A    between atoms: N_11  and  C_12
REMARK    8  A    between atoms: C_18  and  C_20
REMARK                            x       y       z     vdW  Elec       q    Type
REMARK                         _______ _______ _______ _____ _____    ______ ____
ROOT
ATOM      1  C   UNL     1      -1.433  -0.534   0.013  0.00  0.00    +0.163 C 
ENDROOT
BRANCH   1   2
ATOM      2  C   UNL     1      -2.125  -0.137  -1.266  0.00  0.00    +0.250 C 
ATOM      3  O   UNL     1      -3.122   0.552  -1.228  0.00  0.00    -0.272 OA
ATOM      4  N   UNL     1      -1.635  -0.549  -2.452  0.00  0.00    -0.232 N 
ATOM      5  H   UNL     1      -0.837  -1.100  -2.483  0.00  0.00    +0.173 HD
BRANCH   4   6
ATOM      6  N   UNL     1      -2.277  -0.180  -3.642  0.00  0.00    -0.218 N 
ATOM      7  C   UNL     1      -1.788  -0.592  -4.828  0.00  0.00    +0.316 C 
ATOM      8  O   UNL     1      -2.345  -0.272  -5.860  0.00  0.00    -0.251 OA
ATOM      9  N   UNL     1      -0.679  -1.357  -4.870  0.00  0.00    -0.295 N 
ATOM     10  H   UNL     1      -3.075   0.371  -3.611  0.00  0.00    +0.174 HD
ATOM     11  H   UNL     1      -0.234  -1.613  -4.047  0.00  0.00    +0.151 HD
BRANCH   9  12
ATOM     12  C   UNL     1      -0.147  -1.805  -6.160  0.00  0.00    +0.074 C 
ATOM     13  C   UNL     1       0.825  -0.749  -6.725  0.00  0.00    +0.022 C 
ATOM     14  C   UNL     1       2.224  -1.244  -6.282  0.00  0.00    +0.002 C 
ATOM     15  C   UNL     1       2.106  -2.781  -6.433  0.00  0.00    +0.002 C 
ATOM     16  C   UNL     1       0.667  -3.097  -5.974  0.00  0.00    +0.022 C 
ENDBRANCH   9  12
ENDBRANCH   4   6
ENDBRANCH   1   2
BRANCH   1  17
ATOM     17  N   UNL     1      -2.155   0.035   1.154  0.00  0.00    -0.300 N 
ATOM     18  C   UNL     1      -2.067  -0.550   2.366  0.00  0.00    +0.245 C 
ATOM     19  O   UNL     1      -1.389  -1.549   2.511  0.00  0.00    -0.270 OA
ATOM     20  H   UNL     1      -2.696   0.831   1.038  0.00  0.00    +0.150 HD
BRANCH  18  21
ATOM     21  C   UNL     1      -2.795   0.023   3.517  0.00  0.00    +0.037 A 
ATOM     22  C   UNL     1      -3.579   1.167   3.352  0.00  0.00    +0.014 A 
ATOM     23  C   UNL     1      -4.256   1.696   4.430  0.00  0.00    +0.021 A 
ATOM     24  C   UNL     1      -4.159   1.097   5.675  0.00  0.00    +0.041 A 
ATOM     25  C   UNL     1      -3.383  -0.038   5.845  0.00  0.00    +0.021 A 
ATOM     26  C   UNL     1      -2.706  -0.580   4.773  0.00  0.00    +0.014 A 
ATOM     27 CL   UNL     1      -5.014   1.770   7.027  0.00  0.00    -0.084 Cl
ENDBRANCH  18  21
ENDBRANCH   1  17
BRANCH   1  29
ATOM     28  C   UNL     1      -0.019   1.526   0.010  0.00  0.00    +0.009 C 
ATOM     29  C   UNL     1       0.002  -0.004   0.002  0.00  0.00    +0.012 C 
ATOM     30  C   UNL     1       0.742  -0.511   1.242  0.00  0.00    +0.009 C 
ENDBRANCH   1  29
TORSDOF 6
