REMARK  Name = ZINC12378942
REMARK  8 active torsions:
REMARK  status: ('A' for Active; 'I' for Inactive)
REMARK    1  A    between atoms: C_1  and  C_2
REMARK    2  A    between atoms: C_2  and  C_18
REMARK    3  A    between atoms: N_3  and  N_4
REMARK    4  A    between atoms: C_5  and  C_7
REMARK    5  A    between atoms: C_7  and  O_8
REMARK    6  A    between atoms: O_8  and  C_9
REMARK    7  A    between atoms: C_18  and  C_19
REMARK    8  A    between atoms: C_19  and  O_29
REMARK                            x       y       z     vdW  Elec       q    Type
REMARK                         _______ _______ _______ _____ _____    ______ ____
ROOT
ATOM      1  C   UNL     1       3.099  -0.455  -0.026  0.00  0.00    +0.062 C 
ATOM      2  C   UNL     1       2.181  -0.079   1.109  0.00  0.00    +0.037 C 
ATOM      3  N   UNL     1       2.571   0.757   1.997  0.00  0.00    -0.189 NA
ENDROOT
BRANCH   3   4
ATOM      4  N   UNL     1       1.765   1.018   3.113  0.00  0.00    -0.204 N 
ATOM      5  C   UNL     1       2.125   1.972   3.995  0.00  0.00    +0.270 C 
ATOM      6  O   UNL     1       3.146   2.604   3.822  0.00  0.00    -0.270 OA
ATOM      7  H   UNL     1       0.949   0.513   3.251  0.00  0.00    +0.177 HD
BRANCH   5   8
ATOM      8  C   UNL     1       1.259   2.254   5.195  0.00  0.00    +0.326 C 
BRANCH   8   9
ATOM      9  O   UNL     1       1.848   3.299   5.973  0.00  0.00    -0.480 OA
BRANCH   9  10
ATOM     10  C   UNL     1       1.187   3.677   7.099  0.00  0.00    +0.158 A 
ATOM     11  C   UNL     1       0.241   4.691   7.043  0.00  0.00    +0.085 A 
ATOM     12  C   UNL     1      -0.434   5.069   8.188  0.00  0.00    +0.043 A 
ATOM     13  C   UNL     1      -0.158   4.447   9.393  0.00  0.00    +0.044 A 
ATOM     14  C   UNL     1       0.789   3.440   9.453  0.00  0.00    +0.043 A 
ATOM     15  C   UNL     1       1.462   3.054   8.308  0.00  0.00    +0.085 A 
ATOM     16 CL   UNL     1       2.649   1.790   8.384  0.00  0.00    -0.080 Cl
ATOM     17 CL   UNL     1      -1.002   4.930  10.831  0.00  0.00    -0.083 Cl
ATOM     18 CL   UNL     1      -0.100   5.477   5.533  0.00  0.00    -0.080 Cl
ENDBRANCH   9  10
ENDBRANCH   8   9
ENDBRANCH   5   8
ENDBRANCH   3   4
BRANCH   2  19
ATOM     19  C   UNL     1       0.805  -0.687   1.198  0.00  0.00    +0.101 C 
BRANCH  19  20
ATOM     20  C   UNL     1      -0.211   0.256   0.551  0.00  0.00    +0.173 C 
ATOM     21  C   UNL     1      -1.602  -0.332   0.625  0.00  0.00    +0.014 A 
ATOM     22  C   UNL     1      -2.412  -0.689   1.679  0.00  0.00    +0.009 A 
ATOM     23  C   UNL     1      -3.668  -1.216   1.437  0.00  0.00    +0.000 A 
ATOM     24  C   UNL     1      -4.104  -1.383   0.135  0.00  0.00    +0.002 A 
ATOM     25  C   UNL     1      -3.292  -1.023  -0.930  0.00  0.00    +0.024 A 
ATOM     26  C   UNL     1      -2.026  -0.492  -0.691  0.00  0.00    +0.040 A 
ATOM     27  N   UNL     1      -1.035  -0.064  -1.574  0.00  0.00    -0.282 N 
ATOM     28  C   UNL     1       0.057   0.388  -0.934  0.00  0.00    +0.254 C 
ATOM     29  O   UNL     1       1.067   0.820  -1.448  0.00  0.00    -0.272 OA
ATOM     30  H   UNL     1      -1.123  -0.089  -2.540  0.00  0.00    +0.155 HD
BRANCH  20  31
ATOM     31  O   UNL     1      -0.175   1.538   1.181  0.00  0.00    -0.374 OA
ATOM     32  H   UNL     1       0.686   1.974   1.137  0.00  0.00    +0.211 HD
ENDBRANCH  20  31
ENDBRANCH  19  20
ENDBRANCH   2  19
TORSDOF 7
