REMARK  Name = ZINC28050872
REMARK  9 active torsions:
REMARK  status: ('A' for Active; 'I' for Inactive)
REMARK    1  A    between atoms: C_1  and  C_2
REMARK    2  A    between atoms: C_2  and  N_3
REMARK    3  A    between atoms: C_6  and  C_21
REMARK    4  A    between atoms: N_10  and  C_11
REMARK    5  A    between atoms: C_14  and  S_17
REMARK    6  A    between atoms: S_17  and  N_20
REMARK    7  A    between atoms: C_21  and  C_22
REMARK    8  A    between atoms: N_24  and  C_25
REMARK    9  A    between atoms: C_30  and  C_31
REMARK                            x       y       z     vdW  Elec       q    Type
REMARK                         _______ _______ _______ _____ _____    ______ ____
ROOT
ATOM      1  N   UNL     1      -0.042   1.073   2.468  0.00  0.00    -0.250 N 
ATOM      2  C   UNL     1       0.920   1.823   2.977  0.00  0.00    +0.235 C 
ATOM      3  O   UNL     1       1.227   2.893   2.494  0.00  0.00    -0.274 OA
ATOM      4  C   UNL     1       1.619   1.260   4.204  0.00  0.00    +0.149 C 
ATOM      5  S   UNL     1       0.711  -0.323   4.403  0.00  0.00    -0.077 S 
ATOM      6  C   UNL     1      -0.398  -0.141   3.014  0.00  0.00    +0.164 C 
ATOM      7  N   UNL     1      -1.332  -0.970   2.609  0.00  0.00    -0.226 NA
ENDROOT
BRANCH   7   8
ATOM      8  C   UNL     1      -1.546  -2.143   3.283  0.00  0.00    +0.067 A 
ATOM      9  C   UNL     1      -0.465  -2.939   3.667  0.00  0.00    +0.030 A 
ATOM     10  C   UNL     1      -0.688  -4.116   4.350  0.00  0.00    +0.030 A 
ATOM     11  C   UNL     1      -1.980  -4.515   4.645  0.00  0.00    +0.105 A 
ATOM     12  C   UNL     1      -3.056  -3.734   4.262  0.00  0.00    +0.030 A 
ATOM     13  C   UNL     1      -2.847  -2.551   3.584  0.00  0.00    +0.030 A 
BRANCH  11  14
ATOM     14  S   UNL     1      -2.256  -6.024   5.512  0.00  0.00    +0.056 S 
ATOM     15  O   UNL     1      -1.065  -6.300   6.237  0.00  0.00    -0.153 OA
ATOM     16  O   UNL     1      -3.522  -5.903   6.145  0.00  0.00    -0.153 OA
BRANCH  14  17
ATOM     17  N   UNL     1      -2.407  -7.220   4.377  0.00  0.00    -0.204 NA
ATOM     18  H   UNL     1      -2.581  -8.183   4.879  0.00  0.00    +0.144 HD
ATOM     19  H   UNL     1      -1.484  -7.279   3.781  0.00  0.00    +0.144 HD
ENDBRANCH  14  17
ENDBRANCH  11  14
ENDBRANCH   7   8
BRANCH   1  21
ATOM     20  C   UNL     1      -0.048   1.062   0.022  0.00  0.00    +0.025 C 
ATOM     21  C   UNL     1      -0.760   1.553   1.284  0.00  0.00    +0.112 C 
ENDBRANCH   1  21
BRANCH   4  22
ATOM     22  C   UNL     1       1.422   2.169   5.419  0.00  0.00    +0.120 C 
BRANCH  22  23
ATOM     23  C   UNL     1       2.228   1.641   6.577  0.00  0.00    +0.219 C 
ATOM     24  O   UNL     1       2.896   0.637   6.444  0.00  0.00    -0.275 OA
ATOM     25  N   UNL     1       2.209   2.284   7.761  0.00  0.00    -0.285 N 
ATOM     26  H   UNL     1       1.678   3.243   7.857  0.00  0.00    +0.155 HD
BRANCH  25  27
ATOM     27  C   UNL     1       2.864   1.733   8.868  0.00  0.00    +0.038 A 
ATOM     28  C   UNL     1       3.080   0.363   8.937  0.00  0.00    +0.043 A 
ATOM     29  C   UNL     1       3.727  -0.178  10.032  0.00  0.00    +0.043 A 
ATOM     30  C   UNL     1       4.160   0.644  11.058  0.00  0.00    +0.020 A 
ATOM     31  C   UNL     1       3.945   2.008  10.991  0.00  0.00    +0.006 A 
ATOM     32  C   UNL     1       3.303   2.555   9.897  0.00  0.00    -0.029 A 
ATOM     33  C   UNL     1       3.075   4.043   9.823  0.00  0.00    +0.045 C 
ATOM     34 CL   UNL     1       3.999  -1.891  10.120  0.00  0.00    -0.083 Cl
ENDBRANCH  25  27
ENDBRANCH  22  23
ENDBRANCH   4  22
TORSDOF 7
