REMARK  Name = ZINC36631112
REMARK  3 active torsions:
REMARK  status: ('A' for Active; 'I' for Inactive)
REMARK    1  A    between atoms: C_1  and  C_2
REMARK    2  A    between atoms: C_3  and  C_12
REMARK    3  A    between atoms: C_18  and  C_20
REMARK                            x       y       z     vdW  Elec       q    Type
REMARK                         _______ _______ _______ _____ _____    ______ ____
ROOT
ATOM      1  C   UNL     1       0.113  -0.149  -2.461  0.00  0.00    +0.082 A 
ATOM      2  C   UNL     1       0.304   1.185  -2.692  0.00  0.00    +0.077 A 
ATOM      3  S   UNL     1       0.336   1.213  -4.476  0.00  0.00    -0.060 S 
ATOM      4  C   UNL     1       0.110  -0.433  -4.743  0.00  0.00    +0.165 A 
ATOM      5  N   UNL     1       0.026  -0.930  -3.530  0.00  0.00    -0.225 NA
ATOM      6  N   UNL     1       0.034  -1.105  -5.956  0.00  0.00    -0.261 N 
ATOM      7  C   UNL     1       0.149  -0.423  -7.113  0.00  0.00    +0.255 C 
ATOM      8  O   UNL     1       0.405   0.766  -7.095  0.00  0.00    -0.270 OA
ATOM      9  H   UNL     1      -0.101  -2.065  -5.970  0.00  0.00    +0.157 HD
ENDROOT
BRANCH   1  12
ATOM     10  C   UNL     1       1.634  -2.632  -1.377  0.00  0.00    +0.064 C 
ATOM     11  C   UNL     1       0.671  -1.776  -0.596  0.00  0.00    +0.023 A 
ATOM     12  C   UNL     1       0.015  -0.696  -1.085  0.00  0.00    +0.029 A 
ATOM     13  C   UNL     1      -0.812  -0.170   0.012  0.00  0.00    +0.009 A 
ATOM     14  C   UNL     1      -1.694   0.904   0.130  0.00  0.00    +0.010 A 
ATOM     15  C   UNL     1      -2.326   1.135   1.319  0.00  0.00    +0.001 A 
ATOM     16  C   UNL     1      -2.097   0.309   2.411  0.00  0.00    +0.002 A 
ATOM     17  C   UNL     1      -1.231  -0.757   2.316  0.00  0.00    +0.026 A 
ATOM     18  C   UNL     1      -0.577  -1.010   1.114  0.00  0.00    +0.047 A 
ATOM     19  N   UNL     1       0.321  -1.975   0.711  0.00  0.00    -0.358 N 
ATOM     20  H   UNL     1       0.658  -2.690   1.274  0.00  0.00    +0.166 HD
ENDBRANCH   1  12
BRANCH   7  21
ATOM     21  C   UNL     1      -0.036  -1.116  -8.396  0.00  0.00    +0.101 A 
ATOM     22  C   UNL     1      -0.050  -0.401  -9.592  0.00  0.00    +0.020 A 
ATOM     23  C   UNL     1      -0.228  -1.093 -10.790  0.00  0.00    +0.018 A 
ATOM     24  C   UNL     1      -0.384  -2.442 -10.781  0.00  0.00    +0.086 A 
ATOM     25  N   UNL     1      -0.372  -3.143  -9.623  0.00  0.00    -0.328 N 
ATOM     26  C   UNL     1      -0.198  -2.525  -8.439  0.00  0.00    +0.261 A 
ATOM     27  O   UNL     1      -0.184  -3.174  -7.407  0.00  0.00    -0.267 OA
ATOM     28  H   UNL     1      -0.486  -4.106  -9.646  0.00  0.00    +0.168 HD
ENDBRANCH   7  21
TORSDOF 2
