REMARK  Name = ZINC04914782
REMARK  3 active torsions:
REMARK  status: ('A' for Active; 'I' for Inactive)
REMARK    1  A    between atoms: C_3  and  N_28
REMARK    2  A    between atoms: C_6  and  C_7
REMARK    3  A    between atoms: C_18  and  C_21
REMARK                            x       y       z     vdW  Elec       q    Type
REMARK                         _______ _______ _______ _____ _____    ______ ____
ROOT
ATOM      1  C   UNL     1      -2.805   2.362  -2.413  0.00  0.00    +0.063 C 
ATOM      2  C   UNL     1      -4.221   1.790  -2.495  0.00  0.00    +0.109 C 
ATOM      3  C   UNL     1      -4.904   1.969  -1.164  0.00  0.00    +0.218 C 
ATOM      4  O   UNL     1      -6.097   2.179  -1.119  0.00  0.00    -0.275 OA
ATOM      5  N   UNL     1      -4.193   1.895  -0.025  0.00  0.00    -0.289 N 
ATOM      6  C   UNL     1      -2.846   1.634  -0.045  0.00  0.00    +0.018 C 
ATOM      7  C   UNL     1      -2.126   1.842  -1.167  0.00  0.00    +0.020 C 
ATOM      8  C   UNL     1      -0.745   1.587  -1.208  0.00  0.00    +0.162 C 
ATOM      9  O   UNL     1      -0.133   1.773  -2.241  0.00  0.00    -0.292 OA
ATOM     10  C   UNL     1      -0.013   1.086   0.008  0.00  0.00    +0.088 C 
ATOM     11  C   UNL     1      -0.734   1.582   1.265  0.00  0.00    +0.032 C 
ATOM     12  C   UNL     1      -2.191   1.109   1.208  0.00  0.00    +0.059 C 
ATOM     13  H   UNL     1      -4.639   2.030   0.825  0.00  0.00    +0.155 HD
ENDROOT
BRANCH  11  14
ATOM     14  C   UNL     1      -0.063   1.017   2.490  0.00  0.00    -0.043 A 
ATOM     15  C   UNL     1       0.006  -0.352   2.671  0.00  0.00    +0.007 A 
ATOM     16  C   UNL     1       0.625  -0.871   3.792  0.00  0.00    +0.038 A 
ATOM     17  C   UNL     1       1.169  -0.020   4.739  0.00  0.00    +0.123 A 
ATOM     18  C   UNL     1       1.095   1.351   4.560  0.00  0.00    +0.038 A 
ATOM     19  C   UNL     1       0.479   1.868   3.436  0.00  0.00    +0.007 A 
ATOM     20  F   UNL     1       1.770  -0.527   5.837  0.00  0.00    -0.205 F 
ENDBRANCH  11  14
BRANCH   1  26
ATOM     21  C   UNL     1      -3.553   4.490  -1.327  0.00  0.00    +0.006 A 
ATOM     22  C   UNL     1      -3.613   5.870  -1.273  0.00  0.00    +0.033 A 
ATOM     23  C   UNL     1      -3.000   6.626  -2.254  0.00  0.00    +0.126 A 
ATOM     24  C   UNL     1      -2.325   6.003  -3.287  0.00  0.00    +0.033 A 
ATOM     25  C   UNL     1      -2.262   4.623  -3.338  0.00  0.00    +0.006 A 
ATOM     26  C   UNL     1      -2.874   3.866  -2.357  0.00  0.00    -0.039 A 
BRANCH  23  27
ATOM     27  N   UNL     1      -3.067   8.104  -2.199  0.00  0.00    +0.056 N 
ATOM     28  O   UNL     1      -2.528   8.771  -3.064  0.00  0.00    -0.126 OA
ATOM     29  O   UNL     1      -3.662   8.653  -1.289  0.00  0.00    -0.126 OA
ENDBRANCH  23  27
ENDBRANCH   1  26
TORSDOF 3
