REMARK  Name = ZINC12347630
REMARK  6 active torsions:
REMARK  status: ('A' for Active; 'I' for Inactive)
REMARK    1  A    between atoms: C_1  and  C_2
REMARK    2  A    between atoms: C_2  and  C_32
REMARK    3  A    between atoms: C_6  and  C_16
REMARK    4  A    between atoms: C_13  and  O_14
REMARK    5  A    between atoms: C_20  and  O_22
REMARK    6  A    between atoms: O_22  and  C_23
REMARK                            x       y       z     vdW  Elec       q    Type
REMARK                         _______ _______ _______ _____ _____    ______ ____
ROOT
ATOM      1  C   UNL     1       3.493   1.425   1.948  0.00  0.00    +0.011 C 
ATOM      2  C   UNL     1       3.764   1.569   0.449  0.00  0.00    -0.023 C 
ATOM      3  C   UNL     1       2.595   0.985  -0.346  0.00  0.00    +0.058 C 
ATOM      4  C   UNL     1       1.328   1.741  -0.018  0.00  0.00    +0.017 C 
ATOM      5  C   UNL     1       1.368   3.050   0.311  0.00  0.00    +0.024 C 
ATOM      6  C   UNL     1       0.121   3.845   0.634  0.00  0.00    +0.092 C 
ATOM      7  C   UNL     1      -1.096   3.072   0.212  0.00  0.00    +0.067 A 
ATOM      8  C   UNL     1      -1.044   1.744  -0.122  0.00  0.00    +0.126 A 
ATOM      9  N   UNL     1      -2.290   1.351  -0.442  0.00  0.00    -0.260 N 
ATOM     10  H   UNL     1      -2.565   0.430  -0.718  0.00  0.00    +0.190 HD
ATOM     11  N   UNL     1      -3.135   2.466  -0.317  0.00  0.00    -0.134 NA
ATOM     12  C   UNL     1      -2.415   3.494   0.074  0.00  0.00    +0.237 A 
ATOM     13  N   UNL     1       0.152   1.036  -0.082  0.00  0.00    -0.303 N 
ATOM     14  C   UNL     1       2.592   3.741   0.372  0.00  0.00    +0.162 C 
ATOM     15  O   UNL     1       2.593   4.922   0.661  0.00  0.00    -0.292 OA
ATOM     16  C   UNL     1       3.897   3.053   0.088  0.00  0.00    +0.086 C 
ATOM     17  C   UNL     1       5.055   0.832   0.085  0.00  0.00    +0.011 C 
ATOM     18  H   UNL     1       0.155   0.066  -0.102  0.00  0.00    +0.153 HD
ENDROOT
BRANCH   6  19
ATOM     19  C   UNL     1       0.061   4.102   2.118  0.00  0.00    -0.032 A 
ATOM     20  C   UNL     1       0.020   3.039   3.002  0.00  0.00    +0.005 A 
ATOM     21  C   UNL     1      -0.035   3.271   4.364  0.00  0.00    +0.004 A 
ATOM     22  C   UNL     1      -0.049   4.566   4.845  0.00  0.00    +0.046 A 
ATOM     23  C   UNL     1      -0.007   5.634   3.960  0.00  0.00    +0.129 A 
ATOM     24  C   UNL     1       0.054   5.398   2.594  0.00  0.00    +0.050 A 
BRANCH  23  25
ATOM     25  O   UNL     1      -0.020   6.909   4.431  0.00  0.00    -0.456 OA
BRANCH  25  26
ATOM     26  C   UNL     1      -1.115   7.672   4.175  0.00  0.00    +0.128 A 
ATOM     27  C   UNL     1      -1.125   9.014   4.529  0.00  0.00    +0.046 A 
ATOM     28  C   UNL     1      -2.237   9.789   4.262  0.00  0.00    +0.004 A 
ATOM     29  C   UNL     1      -3.344   9.226   3.654  0.00  0.00    +0.000 A 
ATOM     30  C   UNL     1      -3.338   7.888   3.305  0.00  0.00    +0.004 A 
ATOM     31  C   UNL     1      -2.227   7.110   3.565  0.00  0.00    +0.046 A 
ENDBRANCH  25  26
ENDBRANCH  23  25
ENDBRANCH   6  19
BRANCH  12  32
ATOM     32  O   UNL     1      -2.878   4.751   0.305  0.00  0.00    -0.491 OA
ATOM     33  H   UNL     1      -3.863   4.780   0.131  0.00  0.00    +0.294 HD
ENDBRANCH  12  32
TORSDOF 4
