REMARK  Name = ZINC63552502
REMARK  9 active torsions:
REMARK  status: ('A' for Active; 'I' for Inactive)
REMARK    1  A    between atoms: C_1  and  C_2
REMARK    2  A    between atoms: C_2  and  O_3
REMARK    3  A    between atoms: O_3  and  C_4
REMARK    4  A    between atoms: C_11  and  N_14
REMARK    5  A    between atoms: C_15  and  C_17
REMARK    6  A    between atoms: C_17  and  N_18
REMARK    7  A    between atoms: N_18  and  C_19
REMARK    8  A    between atoms: N_18  and  S_20
REMARK    9  A    between atoms: S_20  and  C_23
REMARK                            x       y       z     vdW  Elec       q    Type
REMARK                         _______ _______ _______ _____ _____    ______ ____
ROOT
ATOM      1  C   UNL     1      -5.331  -8.617  -2.567  0.00  0.00    +0.204 C 
ENDROOT
BRANCH   1   3
ATOM      2  N   UNL     1      -3.806  -7.213  -1.216  0.00  0.00    -0.287 N 
ATOM      3  C   UNL     1      -4.998  -7.834  -1.323  0.00  0.00    +0.231 C 
ATOM      4  O   UNL     1      -5.801  -7.763  -0.417  0.00  0.00    -0.274 OA
ATOM      5  H   UNL     1      -3.163  -7.270  -1.940  0.00  0.00    +0.151 HD
BRANCH   2  13
ATOM      6  C   UNL     1      -1.498  -1.849   0.006  0.00  0.00    +0.122 A 
ATOM      7  C   UNL     1      -0.395  -2.690  -0.003  0.00  0.00    +0.047 A 
ATOM      8  C   UNL     1      -0.546  -4.057  -0.009  0.00  0.00    +0.027 A 
ATOM      9  C   UNL     1      -1.821  -4.651  -0.006  0.00  0.00    +0.043 A 
ATOM     10  C   UNL     1      -2.913  -3.779   0.004  0.00  0.00    +0.035 A 
ATOM     11  C   UNL     1      -2.769  -2.410   0.016  0.00  0.00    +0.062 A 
ATOM     12  S   UNL     1      -4.348  -4.831   0.005  0.00  0.00    -0.082 S 
ATOM     13  C   UNL     1      -3.482  -6.452  -0.007  0.00  0.00    +0.224 C 
ATOM     14  N   UNL     1      -2.077  -6.024  -0.011  0.00  0.00    -0.316 N 
ATOM     15  H   UNL     1      -1.354  -6.671  -0.018  0.00  0.00    +0.149 HD
BRANCH   6  16
ATOM     16  O   UNL     1      -1.339  -0.499   0.012  0.00  0.00    -0.492 OA
BRANCH  16  18
ATOM     17  C   UNL     1      -0.019   1.526   0.010  0.00  0.00    +0.048 C 
ATOM     18  C   UNL     1       0.002  -0.004   0.002  0.00  0.00    +0.225 C 
ENDBRANCH  16  18
ENDBRANCH   6  16
ENDBRANCH   2  13
ENDBRANCH   1   3
BRANCH   1  19
ATOM     19  N   UNL     1      -6.673  -9.191  -2.437  0.00  0.00    -0.171 NA
ATOM     20  C   UNL     1      -7.848  -8.393  -2.794  0.00  0.00    +0.132 C 
BRANCH  19  21
ATOM     21  S   UNL     1      -6.860 -10.742  -1.888  0.00  0.00    +0.061 S 
ATOM     22  O   UNL     1      -8.111 -11.199  -2.382  0.00  0.00    -0.153 OA
ATOM     23  O   UNL     1      -5.640 -11.419  -2.159  0.00  0.00    -0.153 OA
BRANCH  21  24
ATOM     24  C   UNL     1      -7.011 -10.659  -0.135  0.00  0.00    +0.106 A 
ATOM     25  C   UNL     1      -5.873 -10.727   0.658  0.00  0.00    +0.030 A 
ATOM     26  C   UNL     1      -5.967 -10.664   2.031  0.00  0.00    +0.028 A 
ATOM     27  C   UNL     1      -7.215 -10.531   2.632  0.00  0.00    +0.049 A 
ATOM     28  C   UNL     1      -8.366 -10.461   1.825  0.00  0.00    +0.000 A 
ATOM     29  C   UNL     1      -8.246 -10.523   0.433  0.00  0.00    +0.038 A 
ATOM     30  C   UNL     1      -9.675 -10.321   2.467  0.00  0.00    +0.015 A 
ATOM     31  C   UNL     1      -9.730 -10.262   3.820  0.00  0.00    +0.071 A 
ATOM     32  C   UNL     1      -8.545 -10.336   4.584  0.00  0.00    +0.249 A 
ATOM     33  O   UNL     1      -8.617 -10.281   5.799  0.00  0.00    -0.268 OA
ATOM     34  N   UNL     1      -7.339 -10.465   4.003  0.00  0.00    -0.322 N 
ATOM     35  H   UNL     1      -6.544 -10.513   4.558  0.00  0.00    +0.169 HD
ENDBRANCH  21  24
ENDBRANCH  19  21
ENDBRANCH   1  19
TORSDOF 7
