REMARK  Name = ZINC39689660
REMARK  9 active torsions:
REMARK  status: ('A' for Active; 'I' for Inactive)
REMARK    1  A    between atoms: C_1  and  C_2
REMARK    2  A    between atoms: C_2  and  C_3
REMARK    3  A    between atoms: C_3  and  C_4
REMARK    4  A    between atoms: C_3  and  C_6
REMARK    5  A    between atoms: C_4  and  C_5
REMARK    6  A    between atoms: C_10  and  C_19
REMARK    7  A    between atoms: N_21  and  C_22
REMARK    8  A    between atoms: C_22  and  C_23
REMARK    9  A    between atoms: N_27  and  C_29
REMARK                            x       y       z     vdW  Elec       q    Type
REMARK                         _______ _______ _______ _____ _____    ______ ____
ROOT
ATOM      1  C   UNL     1       0.556  -1.958  -1.196  0.00  0.00    +0.219 C 
ATOM      2  O   UNL     1      -0.162  -2.510  -0.391  0.00  0.00    -0.275 OA
ATOM      3  N   UNL     1       1.177  -2.678  -2.152  0.00  0.00    -0.300 N 
ATOM      4  C   UNL     1       2.009  -2.176  -3.271  0.00  0.00    +0.121 C 
ATOM      5  C   UNL     1       3.169  -3.191  -3.379  0.00  0.00    +0.100 C 
ATOM      6  C   UNL     1       2.619  -4.485  -2.756  0.00  0.00    -0.004 C 
ATOM      7  C   UNL     1       1.185  -4.151  -2.317  0.00  0.00    +0.115 C 
ATOM      8  C   UNL     1       3.455  -4.886  -1.545  0.00  0.00    -0.010 C 
ATOM      9  C   UNL     1       2.923  -6.205  -0.977  0.00  0.00    -0.082 C 
ATOM     10  N   UNL     1       2.990  -7.246  -2.010  0.00  0.00    +0.379 N 
ATOM     11  C   UNL     1       2.111  -6.896  -3.132  0.00  0.00    -0.082 C 
ATOM     12  C   UNL     1       2.608  -5.606  -3.790  0.00  0.00    -0.010 C 
ATOM     13  H   UNL     1       3.939  -7.328  -2.341  0.00  0.00    -0.086 HD
ATOM     14  H   UNL     1       2.697  -8.127  -1.616  0.00  0.00    -0.086 HD
ENDROOT
BRANCH   5  15
ATOM     15  C   UNL     1       3.536  -3.416  -4.824  0.00  0.00    +0.218 C 
ATOM     16  O   UNL     1       2.711  -3.234  -5.694  0.00  0.00    -0.275 OA
ATOM     17  N   UNL     1       4.780  -3.819  -5.148  0.00  0.00    -0.315 N 
ATOM     18  H   UNL     1       5.440  -3.965  -4.452  0.00  0.00    +0.149 HD
BRANCH  17  19
ATOM     19  C   UNL     1       5.137  -4.038  -6.552  0.00  0.00    +0.105 C 
BRANCH  19  20
ATOM     20  C   UNL     1       6.596  -4.488  -6.643  0.00  0.00    -0.012 C 
ATOM     21  C   UNL     1       6.769  -5.907  -6.056  0.00  0.00    -0.016 C 
ATOM     22  C   UNL     1       7.763  -6.614  -6.996  0.00  0.00    -0.079 C 
ATOM     23  N   UNL     1       8.149  -5.634  -8.034  0.00  0.00    +0.378 N 
ATOM     24  C   UNL     1       7.023  -4.667  -8.122  0.00  0.00    -0.074 C 
ATOM     25  C   UNL     1       8.339  -6.311  -9.324  0.00  0.00    -0.096 C 
ATOM     26  H   UNL     1       8.995  -5.156  -7.763  0.00  0.00    -0.082 HD
ENDBRANCH  19  20
ENDBRANCH  17  19
ENDBRANCH   5  15
BRANCH   1  27
ATOM     27  C   UNL     1       0.755  -0.465  -1.129  0.00  0.00    +0.075 C 
BRANCH  27  29
ATOM     28  C   UNL     1      -0.110   1.741  -1.921  0.00  0.00    +0.004 C 
ATOM     29  C   UNL     1      -0.378   0.235  -1.883  0.00  0.00    +0.009 C 
ENDBRANCH  27  29
BRANCH  27  30
ATOM     30  C   UNL     1       0.750  -0.015   0.333  0.00  0.00    +0.009 C 
ATOM     31  C   UNL     1       1.963  -0.606   1.053  0.00  0.00    +0.004 C 
ENDBRANCH  27  30
ENDBRANCH   1  27
TORSDOF 6
