REMARK  Name = ZINC52397371
REMARK  5 active torsions:
REMARK  status: ('A' for Active; 'I' for Inactive)
REMARK    1  A    between atoms: C_1  and  N_2
REMARK    2  A    between atoms: C_3  and  C_20
REMARK    3  A    between atoms: C_6  and  S_7
REMARK    4  A    between atoms: S_7  and  C_8
REMARK    5  A    between atoms: C_8  and  C_9
REMARK                            x       y       z     vdW  Elec       q    Type
REMARK                         _______ _______ _______ _____ _____    ______ ____
ROOT
ATOM      1  S   UNL     1       0.362  -0.344   2.757  0.00  0.00    -0.077 S 
ENDROOT
BRANCH   1   7
ATOM      2  C   UNL     1       0.119   1.459  -0.004  0.00  0.00    +0.153 C 
ATOM      3  N   UNL     1       0.062  -0.005  -0.004  0.00  0.00    -0.305 N 
ATOM      4  C   UNL     1      -0.087  -0.831  -1.094  0.00  0.00    +0.167 A 
ATOM      5  N   UNL     1      -0.086  -2.064  -0.646  0.00  0.00    -0.128 NA
ATOM      6  N   UNL     1       0.051  -2.067   0.632  0.00  0.00    -0.122 NA
ATOM      7  C   UNL     1       0.153  -0.835   1.077  0.00  0.00    +0.192 A 
BRANCH   4   8
ATOM      8  C   UNL     1      -0.223  -0.408  -2.504  0.00  0.00    +0.054 A 
ATOM      9  C   UNL     1       0.647   0.544  -3.038  0.00  0.00    +0.014 A 
ATOM     10  C   UNL     1       0.516   0.933  -4.354  0.00  0.00    +0.001 A 
ATOM     11  C   UNL     1      -0.476   0.383  -5.147  0.00  0.00    +0.003 A 
ATOM     12  C   UNL     1      -1.342  -0.561  -4.627  0.00  0.00    +0.039 A 
ATOM     13  C   UNL     1      -1.219  -0.965  -3.311  0.00  0.00    +0.134 A 
ATOM     14  F   UNL     1      -2.062  -1.892  -2.805  0.00  0.00    -0.205 F 
ENDBRANCH   4   8
ENDBRANCH   1   7
BRANCH   1  15
ATOM     15  C   UNL     1       0.405  -1.911   3.669  0.00  0.00    +0.173 C 
BRANCH  15  16
ATOM     16  C   UNL     1       0.583  -1.631   5.139  0.00  0.00    +0.229 C 
ATOM     17  O   UNL     1       0.672  -0.488   5.533  0.00  0.00    -0.275 OA
ATOM     18  N   UNL     1       0.643  -2.652   6.017  0.00  0.00    -0.264 N 
ATOM     19  C   UNL     1       0.807  -2.394   7.373  0.00  0.00    +0.165 A 
ATOM     20  N   UNL     1       0.914  -1.235   7.975  0.00  0.00    -0.229 NA
ATOM     21  C   UNL     1       1.069  -1.135   9.303  0.00  0.00    +0.054 A 
ATOM     22  C   UNL     1       1.106  -2.318   9.960  0.00  0.00    +0.014 A 
ATOM     23  S   UNL     1       0.908  -3.494   8.643  0.00  0.00    -0.057 S 
ATOM     24  C   UNL     1       1.286  -2.138  11.437  0.00  0.00    +0.045 C 
ATOM     25  C   UNL     1       1.785  -0.684  11.595  0.00  0.00    +0.011 C 
ATOM     26  C   UNL     1       1.218  -0.014  10.328  0.00  0.00    +0.056 C 
ATOM     27  H   UNL     1       0.571  -3.567   5.703  0.00  0.00    +0.157 HD
ENDBRANCH  15  16
ENDBRANCH   1  15
TORSDOF 4
