REMARK  Name = ZINC06135348
REMARK  10 active torsions:
REMARK  status: ('A' for Active; 'I' for Inactive)
REMARK    1  A    between atoms: C_1  and  C_2
REMARK    2  A    between atoms: C_2  and  C_3
REMARK    3  A    between atoms: C_10  and  C_15
REMARK    4  A    between atoms: C_15  and  C_17
REMARK    5  A    between atoms: C_15  and  N_74
REMARK    6  A    between atoms: N_21  and  C_22
REMARK    7  A    between atoms: C_22  and  C_23
REMARK    8  A    between atoms: N_31  and  C_34
REMARK    9  A    between atoms: C_39  and  O_40
REMARK   10  A    between atoms: O_40  and  C_41
REMARK                            x       y       z     vdW  Elec       q    Type
REMARK                         _______ _______ _______ _____ _____    ______ ____
ROOT
ATOM      1  C   UNL     1       3.064   4.821   1.887  0.00  0.00    +0.039 C 
ENDROOT
BRANCH   1   9
ATOM      2  C   UNL     1       7.668   7.573  -1.198  0.00  0.00    -0.047 A 
ATOM      3  C   UNL     1       7.549   8.812  -0.583  0.00  0.00    +0.005 A 
ATOM      4  C   UNL     1       6.590   9.028   0.382  0.00  0.00    +0.026 A 
ATOM      5  C   UNL     1       5.731   7.996   0.746  0.00  0.00    +0.049 A 
ATOM      6  C   UNL     1       5.855   6.741   0.120  0.00  0.00    -0.001 A 
ATOM      7  C   UNL     1       6.836   6.545  -0.858  0.00  0.00    +0.013 A 
ATOM      8  C   UNL     1       4.947   5.661   0.509  0.00  0.00    +0.017 A 
ATOM      9  C   UNL     1       4.015   5.910   1.463  0.00  0.00    +0.011 A 
ATOM     10  C   UNL     1       3.929   7.188   2.056  0.00  0.00    +0.251 A 
ATOM     11  O   UNL     1       3.081   7.392   2.907  0.00  0.00    -0.268 OA
ATOM     12  N   UNL     1       4.763   8.184   1.709  0.00  0.00    -0.322 N 
ATOM     13  H   UNL     1       4.678   9.075   2.155  0.00  0.00    +0.169 HD
BRANCH   2  15
ATOM     14  C   UNL     1       8.149   7.706  -3.627  0.00  0.00    +0.009 C 
ATOM     15  C   UNL     1       8.724   7.361  -2.252  0.00  0.00    +0.032 C 
ENDBRANCH   2  15
ENDBRANCH   1   9
BRANCH   1  21
ATOM     16  C   UNL     1       4.526   4.348   3.759  0.00  0.00    -0.058 C 
ATOM     17  C   UNL     1       4.584   4.243   5.284  0.00  0.00    +0.086 C 
ATOM     18  N   UNL     1       3.668   3.185   5.735  0.00  0.00    -0.331 N 
ATOM     19  C   UNL     1       2.289   3.474   5.318  0.00  0.00    +0.086 C 
ATOM     20  C   UNL     1       2.231   3.579   3.792  0.00  0.00    -0.058 C 
ATOM     21  N   UNL     1       3.139   4.661   3.354  0.00  0.00    +0.391 N 
ATOM     22  H   UNL     1       2.852   5.539   3.801  0.00  0.00    -0.080 HD
BRANCH  18  23
ATOM     23  C   UNL     1       3.747   3.011   7.121  0.00  0.00    +0.072 A 
ATOM     24  C   UNL     1       4.448   3.921   7.898  0.00  0.00    +0.027 A 
ATOM     25  C   UNL     1       4.524   3.746   9.267  0.00  0.00    +0.002 A 
ATOM     26  C   UNL     1       3.903   2.665   9.865  0.00  0.00    +0.004 A 
ATOM     27  C   UNL     1       3.202   1.754   9.097  0.00  0.00    +0.047 A 
ATOM     28  C   UNL     1       3.116   1.925   7.725  0.00  0.00    +0.141 A 
BRANCH  28  29
ATOM     29  O   UNL     1       2.422   1.033   6.969  0.00  0.00    -0.493 OA
ATOM     30  C   UNL     1       1.801  -0.055   7.657  0.00  0.00    +0.277 C 
ENDBRANCH  28  29
ENDBRANCH  18  23
ENDBRANCH   1  21
BRANCH   1  31
ATOM     31  C   UNL     1       1.657   5.206   1.508  0.00  0.00    +0.143 A 
ATOM     32  N   UNL     1       0.901   6.092   2.107  0.00  0.00    -0.115 NA
ATOM     33  N   UNL     1      -0.229   6.135   1.489  0.00  0.00    -0.023 NA
ATOM     34  N   UNL     1      -0.210   5.303   0.507  0.00  0.00    -0.044 NA
ATOM     35  N   UNL     1       0.934   4.706   0.489  0.00  0.00    -0.228 N 
BRANCH  35  36
ATOM     36  C   UNL     1       1.367   3.682  -0.465  0.00  0.00    +0.178 C 
BRANCH  36  37
ATOM     37  C   UNL     1       1.002   2.297   0.073  0.00  0.00    +0.140 C 
ATOM     38  C   UNL     1       1.460   1.191  -0.912  0.00  0.00    +0.035 C 
ATOM     39  C   UNL     1       0.498   0.029  -0.564  0.00  0.00    +0.031 C 
ATOM     40  C   UNL     1      -0.691   0.718   0.132  0.00  0.00    +0.160 C 
ATOM     41  O   UNL     1      -0.432   2.132   0.121  0.00  0.00    -0.375 OA
ENDBRANCH  36  37
ENDBRANCH  35  36
ENDBRANCH   1  31
TORSDOF 8
