REMARK  Name = ZINC50194419
REMARK  2 active torsions:
REMARK  status: ('A' for Active; 'I' for Inactive)
REMARK    1  A    between atoms: C_1  and  C_2
REMARK    2  A    between atoms: C_8  and  C_11
REMARK                            x       y       z     vdW  Elec       q    Type
REMARK                         _______ _______ _______ _____ _____    ______ ____
ROOT
ATOM      1  C   UNL     1      -0.018   1.503   0.010  0.00  0.00    +0.067 C 
ATOM      2  C   UNL     1       0.002  -0.004   0.002  0.00  0.00    +0.059 A 
ATOM      3  C   UNL     1      -1.208  -0.711   0.004  0.00  0.00    +0.028 A 
ATOM      4  C   UNL     1      -1.206  -2.073  -0.003  0.00  0.00    +0.052 A 
ATOM      5  C   UNL     1       0.024  -2.754  -0.013  0.00  0.00    +0.178 A 
ATOM      6  N   UNL     1       0.363  -4.034  -0.021  0.00  0.00    -0.128 NA
ATOM      7  N   UNL     1       1.646  -4.141  -0.028  0.00  0.00    -0.127 NA
ATOM      8  C   UNL     1       2.202  -2.944  -0.025  0.00  0.00    +0.185 A 
ATOM      9  N   UNL     1       1.192  -2.027  -0.015  0.00  0.00    -0.192 N 
ATOM     10  N   UNL     1       1.148  -0.632  -0.012  0.00  0.00    -0.168 NA
ENDROOT
BRANCH   8  11
ATOM     11  C   UNL     1       3.651  -2.651  -0.030  0.00  0.00    +0.021 A 
ATOM     12  C   UNL     1       4.111  -1.373   0.292  0.00  0.00    +0.013 A 
ATOM     13  C   UNL     1       5.460  -1.104   0.286  0.00  0.00    +0.024 A 
ATOM     14  C   UNL     1       6.381  -2.104  -0.043  0.00  0.00    +0.030 A 
ATOM     15  C   UNL     1       5.919  -3.373  -0.363  0.00  0.00    -0.024 A 
ATOM     16  C   UNL     1       4.569  -3.652  -0.353  0.00  0.00    +0.017 A 
ATOM     17  C   UNL     1       7.109  -4.253  -0.675  0.00  0.00    +0.055 C 
ATOM     18  C   UNL     1       8.327  -3.332  -0.495  0.00  0.00    +0.106 C 
ATOM     19  N   UNL     1       7.773  -2.033  -0.106  0.00  0.00    -0.343 N 
ATOM     20  H   UNL     1       8.298  -1.238   0.079  0.00  0.00    +0.146 HD
ENDBRANCH   8  11
TORSDOF 1
