REMARK  Name = ZINC08768156
REMARK  5 active torsions:
REMARK  status: ('A' for Active; 'I' for Inactive)
REMARK    1  A    between atoms: C_1  and  O_2
REMARK    2  A    between atoms: O_2  and  C_3
REMARK    3  A    between atoms: C_8  and  N_9
REMARK    4  A    between atoms: N_26  and  C_38
REMARK    5  A    between atoms: N_29  and  C_32
REMARK                            x       y       z     vdW  Elec       q    Type
REMARK                         _______ _______ _______ _____ _____    ______ ____
ROOT
ATOM      1  N   UNL     1      -1.720   3.904  -2.926  0.00  0.00    -0.324 N 
ATOM      2  C   UNL     1      -2.409   4.787  -1.976  0.00  0.00    +0.124 C 
ATOM      3  C   UNL     1      -2.660   4.034  -0.667  0.00  0.00    +0.124 C 
ATOM      4  N   UNL     1      -1.377   3.567  -0.126  0.00  0.00    -0.322 N 
ATOM      5  C   UNL     1      -1.520   3.012   1.143  0.00  0.00    +0.033 A 
ATOM      6  C   UNL     1      -2.494   3.553   1.984  0.00  0.00    +0.023 A 
ATOM      7  C   UNL     1      -2.667   3.058   3.259  0.00  0.00    +0.002 A 
ATOM      8  C   UNL     1      -1.874   2.018   3.710  0.00  0.00    +0.000 A 
ATOM      9  C   UNL     1      -0.913   1.476   2.880  0.00  0.00    +0.005 A 
ATOM     10  C   UNL     1      -0.734   1.967   1.596  0.00  0.00    -0.025 A 
ATOM     11  C   UNL     1       0.325   1.329   0.733  0.00  0.00    +0.064 C 
ATOM     12  C   UNL     1       0.636   2.236  -0.462  0.00  0.00    +0.148 C 
ATOM     13  C   UNL     1      -0.696   2.683  -1.073  0.00  0.00    +0.115 C 
ATOM     14  C   UNL     1      -0.438   3.431  -2.382  0.00  0.00    +0.129 C 
ATOM     15  C   UNL     1       1.405   3.439   0.006  0.00  0.00    +0.245 C 
ATOM     16  O   UNL     1       0.905   4.172   0.832  0.00  0.00    -0.274 OA
ATOM     17  N   UNL     1       2.627   3.725  -0.465  0.00  0.00    -0.193 N 
ATOM     18  C   UNL     1       3.232   2.956  -1.383  0.00  0.00    +0.326 C 
ATOM     19  O   UNL     1       4.340   3.262  -1.774  0.00  0.00    -0.251 OA
ATOM     20  N   UNL     1       2.643   1.857  -1.879  0.00  0.00    -0.193 N 
ATOM     21  C   UNL     1       1.423   1.467  -1.484  0.00  0.00    +0.245 C 
ATOM     22  O   UNL     1       0.941   0.464  -1.967  0.00  0.00    -0.274 OA
ENDROOT
BRANCH   1  28
ATOM     23  C   UNL     1      -2.157   4.040  -5.303  0.00  0.00    +0.141 A 
ATOM     24  C   UNL     1      -1.976   4.677  -6.519  0.00  0.00    +0.047 A 
ATOM     25  C   UNL     1      -1.173   5.800  -6.600  0.00  0.00    +0.004 A 
ATOM     26  C   UNL     1      -0.553   6.293  -5.467  0.00  0.00    +0.002 A 
ATOM     27  C   UNL     1      -0.732   5.667  -4.248  0.00  0.00    +0.027 A 
ATOM     28  C   UNL     1      -1.537   4.540  -4.160  0.00  0.00    +0.072 A 
BRANCH  23  30
ATOM     29  C   UNL     1      -3.546   2.476  -6.435  0.00  0.00    +0.277 C 
ATOM     30  O   UNL     1      -2.942   2.932  -5.223  0.00  0.00    -0.493 OA
ENDBRANCH  23  30
ENDBRANCH   1  28
BRANCH  20  31
ATOM     31  C   UNL     1       3.325   1.095  -2.839  0.00  0.00    +0.045 A 
ATOM     32  C   UNL     1       4.157   0.058  -2.441  0.00  0.00    +0.024 A 
ATOM     33  C   UNL     1       4.822  -0.695  -3.389  0.00  0.00    +0.002 A 
ATOM     34  C   UNL     1       4.669  -0.408  -4.733  0.00  0.00    +0.000 A 
ATOM     35  C   UNL     1       3.845   0.628  -5.133  0.00  0.00    +0.002 A 
ATOM     36  C   UNL     1       3.172   1.380  -4.189  0.00  0.00    +0.024 A 
ENDBRANCH  20  31
BRANCH  17  37
ATOM     37  C   UNL     1       3.292   4.862   0.015  0.00  0.00    +0.045 A 
ATOM     38  C   UNL     1       4.111   4.769   1.132  0.00  0.00    +0.024 A 
ATOM     39  C   UNL     1       4.769   5.889   1.600  0.00  0.00    +0.002 A 
ATOM     40  C   UNL     1       4.604   7.106   0.963  0.00  0.00    +0.000 A 
ATOM     41  C   UNL     1       3.785   7.203  -0.147  0.00  0.00    +0.002 A 
ATOM     42  C   UNL     1       3.128   6.084  -0.623  0.00  0.00    +0.024 A 
ENDBRANCH  17  37
TORSDOF 4
