REMARK  Name = ZINC63253453
REMARK  11 active torsions:
REMARK  status: ('A' for Active; 'I' for Inactive)
REMARK    1  A    between atoms: C_1  and  C_2
REMARK    2  A    between atoms: C_2  and  C_3
REMARK    3  A    between atoms: C_7  and  C_35
REMARK    4  A    between atoms: C_8  and  N_9
REMARK    5  A    between atoms: C_10  and  C_12
REMARK    6  A    between atoms: C_12  and  S_13
REMARK    7  A    between atoms: S_13  and  C_14
REMARK    8  A    between atoms: C_17  and  C_26
REMARK    9  A    between atoms: N_18  and  C_19
REMARK   10  A    between atoms: C_23  and  C_25
REMARK   11  A    between atoms: C_35  and  C_36
REMARK                            x       y       z     vdW  Elec       q    Type
REMARK                         _______ _______ _______ _____ _____    ______ ____
ROOT
ATOM      1  C   UNL     1       5.086   6.257  -3.058  0.00  0.00    +0.197 A 
ATOM      2  N   UNL     1       4.197   6.896  -3.803  0.00  0.00    -0.122 NA
ATOM      3  N   UNL     1       4.614   8.081  -4.074  0.00  0.00    -0.128 NA
ATOM      4  C   UNL     1       5.801   8.277  -3.517  0.00  0.00    +0.168 A 
ATOM      5  N   UNL     1       6.129   7.110  -2.846  0.00  0.00    -0.270 N 
ENDROOT
BRANCH   4   6
ATOM      6  C   UNL     1       6.574   9.445  -3.588  0.00  0.00    +0.025 C 
ATOM      7  C   UNL     1       6.253  10.631  -4.249  0.00  0.00    +0.006 A 
ATOM      8  C   UNL     1       5.130  11.024  -5.008  0.00  0.00    +0.010 A 
ATOM      9  C   UNL     1       5.084  12.270  -5.547  0.00  0.00    +0.001 A 
ATOM     10  C   UNL     1       6.127  13.182  -5.370  0.00  0.00    +0.002 A 
ATOM     11  C   UNL     1       7.235  12.871  -4.654  0.00  0.00    +0.026 A 
ATOM     12  C   UNL     1       7.354  11.588  -4.059  0.00  0.00    +0.043 A 
ATOM     13  N   UNL     1       8.312  11.051  -3.329  0.00  0.00    -0.380 N 
ATOM     14  C   UNL     1       7.929   9.685  -2.959  0.00  0.00    +0.152 C 
ATOM     15  H   UNL     1       9.137  11.492  -3.073  0.00  0.00    +0.160 HD
ENDBRANCH   4   6
BRANCH   5  16
ATOM     16  C   UNL     1       7.292   6.857  -2.106  0.00  0.00    +0.051 A 
ATOM     17  C   UNL     1       7.544   7.571  -0.941  0.00  0.00    +0.026 A 
ATOM     18  C   UNL     1       8.691   7.320  -0.214  0.00  0.00    +0.002 A 
ATOM     19  C   UNL     1       9.587   6.359  -0.644  0.00  0.00    +0.003 A 
ATOM     20  C   UNL     1       9.339   5.646  -1.803  0.00  0.00    -0.048 A 
ATOM     21  C   UNL     1       8.191   5.889  -2.532  0.00  0.00    +0.029 A 
ATOM     22  C   UNL     1      10.318   4.600  -2.268  0.00  0.00    +0.044 C 
ENDBRANCH   5  16
BRANCH   1  23
ATOM     23  S   UNL     1       4.945   4.611  -2.446  0.00  0.00    -0.076 S 
BRANCH  23  24
ATOM     24  C   UNL     1       3.344   4.043  -3.082  0.00  0.00    +0.173 C 
BRANCH  24  26
ATOM     25  N   UNL     1       1.960   1.995  -2.981  0.00  0.00    -0.284 N 
ATOM     26  C   UNL     1       3.095   2.628  -2.626  0.00  0.00    +0.228 C 
ATOM     27  O   UNL     1       3.918   2.059  -1.939  0.00  0.00    -0.275 OA
ATOM     28  H   UNL     1       1.342   2.417  -3.598  0.00  0.00    +0.155 HD
BRANCH  25  34
ATOM     29  C   UNL     1       0.710   0.587  -1.468  0.00  0.00    -0.026 A 
ATOM     30  C   UNL     1       0.424  -0.665  -0.960  0.00  0.00    +0.005 A 
ATOM     31  C   UNL     1       1.099  -1.776  -1.432  0.00  0.00    +0.001 A 
ATOM     32  C   UNL     1       2.062  -1.637  -2.414  0.00  0.00    +0.005 A 
ATOM     33  C   UNL     1       2.353  -0.388  -2.927  0.00  0.00    -0.026 A 
ATOM     34  C   UNL     1       1.672   0.729  -2.459  0.00  0.00    +0.040 A 
BRANCH  29  36
ATOM     35  C   UNL     1      -1.220   2.094  -1.864  0.00  0.00    +0.009 C 
ATOM     36  C   UNL     1      -0.027   1.796  -0.953  0.00  0.00    +0.033 C 
ENDBRANCH  29  36
BRANCH  33  37
ATOM     37  C   UNL     1       3.403  -0.237  -3.997  0.00  0.00    +0.033 C 
ATOM     38  C   UNL     1       4.065  -1.592  -4.256  0.00  0.00    +0.009 C 
ENDBRANCH  33  37
ENDBRANCH  25  34
ENDBRANCH  24  26
ENDBRANCH  23  24
ENDBRANCH   1  23
TORSDOF 8
