REMARK  Name = ZINC38926035
REMARK  10 active torsions:
REMARK  status: ('A' for Active; 'I' for Inactive)
REMARK    1  A    between atoms: C_1  and  C_2
REMARK    2  A    between atoms: C_2  and  C_3
REMARK    3  A    between atoms: C_2  and  C_4
REMARK    4  A    between atoms: C_2  and  C_5
REMARK    5  A    between atoms: C_8  and  C_11
REMARK    6  A    between atoms: N_17  and  N_18
REMARK    7  A    between atoms: C_19  and  C_20
REMARK    8  A    between atoms: C_22  and  O_28
REMARK    9  A    between atoms: C_23  and  O_27
REMARK   10  A    between atoms: O_28  and  C_29
REMARK                            x       y       z     vdW  Elec       q    Type
REMARK                         _______ _______ _______ _____ _____    ______ ____
ROOT
ATOM      1  C   UNL     1       2.769  -1.839  -4.968  0.00  0.00    +0.264 C 
ATOM      2  N   UNL     1       2.255  -3.188  -5.247  0.00  0.00    -0.189 NA
ATOM      3  N   UNL     1       3.146  -4.000  -4.982  0.00  0.00    -0.219 N 
ATOM      4  C   UNL     1       4.288  -3.419  -4.529  0.00  0.00    +0.174 C 
ATOM      5  S   UNL     1       5.706  -4.266  -4.076  0.00  0.00    -0.015 S 
ATOM      6  N   UNL     1       4.144  -2.073  -4.489  0.00  0.00    -0.172 N 
ATOM      7  H   UNL     1       3.041  -4.959  -5.087  0.00  0.00    +0.176 HD
ENDROOT
BRANCH   1  11
ATOM      8  C   UNL     1       0.430   0.057  -1.937  0.00  0.00    -0.042 A 
ATOM      9  C   UNL     1      -0.168  -0.814  -2.828  0.00  0.00    +0.004 A 
ATOM     10  C   UNL     1       0.589  -1.428  -3.809  0.00  0.00    +0.008 A 
ATOM     11  C   UNL     1       1.944  -1.169  -3.899  0.00  0.00    -0.002 A 
ATOM     12  C   UNL     1       2.542  -0.297  -3.009  0.00  0.00    +0.008 A 
ATOM     13  C   UNL     1       1.784   0.319  -2.030  0.00  0.00    +0.004 A 
BRANCH   8  15
ATOM     14  C   UNL     1      -0.324   2.243  -1.043  0.00  0.00    +0.015 C 
ATOM     15  C   UNL     1      -0.395   0.725  -0.868  0.00  0.00    -0.013 C 
ATOM     16  C   UNL     1       0.151   0.345   0.510  0.00  0.00    +0.015 C 
ATOM     17  C   UNL     1      -1.850   0.266  -0.985  0.00  0.00    +0.015 C 
ENDBRANCH   8  15
ENDBRANCH   1  11
BRANCH   6  18
ATOM     18  N   UNL     1       5.086  -1.118  -4.085  0.00  0.00    -0.183 NA
ATOM     19  C   UNL     1       6.298  -1.483  -3.795  0.00  0.00    +0.138 C 
BRANCH  19  20
ATOM     20  C   UNL     1       7.259  -0.497  -3.270  0.00  0.00    -0.001 A 
ATOM     21  C   UNL     1       8.566  -0.887  -2.963  0.00  0.00    +0.059 A 
ATOM     22  C   UNL     1       9.464   0.042  -2.471  0.00  0.00    +0.163 A 
ATOM     23  C   UNL     1       9.066   1.364  -2.282  0.00  0.00    +0.173 A 
ATOM     24  C   UNL     1       7.769   1.752  -2.586  0.00  0.00    +0.063 A 
ATOM     25  C   UNL     1       6.868   0.832  -3.083  0.00  0.00    +0.028 A 
ATOM     26 BR   UNL     1       7.235   3.547  -2.326  0.00  0.00    -0.046 Br
BRANCH  23  27
ATOM     27  O   UNL     1       9.950   2.276  -1.798  0.00  0.00    -0.503 OA
ATOM     28  H   UNL     1      10.458   2.733  -2.482  0.00  0.00    +0.292 HD
ENDBRANCH  23  27
BRANCH  22  29
ATOM     29  O   UNL     1      10.736  -0.335  -2.171  0.00  0.00    -0.491 OA
ATOM     30  C   UNL     1      11.075  -1.706  -2.389  0.00  0.00    +0.277 C 
ENDBRANCH  22  29
ENDBRANCH  19  20
ENDBRANCH   6  18
TORSDOF 6
