REMARK  Name = ZINC46587081
REMARK  9 active torsions:
REMARK  status: ('A' for Active; 'I' for Inactive)
REMARK    1  A    between atoms: C_1  and  C_2
REMARK    2  A    between atoms: C_2  and  C_4
REMARK    3  A    between atoms: C_2  and  S_20
REMARK    4  A    between atoms: C_10  and  C_15
REMARK    5  A    between atoms: S_20  and  C_21
REMARK    6  A    between atoms: C_21  and  C_22
REMARK    7  A    between atoms: C_22  and  N_23
REMARK    8  A    between atoms: C_26  and  C_30
REMARK    9  A    between atoms: C_26  and  C_31
REMARK                            x       y       z     vdW  Elec       q    Type
REMARK                         _______ _______ _______ _____ _____    ______ ____
ROOT
ATOM      1  C   UNL     1       0.707  -0.490  -1.238  0.00  0.00    +0.124 A 
ATOM      2  N   UNL     1      -0.021  -0.808  -2.339  0.00  0.00    -0.309 N 
ATOM      3  H   UNL     1      -0.986  -0.719  -2.312  0.00  0.00    +0.170 HD
ATOM      4  C   UNL     1       0.570  -1.246  -3.466  0.00  0.00    +0.260 A 
ATOM      5  O   UNL     1      -0.098  -1.526  -4.446  0.00  0.00    -0.267 OA
ATOM      6  C   UNL     1       1.995  -1.375  -3.497  0.00  0.00    +0.083 A 
ATOM      7  C   UNL     1       2.858  -1.821  -4.585  0.00  0.00    +0.039 A 
ATOM      8  C   UNL     1       4.199  -1.862  -4.378  0.00  0.00    +0.059 A 
ATOM      9  S   UNL     1       4.374  -1.298  -2.696  0.00  0.00    -0.076 S 
ATOM     10  C   UNL     1       2.664  -1.024  -2.313  0.00  0.00    +0.116 A 
ATOM     11  N   UNL     1       2.009  -0.593  -1.237  0.00  0.00    -0.225 NA
ENDROOT
BRANCH   7  12
ATOM     12  C   UNL     1       2.284  -2.221  -5.886  0.00  0.00    +0.136 A 
ATOM     13  C   UNL     1       2.693  -1.784  -7.107  0.00  0.00    +0.050 A 
ATOM     14  C   UNL     1       1.873  -2.420  -8.062  0.00  0.00    +0.042 A 
ATOM     15  C   UNL     1       1.013  -3.204  -7.384  0.00  0.00    +0.196 A 
ATOM     16  O   UNL     1       1.268  -3.086  -6.069  0.00  0.00    -0.463 OA
ENDBRANCH   7  12
BRANCH   1  18
ATOM     17  C   UNL     1      -0.019   1.526   0.010  0.00  0.00    +0.027 C 
ATOM     18  C   UNL     1       0.002  -0.004   0.002  0.00  0.00    +0.109 C 
BRANCH  18  19
ATOM     19  S   UNL     1       0.879  -0.605   1.472  0.00  0.00    -0.148 S 
BRANCH  19  20
ATOM     20  C   UNL     1      -0.166  -0.072   2.855  0.00  0.00    +0.089 C 
BRANCH  20  21
ATOM     21  C   UNL     1       0.467  -0.520   4.174  0.00  0.00    +0.128 C 
BRANCH  21  22
ATOM     22  N   UNL     1      -0.377  -0.089   5.292  0.00  0.00    -0.223 N 
ATOM     23  C   UNL     1      -0.253   1.096   5.921  0.00  0.00    +0.246 C 
ATOM     24  O   UNL     1       0.548   1.973   5.680  0.00  0.00    -0.273 OA
ATOM     25  C   UNL     1      -1.323   1.104   6.995  0.00  0.00    +0.107 C 
ATOM     26  N   UNL     1      -1.989  -0.200   6.830  0.00  0.00    -0.285 N 
ATOM     27  C   UNL     1      -1.370  -0.821   5.809  0.00  0.00    +0.309 C 
ATOM     28  O   UNL     1      -1.677  -1.925   5.405  0.00  0.00    -0.252 OA
ATOM     29  C   UNL     1      -2.312   2.247   6.760  0.00  0.00    +0.041 C 
ATOM     30  C   UNL     1      -0.692   1.213   8.384  0.00  0.00    +0.041 C 
ATOM     31  H   UNL     1      -2.730  -0.542   7.353  0.00  0.00    +0.151 HD
ENDBRANCH  21  22
ENDBRANCH  20  21
ENDBRANCH  19  20
ENDBRANCH  18  19
ENDBRANCH   1  18
TORSDOF 6
