REMARK  Name = ZINC12385133
REMARK  4 active torsions:
REMARK  status: ('A' for Active; 'I' for Inactive)
REMARK    1  A    between atoms: C_1  and  C_2
REMARK    2  A    between atoms: C_9  and  C_11
REMARK    3  A    between atoms: C_24  and  C_27
REMARK    4  A    between atoms: C_31  and  N_33
REMARK                            x       y       z     vdW  Elec       q    Type
REMARK                         _______ _______ _______ _____ _____    ______ ____
ROOT
ATOM      1  C   UNL     1       1.155  -0.689   0.724  0.00  0.00    +0.037 A 
ATOM      2  C   UNL     1       0.110   0.066   0.182  0.00  0.00    +0.015 A 
ATOM      3  C   UNL     1       0.056   1.419   0.419  0.00  0.00    +0.024 A 
ATOM      4  C   UNL     1       1.037   2.034   1.195  0.00  0.00    +0.031 A 
ATOM      5  C   UNL     1       2.080   1.296   1.734  0.00  0.00    -0.019 A 
ATOM      6  C   UNL     1       2.135  -0.067   1.498  0.00  0.00    +0.019 A 
ATOM      7  C   UNL     1       3.170   1.910   2.571  0.00  0.00    +0.049 C 
ATOM      8  C   UNL     1       4.492   1.646   1.863  0.00  0.00    -0.023 C 
ATOM      9  C   UNL     1       4.838   2.680   1.139  0.00  0.00    -0.030 C 
ATOM     10  C   UNL     1       3.801   3.783   1.259  0.00  0.00    +0.033 C 
ATOM     11  C   UNL     1       3.094   3.448   2.593  0.00  0.00    +0.029 C 
ATOM     12  C   UNL     1       1.661   3.948   2.591  0.00  0.00    +0.105 C 
ATOM     13  N   UNL     1       0.954   3.406   1.426  0.00  0.00    -0.336 N 
ATOM     14  H   UNL     1       0.445   3.983   0.836  0.00  0.00    +0.147 HD
ENDROOT
BRANCH   1  22
ATOM     15  C   UNL     1       1.582  -4.800   0.311  0.00  0.00    +0.028 C 
ATOM     16  C   UNL     1       0.135  -4.317   0.191  0.00  0.00    +0.073 C 
ATOM     17  C   UNL     1      -0.723  -4.977   1.281  0.00  0.00    +0.022 C 
ATOM     18  C   UNL     1      -2.134  -4.386   1.239  0.00  0.00    +0.003 C 
ATOM     19  C   UNL     1      -2.069  -2.884   1.522  0.00  0.00    +0.019 C 
ATOM     20  C   UNL     1      -1.226  -2.201   0.440  0.00  0.00    +0.108 C 
ATOM     21  N   UNL     1       0.085  -2.860   0.375  0.00  0.00    -0.295 N 
ATOM     22  C   UNL     1       1.221  -2.142   0.477  0.00  0.00    +0.247 C 
ATOM     23  O   UNL     1       2.300  -2.691   0.366  0.00  0.00    -0.270 OA
ENDBRANCH   1  22
BRANCH  12  24
ATOM     24  C   UNL     1       0.970   3.498   3.852  0.00  0.00    -0.025 A 
ATOM     25  C   UNL     1       0.481   2.209   3.950  0.00  0.00    +0.005 A 
ATOM     26  C   UNL     1      -0.152   1.796   5.107  0.00  0.00    +0.003 A 
ATOM     27  C   UNL     1      -0.298   2.673   6.166  0.00  0.00    +0.033 A 
ATOM     28  C   UNL     1       0.192   3.962   6.069  0.00  0.00    +0.127 A 
ATOM     29  C   UNL     1       0.830   4.373   4.913  0.00  0.00    +0.038 A 
BRANCH  28  30
ATOM     30  N   UNL     1       0.036   4.900   7.202  0.00  0.00    +0.056 N 
ATOM     31  O   UNL     1      -0.523   4.537   8.222  0.00  0.00    -0.126 OA
ATOM     32  O   UNL     1       0.467   6.036   7.117  0.00  0.00    -0.126 OA
ENDBRANCH  28  30
ENDBRANCH  12  24
TORSDOF 3
