REMARK  Name = ZINC66263011
REMARK  6 active torsions:
REMARK  status: ('A' for Active; 'I' for Inactive)
REMARK    1  A    between atoms: C_1  and  C_2
REMARK    2  A    between atoms: C_2  and  C_20
REMARK    3  A    between atoms: N_5  and  C_9
REMARK    4  A    between atoms: C_9  and  C_10
REMARK    5  A    between atoms: C_10  and  C_12
REMARK    6  A    between atoms: C_10  and  O_19
REMARK                            x       y       z     vdW  Elec       q    Type
REMARK                         _______ _______ _______ _____ _____    ______ ____
ROOT
ATOM      1  C   UNL     1      -0.019   1.526   0.010  0.00  0.00    +0.047 C 
ATOM      2  C   UNL     1       0.002  -0.004   0.002  0.00  0.00    +0.141 C 
ATOM      3  C   UNL     1       0.799  -0.520  -1.180  0.00  0.00    +0.251 C 
ATOM      4  O   UNL     1       0.564  -0.342  -2.356  0.00  0.00    -0.272 OA
ATOM      5  N   UNL     1       1.824  -1.217  -0.651  0.00  0.00    -0.221 N 
ATOM      6  C   UNL     1       1.786  -1.214   0.686  0.00  0.00    +0.310 C 
ATOM      7  O   UNL     1       2.604  -1.776   1.387  0.00  0.00    -0.252 OA
ATOM      8  N   UNL     1       0.740  -0.519   1.169  0.00  0.00    -0.281 N 
ATOM      9  H   UNL     1       0.515  -0.383   2.102  0.00  0.00    +0.152 HD
ENDROOT
BRANCH   2  10
ATOM     10  C   UNL     1      -1.402  -0.552  -0.021  0.00  0.00    +0.023 A 
ATOM     11  C   UNL     1      -2.218  -0.851   1.018  0.00  0.00    +0.015 A 
ATOM     12  C   UNL     1      -3.482  -1.348   0.757  0.00  0.00    +0.028 A 
ATOM     13  C   UNL     1      -3.866  -1.522  -0.533  0.00  0.00    +0.078 A 
ATOM     14  S   UNL     1      -2.423  -0.967  -1.426  0.00  0.00    -0.079 S 
ATOM     15 CL   UNL     1      -5.372  -2.121  -1.153  0.00  0.00    -0.076 Cl
ENDBRANCH   2  10
BRANCH   5  16
ATOM     16  C   UNL     1       2.853  -1.896  -1.443  0.00  0.00    +0.154 C 
BRANCH  16  17
ATOM     17  C   UNL     1       4.015  -0.936  -1.700  0.00  0.00    +0.162 C 
BRANCH  17  18
ATOM     18  C   UNL     1       5.074  -1.634  -2.515  0.00  0.00    -0.018 A 
ATOM     19  C   UNL     1       4.975  -1.665  -3.893  0.00  0.00    +0.007 A 
ATOM     20  C   UNL     1       5.946  -2.306  -4.641  0.00  0.00    +0.020 A 
ATOM     21  C   UNL     1       7.015  -2.916  -4.010  0.00  0.00    +0.041 A 
ATOM     22  C   UNL     1       7.112  -2.884  -2.630  0.00  0.00    +0.020 A 
ATOM     23  C   UNL     1       6.145  -2.238  -1.883  0.00  0.00    +0.007 A 
ATOM     24 CL   UNL     1       8.233  -3.720  -4.948  0.00  0.00    -0.084 Cl
ENDBRANCH  17  18
BRANCH  17  25
ATOM     25  O   UNL     1       3.540   0.207  -2.415  0.00  0.00    -0.386 OA
ATOM     26  H   UNL     1       3.148  -0.002  -3.274  0.00  0.00    +0.210 HD
ENDBRANCH  17  25
ENDBRANCH  16  17
ENDBRANCH   5  16
TORSDOF 5
