REMARK  Name = ZINC40701332
REMARK  3 active torsions:
REMARK  status: ('A' for Active; 'I' for Inactive)
REMARK    1  A    between atoms: C_1  and  C_2
REMARK    2  A    between atoms: C_10  and  N_25
REMARK    3  A    between atoms: C_11  and  N_15
REMARK                            x       y       z     vdW  Elec       q    Type
REMARK                         _______ _______ _______ _____ _____    ______ ____
ROOT
ATOM      1  C   UNL     1       0.041  -2.718  -2.595  0.00  0.00    +0.044 C 
ATOM      2  C   UNL     1       0.028  -2.035  -1.251  0.00  0.00    -0.046 A 
ATOM      3  C   UNL     1      -0.002  -0.650  -1.160  0.00  0.00    +0.023 A 
ATOM      4  C   UNL     1      -0.014  -0.055   0.086  0.00  0.00    +0.113 A 
ATOM      5  N   UNL     1       0.004  -0.785   1.185  0.00  0.00    -0.240 NA
ATOM      6  C   UNL     1       0.034  -2.108   1.139  0.00  0.00    +0.124 A 
ATOM      7  C   UNL     1       0.041  -2.774  -0.082  0.00  0.00    +0.047 A 
ATOM      8  N   UNL     1       0.052  -2.838   2.323  0.00  0.00    -0.283 N 
ATOM      9  C   UNL     1       0.154  -2.181   3.545  0.00  0.00    +0.150 A 
ATOM     10  C   UNL     1       0.281  -2.905   4.732  0.00  0.00    +0.106 A 
ATOM     11  C   UNL     1       0.379  -2.196   5.930  0.00  0.00    +0.150 A 
ATOM     12  N   UNL     1       0.348  -0.865   5.895  0.00  0.00    -0.219 NA
ATOM     13  C   UNL     1       0.227  -0.220   4.753  0.00  0.00    +0.225 A 
ATOM     14  N   UNL     1       0.137  -0.851   3.600  0.00  0.00    -0.219 NA
ATOM     15  H   UNL     1      -0.006  -3.806   2.297  0.00  0.00    +0.155 HD
ENDROOT
BRANCH  11  16
ATOM     16  N   UNL     1       0.507  -2.868   7.141  0.00  0.00    -0.277 N 
ATOM     17  C   UNL     1       0.603  -2.155   8.321  0.00  0.00    +0.165 A 
ATOM     18  N   UNL     1       0.588  -0.854   8.500  0.00  0.00    -0.225 NA
ATOM     19  C   UNL     1       0.692  -0.289   9.723  0.00  0.00    +0.080 A 
ATOM     20  C   UNL     1       0.689   1.086  10.052  0.00  0.00    +0.029 A 
ATOM     21  C   UNL     1       0.806   1.494  11.355  0.00  0.00    +0.002 A 
ATOM     22  C   UNL     1       0.929   0.581  12.393  0.00  0.00    +0.001 A 
ATOM     23  C   UNL     1       0.934  -0.772  12.107  0.00  0.00    +0.017 A 
ATOM     24  C   UNL     1       0.819  -1.190  10.805  0.00  0.00    +0.041 A 
ATOM     25  S   UNL     1       0.773  -2.768   9.991  0.00  0.00    -0.052 S 
ATOM     26  H   UNL     1       0.528  -3.838   7.158  0.00  0.00    +0.156 HD
ENDBRANCH  11  16
BRANCH  10  27
ATOM     27  N   UNL     1       0.308  -4.308   4.721  0.00  0.00    -0.353 N 
ATOM     28  H   UNL     1       0.238  -4.788   3.881  0.00  0.00    +0.143 HD
ATOM     29  H   UNL     1       0.397  -4.798   5.553  0.00  0.00    +0.143 HD
ENDBRANCH  10  27
TORSDOF 2
