REMARK  Name = ZINC14625325
REMARK  9 active torsions:
REMARK  status: ('A' for Active; 'I' for Inactive)
REMARK    1  A    between atoms: C_1  and  C_2
REMARK    2  A    between atoms: C_2  and  C_3
REMARK    3  A    between atoms: C_3  and  C_4
REMARK    4  A    between atoms: C_4  and  N_5
REMARK    5  A    between atoms: C_6  and  N_34
REMARK    6  A    between atoms: C_7  and  N_14
REMARK    7  A    between atoms: N_14  and  C_15
REMARK    8  A    between atoms: C_15  and  C_16
REMARK    9  A    between atoms: C_22  and  C_24
REMARK                            x       y       z     vdW  Elec       q    Type
REMARK                         _______ _______ _______ _____ _____    ______ ____
ROOT
ATOM      1  N   UNL     1      -1.409   3.286  -0.088  0.00  0.00    -0.256 N 
ATOM      2  C   UNL     1      -1.462   1.958   0.139  0.00  0.00    +0.251 C 
ATOM      3  O   UNL     1      -0.435   1.308   0.186  0.00  0.00    -0.270 OA
ENDROOT
BRANCH   2   4
ATOM      4  C   UNL     1      -2.767   1.293   0.332  0.00  0.00    +0.038 A 
ATOM      5  C   UNL     1      -3.922   1.840  -0.255  0.00  0.00    +0.013 A 
ATOM      6  C   UNL     1      -5.133   1.251  -0.089  0.00  0.00    +0.009 A 
ATOM      7  C   UNL     1      -5.245   0.077   0.679  0.00  0.00    -0.018 A 
ATOM      8  C   UNL     1      -6.488  -0.551   0.866  0.00  0.00    +0.008 A 
ATOM      9  C   UNL     1      -6.565  -1.685   1.615  0.00  0.00    +0.001 A 
ATOM     10  C   UNL     1      -5.428  -2.237   2.201  0.00  0.00    +0.001 A 
ATOM     11  C   UNL     1      -4.207  -1.657   2.043  0.00  0.00    +0.008 A 
ATOM     12  C   UNL     1      -4.088  -0.484   1.276  0.00  0.00    -0.017 A 
ATOM     13  C   UNL     1      -2.844   0.139   1.093  0.00  0.00    +0.021 A 
ENDBRANCH   2   4
BRANCH   1  16
ATOM     14  N   UNL     1      -4.544   4.839   1.034  0.00  0.00    -0.280 N 
ATOM     15  C   UNL     1      -3.395   4.083   1.050  0.00  0.00    +0.127 A 
ATOM     16  C   UNL     1      -2.593   4.051  -0.073  0.00  0.00    +0.140 A 
ATOM     17  C   UNL     1      -2.975   4.801  -1.202  0.00  0.00    +0.277 A 
ATOM     18  O   UNL     1      -2.282   4.796  -2.205  0.00  0.00    -0.266 OA
ATOM     19  N   UNL     1      -4.114   5.521  -1.167  0.00  0.00    -0.273 N 
ATOM     20  H   UNL     1      -4.390   6.047  -1.971  0.00  0.00    +0.173 HD
ATOM     21  C   UNL     1      -4.882   5.540  -0.064  0.00  0.00    +0.331 A 
ATOM     22  O   UNL     1      -5.902   6.201  -0.058  0.00  0.00    -0.246 OA
BRANCH  15  23
ATOM     23  N   UNL     1      -3.049   3.367   2.171  0.00  0.00    -0.343 N 
ATOM     24  H   UNL     1      -2.182   2.936   2.223  0.00  0.00    +0.144 HD
ATOM     25  H   UNL     1      -3.673   3.293   2.910  0.00  0.00    +0.144 HD
ENDBRANCH  15  23
BRANCH  14  26
ATOM     26  C   UNL     1      -5.404   4.882   2.219  0.00  0.00    +0.128 C 
BRANCH  26  27
ATOM     27  C   UNL     1      -4.963   6.032   3.127  0.00  0.00    +0.021 C 
BRANCH  27  29
ATOM     28  C   UNL     1      -5.421   7.226   5.273  0.00  0.00    +0.004 C 
ATOM     29  C   UNL     1      -5.862   6.076   4.365  0.00  0.00    -0.002 C 
ENDBRANCH  27  29
ENDBRANCH  26  27
ENDBRANCH  14  26
ENDBRANCH   1  16
BRANCH   1  30
ATOM     30  C   UNL     1      -0.121   3.934  -0.350  0.00  0.00    +0.149 C 
BRANCH  30  31
ATOM     31  C   UNL     1       0.438   4.480   0.939  0.00  0.00    -0.030 A 
ATOM     32  C   UNL     1       0.062   5.736   1.377  0.00  0.00    +0.005 A 
ATOM     33  C   UNL     1       0.570   6.235   2.562  0.00  0.00    +0.000 A 
ATOM     34  C   UNL     1       1.464   5.483   3.302  0.00  0.00    +0.000 A 
ATOM     35  C   UNL     1       1.844   4.230   2.860  0.00  0.00    +0.000 A 
ATOM     36  C   UNL     1       1.331   3.728   1.679  0.00  0.00    +0.005 A 
ENDBRANCH  30  31
ENDBRANCH   1  30
TORSDOF 8
