REMARK  Name = ZINC15707995
REMARK  8 active torsions:
REMARK  status: ('A' for Active; 'I' for Inactive)
REMARK    1  A    between atoms: C_4  and  S_7
REMARK    2  A    between atoms: S_7  and  N_10
REMARK    3  A    between atoms: N_10  and  C_11
REMARK    4  A    between atoms: C_20  and  C_23
REMARK    5  A    between atoms: C_23  and  C_24
REMARK    6  A    between atoms: C_24  and  C_25
REMARK    7  A    between atoms: N_27  and  C_28
REMARK    8  A    between atoms: C_28  and  C_29
REMARK                            x       y       z     vdW  Elec       q    Type
REMARK                         _______ _______ _______ _____ _____    ______ ____
ROOT
ATOM      1  C   UNL     1      -5.248  -0.542   5.880  0.00  0.00    +0.059 C 
ATOM      2  C   UNL     1      -5.657  -1.469   7.056  0.00  0.00    +0.012 C 
ATOM      3  C   UNL     1      -5.369  -2.876   6.532  0.00  0.00    +0.021 C 
ATOM      4  C   UNL     1      -6.292  -3.954   6.998  0.00  0.00    +0.200 C 
ATOM      5  O   UNL     1      -6.780  -3.907   8.107  0.00  0.00    -0.278 OA
ATOM      6  N   UNL     1      -6.575  -4.978   6.169  0.00  0.00    -0.318 N 
ATOM      7  C   UNL     1      -6.159  -5.059   4.783  0.00  0.00    +0.089 C 
ATOM      8  C   UNL     1      -5.125  -3.980   4.428  0.00  0.00    -0.050 C 
ATOM      9  C   UNL     1      -4.830  -1.508   4.737  0.00  0.00    -0.057 C 
ATOM     10  H   UNL     1      -7.104  -5.710   6.522  0.00  0.00    +0.149 HD
ATOM     11  N   UNL     1      -5.578  -2.732   5.123  0.00  0.00    +0.391 N 
ATOM     12  H   UNL     1      -6.576  -2.594   4.924  0.00  0.00    -0.080 HD
ENDROOT
BRANCH   1  13
ATOM     13  N   UNL     1      -6.384   0.282   5.462  0.00  0.00    -0.189 NA
ATOM     14  H   UNL     1      -7.282  -0.085   5.478  0.00  0.00    +0.148 HD
BRANCH  13  15
ATOM     15  S   UNL     1      -6.137   1.841   4.961  0.00  0.00    +0.059 S 
ATOM     16  O   UNL     1      -7.405   2.349   4.572  0.00  0.00    -0.153 OA
ATOM     17  O   UNL     1      -5.339   2.466   5.957  0.00  0.00    -0.153 OA
BRANCH  15  21
ATOM     18  C   UNL     1      -3.610   1.658   1.210  0.00  0.00    +0.000 A 
ATOM     19  C   UNL     1      -4.988   1.718   1.113  0.00  0.00    +0.002 A 
ATOM     20  C   UNL     1      -5.759   1.774   2.258  0.00  0.00    +0.028 A 
ATOM     21  C   UNL     1      -5.153   1.770   3.501  0.00  0.00    +0.105 A 
ATOM     22  C   UNL     1      -3.775   1.715   3.597  0.00  0.00    +0.028 A 
ATOM     23  C   UNL     1      -3.004   1.654   2.452  0.00  0.00    +0.002 A 
ENDBRANCH  15  21
ENDBRANCH  13  15
ENDBRANCH   1  13
BRANCH   8  24
ATOM     24  C   UNL     1      -5.069  -3.795   2.910  0.00  0.00    -0.005 C 
BRANCH  24  25
ATOM     25  C   UNL     1      -4.492  -5.056   2.263  0.00  0.00    +0.094 C 
BRANCH  25  26
ATOM     26  C   UNL     1      -4.319  -4.827   0.784  0.00  0.00    +0.213 C 
ATOM     27  O   UNL     1      -4.715  -3.798   0.279  0.00  0.00    -0.276 OA
ATOM     28  N   UNL     1      -3.724  -5.767   0.022  0.00  0.00    -0.311 N 
ATOM     29  H   UNL     1      -3.469  -6.618   0.412  0.00  0.00    +0.149 HD
BRANCH  28  30
ATOM     30  C   UNL     1      -3.462  -5.503  -1.395  0.00  0.00    +0.146 C 
BRANCH  30  31
ATOM     31  C   UNL     1      -2.906  -6.745  -2.043  0.00  0.00    +0.007 A 
ATOM     32  C   UNL     1      -3.569  -7.804  -2.569  0.00  0.00    +0.013 A 
ATOM     33  C   UNL     1      -2.843  -8.844  -3.118  0.00  0.00    +0.008 A 
ATOM     34  C   UNL     1      -1.490  -8.774  -3.114  0.00  0.00    +0.045 A 
ATOM     35  S   UNL     1      -1.202  -7.203  -2.317  0.00  0.00    -0.100 S 
ENDBRANCH  30  31
ENDBRANCH  28  30
ENDBRANCH  25  26
ENDBRANCH  24  25
ENDBRANCH   8  24
TORSDOF 8
