REMARK  Name = ZINC00069817
REMARK  5 active torsions:
REMARK  status: ('A' for Active; 'I' for Inactive)
REMARK    1  A    between atoms: C_3  and  N_20
REMARK    2  A    between atoms: C_6  and  C_7
REMARK    3  A    between atoms: C_7  and  S_8
REMARK    4  A    between atoms: S_8  and  C_9
REMARK    5  A    between atoms: C_10  and  C_18
REMARK                            x       y       z     vdW  Elec       q    Type
REMARK                         _______ _______ _______ _____ _____    ______ ____
ROOT
ATOM      1  S   UNL     1      -0.665   2.325  -5.049  0.00  0.00    -0.100 S 
ENDROOT
BRANCH   1   2
ATOM      2  C   UNL     1      -1.222   2.202  -3.382  0.00  0.00    +0.115 A 
ATOM      3  C   UNL     1      -2.525   2.616  -3.048  0.00  0.00    +0.084 A 
ATOM      4  C   UNL     1      -2.940   2.507  -1.717  0.00  0.00    +0.027 A 
ATOM      5  C   UNL     1      -2.051   1.996  -0.785  0.00  0.00    -0.025 A 
ATOM      6  C   UNL     1      -0.785   1.608  -1.187  0.00  0.00    +0.046 A 
ATOM      7  N   UNL     1      -0.415   1.720  -2.453  0.00  0.00    -0.244 NA
ATOM      8  C   UNL     1      -0.013   1.086   0.008  0.00  0.00    +0.056 C 
ATOM      9  C   UNL     1      -0.776   1.604   1.245  0.00  0.00    +0.011 C 
ATOM     10  C   UNL     1      -2.214   1.764   0.701  0.00  0.00    +0.037 C 
BRANCH   3  11
ATOM     11  C   UNL     1      -3.406   3.138  -4.049  0.00  0.00    +0.102 C 
ATOM     12  N   UNL     1      -4.105   3.552  -4.843  0.00  0.00    -0.191 NA
ENDBRANCH   3  11
ENDBRANCH   1   2
BRANCH   1  13
ATOM     13  C   UNL     1       1.013   1.670  -4.868  0.00  0.00    +0.111 C 
BRANCH  13  19
ATOM     14  C   UNL     1       1.617   0.577  -7.038  0.00  0.00    +0.007 A 
ATOM     15  C   UNL     1       2.246   0.587  -8.269  0.00  0.00    +0.033 A 
ATOM     16  C   UNL     1       2.970   1.696  -8.666  0.00  0.00    +0.126 A 
ATOM     17  C   UNL     1       3.060   2.797  -7.834  0.00  0.00    +0.033 A 
ATOM     18  C   UNL     1       2.427   2.788  -6.605  0.00  0.00    +0.007 A 
ATOM     19  C   UNL     1       1.703   1.679  -6.208  0.00  0.00    -0.037 A 
BRANCH  16  20
ATOM     20  N   UNL     1       3.647   1.706  -9.982  0.00  0.00    +0.056 N 
ATOM     21  O   UNL     1       4.285   2.683 -10.331  0.00  0.00    -0.126 OA
ATOM     22  O   UNL     1       3.568   0.736 -10.714  0.00  0.00    -0.126 OA
ENDBRANCH  16  20
ENDBRANCH  13  19
ENDBRANCH   1  13
TORSDOF 5
