REMARK  Name = ZINC66249809
REMARK  4 active torsions:
REMARK  status: ('A' for Active; 'I' for Inactive)
REMARK    1  A    between atoms: C_1  and  N_2
REMARK    2  A    between atoms: C_5  and  S_8
REMARK    3  A    between atoms: S_8  and  N_11
REMARK    4  A    between atoms: N_11  and  C_12
REMARK                            x       y       z     vdW  Elec       q    Type
REMARK                         _______ _______ _______ _____ _____    ______ ____
ROOT
ATOM      1  C   UNL     1       1.790  -4.598   3.311  0.00  0.00    +0.202 A 
ATOM      2  N   UNL     1       1.070  -5.657   3.602  0.00  0.00    -0.222 NA
ATOM      3  C   UNL     1       1.488  -6.604   4.473  0.00  0.00    +0.084 A 
ATOM      4  C   UNL     1       0.814  -7.780   4.870  0.00  0.00    +0.078 A 
ATOM      5  C   UNL     1       1.379  -8.652   5.775  0.00  0.00    +0.164 A 
ATOM      6  C   UNL     1       2.636  -8.397   6.324  0.00  0.00    +0.163 A 
ATOM      7  C   UNL     1       3.321  -7.250   5.955  0.00  0.00    +0.066 A 
ATOM      8  C   UNL     1       2.756  -6.382   5.053  0.00  0.00    +0.045 A 
ATOM      9  S   UNL     1       3.253  -4.847   4.307  0.00  0.00    -0.049 S 
ATOM     10  O   UNL     1       3.202  -9.257   7.213  0.00  0.00    -0.485 OA
ATOM     11  C   UNL     1       2.329 -10.205   7.836  0.00  0.00    +0.270 C 
ATOM     12  C   UNL     1       1.439 -10.823   6.749  0.00  0.00    +0.270 C 
ATOM     13  O   UNL     1       0.689  -9.773   6.131  0.00  0.00    -0.485 OA
ENDROOT
BRANCH   1  14
ATOM     14  N   UNL     1       1.495  -3.559   2.450  0.00  0.00    -0.069 NA
BRANCH  14  15
ATOM     15  S   UNL     1       0.058  -3.549   1.628  0.00  0.00    +0.112 S 
ATOM     16  O   UNL     1      -0.966  -3.397   2.601  0.00  0.00    -0.147 OA
ATOM     17  O   UNL     1       0.096  -4.647   0.728  0.00  0.00    -0.147 OA
BRANCH  15  22
ATOM     18  C   UNL     1      -0.018   1.461   0.010  0.00  0.00    +0.151 C 
ATOM     19  N   UNL     1       0.002  -0.004   0.002  0.00  0.00    -0.324 N 
ATOM     20  C   UNL     1       0.009  -0.800  -1.090  0.00  0.00    +0.176 A 
ATOM     21  N   UNL     1       0.027  -2.045  -0.701  0.00  0.00    -0.329 N 
ATOM     22  C   UNL     1       0.034  -2.090   0.640  0.00  0.00    +0.214 A 
ATOM     23  C   UNL     1       0.024  -0.822   1.099  0.00  0.00    +0.154 A 
ATOM     24 CL   UNL     1       0.032  -0.324   2.762  0.00  0.00    -0.060 Cl
ATOM     25  H   UNL     1       0.036  -2.817  -1.288  0.00  0.00    +0.168 HD
ENDBRANCH  15  22
ENDBRANCH  14  15
ENDBRANCH   1  14
TORSDOF 3
