REMARK  Name = ZINC16852571
REMARK  3 active torsions:
REMARK  status: ('A' for Active; 'I' for Inactive)
REMARK    1  A    between atoms: C_5  and  C_7
REMARK    2  A    between atoms: C_7  and  C_8
REMARK    3  A    between atoms: C_9  and  O_22
REMARK                            x       y       z     vdW  Elec       q    Type
REMARK                         _______ _______ _______ _____ _____    ______ ____
ROOT
ATOM      1  C   UNL     1      -0.786   1.478  -1.225  0.00  0.00    +0.083 A 
ATOM      2  C   UNL     1      -0.488   2.658  -1.889  0.00  0.00    +0.223 A 
ATOM      3  N   UNL     1      -1.192   2.976  -2.979  0.00  0.00    -0.188 NA
ATOM      4  C   UNL     1      -2.147   2.193  -3.418  0.00  0.00    +0.184 A 
ATOM      5  N   UNL     1      -2.501   1.017  -2.823  0.00  0.00    -0.254 N 
ATOM      6  C   UNL     1      -1.799   0.655  -1.707  0.00  0.00    +0.266 A 
ATOM      7  O   UNL     1      -2.064  -0.389  -1.131  0.00  0.00    -0.267 OA
ATOM      8  C   UNL     1      -3.542   0.275  -3.395  0.00  0.00    +0.066 A 
ATOM      9  C   UNL     1      -4.045  -0.952  -2.929  0.00  0.00    +0.027 A 
ATOM     10  C   UNL     1      -5.076  -1.584  -3.583  0.00  0.00    +0.002 A 
ATOM     11  C   UNL     1      -5.650  -1.035  -4.718  0.00  0.00    +0.001 A 
ATOM     12  C   UNL     1      -5.173   0.171  -5.198  0.00  0.00    +0.017 A 
ATOM     13  C   UNL     1      -4.142   0.802  -4.542  0.00  0.00    +0.040 A 
ATOM     14  S   UNL     1      -3.253   2.317  -4.808  0.00  0.00    -0.049 S 
ENDROOT
BRANCH   2  15
ATOM     15  O   UNL     1       0.498   3.471  -1.442  0.00  0.00    -0.492 OA
ATOM     16  H   UNL     1       0.624   4.267  -1.977  0.00  0.00    +0.294 HD
ENDBRANCH   2  15
BRANCH   1  17
ATOM     17  C   UNL     1      -0.013   1.086   0.008  0.00  0.00    +0.082 C 
BRANCH  17  22
ATOM     18  C   UNL     1       1.856  -2.089  -0.819  0.00  0.00    +0.000 A 
ATOM     19  C   UNL     1       3.126  -1.605  -1.073  0.00  0.00    +0.001 A 
ATOM     20  C   UNL     1       3.381  -0.250  -0.977  0.00  0.00    +0.020 A 
ATOM     21  C   UNL     1       2.365   0.622  -0.627  0.00  0.00    +0.044 A 
ATOM     22  C   UNL     1       1.094   0.137  -0.373  0.00  0.00    -0.024 A 
ATOM     23  C   UNL     1       0.842  -1.219  -0.464  0.00  0.00    +0.005 A 
ATOM     24 CL   UNL     1       2.684   2.324  -0.507  0.00  0.00    -0.083 Cl
ENDBRANCH  17  22
ENDBRANCH   1  17
TORSDOF 3
