REMARK  Name = ZINC64110455
REMARK  4 active torsions:
REMARK  status: ('A' for Active; 'I' for Inactive)
REMARK    1  A    between atoms: C_5  and  C_7
REMARK    2  A    between atoms: N_17  and  C_18
REMARK    3  A    between atoms: C_18  and  C_19
REMARK    4  A    between atoms: C_23  and  C_25
REMARK                            x       y       z     vdW  Elec       q    Type
REMARK                         _______ _______ _______ _____ _____    ______ ____
ROOT
ATOM      1  C   UNL     1       1.338  -2.291   0.145  0.00  0.00    +0.033 C 
ATOM      2  C   UNL     1       1.495  -3.369   1.188  0.00  0.00    +0.054 A 
ATOM      3  N   UNL     1       0.908  -3.472   2.381  0.00  0.00    -0.242 NA
ATOM      4  C   UNL     1       1.326  -4.561   2.973  0.00  0.00    +0.196 A 
ATOM      5  N   UNL     1       2.205  -5.190   2.157  0.00  0.00    -0.348 N 
ATOM      6  C   UNL     1       2.309  -4.438   1.031  0.00  0.00    +0.036 A 
ATOM      7  H   UNL     1       2.673  -6.020   2.341  0.00  0.00    +0.166 HD
ATOM      8  C   UNL     1       3.138  -4.670  -0.206  0.00  0.00    +0.036 C 
ATOM      9  C   UNL     1       2.597  -3.748  -1.309  0.00  0.00    -0.071 C 
ATOM     10  N   UNL     1       2.467  -2.378  -0.794  0.00  0.00    +0.392 N 
ATOM     11  H   UNL     1       2.313  -1.742  -1.563  0.00  0.00    -0.080 HD
ENDROOT
BRANCH   1  16
ATOM     12  C   UNL     1       0.139   0.918   1.717  0.00  0.00    +0.003 A 
ATOM     13  C   UNL     1       1.363   1.502   2.009  0.00  0.00    +0.020 A 
ATOM     14  C   UNL     1       2.525   0.830   1.683  0.00  0.00    +0.111 A 
ATOM     15  N   UNL     1       2.479  -0.353   1.102  0.00  0.00    -0.261 NA
ATOM     16  C   UNL     1       1.334  -0.939   0.810  0.00  0.00    +0.034 A 
ATOM     17  C   UNL     1       0.131  -0.326   1.106  0.00  0.00    +0.022 A 
ENDBRANCH   1  16
BRANCH  10  18
ATOM     18  C   UNL     1       3.707  -2.004  -0.100  0.00  0.00    -0.042 C 
BRANCH  18  19
ATOM     19  C   UNL     1       4.886  -2.264  -1.002  0.00  0.00    -0.039 C 
ATOM     20  C   UNL     1       5.761  -3.270  -0.941  0.00  0.00    +0.132 C 
ATOM     21  N   UNL     1       6.683  -3.164  -1.924  0.00  0.00    -0.186 NA
ATOM     22  N   UNL     1       6.536  -2.187  -2.661  0.00  0.00    -0.298 N 
ATOM     23  C   UNL     1       5.350  -1.447  -2.195  0.00  0.00    +0.154 C 
ATOM     24  H   UNL     1       7.098  -1.949  -3.415  0.00  0.00    +0.183 HD
BRANCH  23  25
ATOM     25  C   UNL     1       5.729  -0.052  -1.770  0.00  0.00    -0.016 A 
ATOM     26  C   UNL     1       6.902   0.162  -1.070  0.00  0.00    +0.010 A 
ATOM     27  C   UNL     1       7.254   1.440  -0.678  0.00  0.00    +0.050 A 
ATOM     28  C   UNL     1       6.431   2.511  -0.987  0.00  0.00    +0.166 A 
ATOM     29  C   UNL     1       5.249   2.296  -1.692  0.00  0.00    +0.167 A 
ATOM     30  C   UNL     1       4.906   1.013  -2.086  0.00  0.00    +0.055 A 
ATOM     31  O   UNL     1       4.622   3.495  -1.870  0.00  0.00    -0.453 OA
ATOM     32  C   UNL     1       5.225   4.389  -0.914  0.00  0.00    +0.466 C 
ATOM     33  O   UNL     1       6.544   3.845  -0.722  0.00  0.00    -0.453 OA
ENDBRANCH  23  25
ENDBRANCH  18  19
ENDBRANCH  10  18
TORSDOF 4
