REMARK  Name = ZINC58393937
REMARK  12 active torsions:
REMARK  status: ('A' for Active; 'I' for Inactive)
REMARK    1  A    between atoms: C_1  and  C_2
REMARK    2  A    between atoms: C_2  and  C_4
REMARK    3  A    between atoms: C_2  and  N_12
REMARK    4  A    between atoms: N_12  and  C_13
REMARK    5  A    between atoms: C_13  and  C_14
REMARK    6  A    between atoms: C_15  and  C_23
REMARK    7  A    between atoms: N_17  and  C_22
REMARK    8  A    between atoms: C_18  and  N_19
REMARK    9  A    between atoms: N_19  and  C_20
REMARK   10  A    between atoms: N_19  and  C_21
REMARK   11  A    between atoms: C_23  and  C_24
REMARK   12  A    between atoms: C_23  and  C_25
REMARK                            x       y       z     vdW  Elec       q    Type
REMARK                         _______ _______ _______ _____ _____    ______ ____
ROOT
ATOM      1  N   UNL     1      -1.344  -0.521  -0.116  0.00  0.00    +0.388 N 
ATOM      2  H   UNL     1      -1.310  -1.529  -0.097  0.00  0.00    -0.084 HD
ATOM      3  H   UNL     1      -1.807  -0.184   0.715  0.00  0.00    -0.084 HD
ENDROOT
BRANCH   1   5
ATOM      4  C   UNL     1      -0.023   1.541  -0.068  0.00  0.00    -0.006 C 
ATOM      5  C   UNL     1       0.023   0.015  -0.165  0.00  0.00    -0.005 C 
BRANCH   5   6
ATOM      6  C   UNL     1       0.821  -0.538   0.988  0.00  0.00    +0.119 A 
ATOM      7  N   UNL     1       0.424  -0.636   2.227  0.00  0.00    -0.136 NA
ATOM      8  N   UNL     1       1.360  -1.152   2.942  0.00  0.00    -0.134 NA
ATOM      9  C   UNL     1       2.398  -1.405   2.190  0.00  0.00    +0.133 A 
ATOM     10  N   UNL     1       2.083  -1.032   0.930  0.00  0.00    -0.316 N 
ATOM     11  C   UNL     1       3.193  -1.295   0.006  0.00  0.00    +0.125 C 
ATOM     12  C   UNL     1       4.436  -1.495   0.899  0.00  0.00    +0.029 C 
ATOM     13  C   UNL     1       3.804  -1.964   2.227  0.00  0.00    +0.078 C 
ENDBRANCH   5   6
ENDBRANCH   1   5
BRANCH   1  14
ATOM     14  C   UNL     1      -2.086  -0.078  -1.304  0.00  0.00    -0.040 C 
BRANCH  14  15
ATOM     15  C   UNL     1      -3.488  -0.627  -1.254  0.00  0.00    -0.002 A 
ATOM     16  C   UNL     1      -3.920  -1.835  -1.810  0.00  0.00    +0.069 A 
ATOM     17  N   UNL     1      -5.198  -1.969  -1.561  0.00  0.00    -0.174 NA
ATOM     18  N   UNL     1      -5.626  -0.849  -0.836  0.00  0.00    -0.253 N 
ATOM     19  C   UNL     1      -4.559  -0.039  -0.653  0.00  0.00    +0.120 A 
ATOM     20  C   UNL     1      -6.989  -0.603  -0.357  0.00  0.00    +0.174 C 
BRANCH  19  21
ATOM     21  N   UNL     1      -4.557   1.177   0.024  0.00  0.00    -0.321 N 
ATOM     22  C   UNL     1      -4.888   2.414  -0.690  0.00  0.00    +0.130 C 
ATOM     23  C   UNL     1      -4.224   1.222   1.450  0.00  0.00    +0.130 C 
ENDBRANCH  19  21
BRANCH  16  24
ATOM     24  C   UNL     1      -3.061  -2.815  -2.567  0.00  0.00    +0.034 C 
ATOM     25  C   UNL     1      -3.072  -4.165  -1.847  0.00  0.00    +0.014 C 
ATOM     26  C   UNL     1      -3.612  -2.987  -3.984  0.00  0.00    +0.014 C 
ENDBRANCH  16  24
ENDBRANCH  14  15
ENDBRANCH   1  14
TORSDOF 6
