REMARK  Name = ZINC10232758
REMARK  2 active torsions:
REMARK  status: ('A' for Active; 'I' for Inactive)
REMARK    1  A    between atoms: C_6  and  C_7
REMARK    2  A    between atoms: C_20  and  C_22
REMARK                            x       y       z     vdW  Elec       q    Type
REMARK                         _______ _______ _______ _____ _____    ______ ____
ROOT
ATOM      1  C   UNL     1      -1.271  -0.766   0.011  0.00  0.00    +0.101 A 
ATOM      2  C   UNL     1      -1.407  -1.917  -0.771  0.00  0.00    +0.036 A 
ATOM      3  C   UNL     1      -2.615  -2.592  -0.722  0.00  0.00    +0.110 A 
ATOM      4  C   UNL     1      -3.629  -2.082   0.098  0.00  0.00    +0.310 A 
ATOM      5  N   UNL     1      -3.407  -0.984   0.801  0.00  0.00    -0.104 NA
ATOM      6  N   UNL     1      -2.286  -0.361   0.764  0.00  0.00    -0.145 NA
ATOM      7  O   UNL     1      -4.830  -2.710   0.171  0.00  0.00    -0.262 OA
ATOM      8  N   UNL     1      -2.831  -3.759  -1.462  0.00  0.00    -0.278 N 
ATOM      9  C   UNL     1      -1.721  -4.356  -2.039  0.00  0.00    +0.240 A 
ATOM     10  N   UNL     1      -1.579  -5.533  -2.582  0.00  0.00    -0.092 NA
ATOM     11  N   UNL     1      -0.368  -5.693  -2.992  0.00  0.00    -0.021 NA
ATOM     12  N   UNL     1       0.335  -4.636  -2.743  0.00  0.00    -0.042 NA
ATOM     13  N   UNL     1      -0.520  -3.728  -2.118  0.00  0.00    -0.201 N 
ATOM     14  C   UNL     1      -0.261  -2.379  -1.630  0.00  0.00    +0.176 C 
ATOM     15  H   UNL     1      -3.719  -4.134  -1.568  0.00  0.00    +0.155 HD
ENDROOT
BRANCH   1  21
ATOM     16  C   UNL     1      -0.010   1.376  -0.191  0.00  0.00    +0.011 A 
ATOM     17  C   UNL     1       1.177   2.080  -0.198  0.00  0.00    +0.016 A 
ATOM     18  C   UNL     1       2.378   1.418  -0.013  0.00  0.00    +0.018 A 
ATOM     19  C   UNL     1       2.396   0.047   0.179  0.00  0.00    +0.016 A 
ATOM     20  C   UNL     1       1.214  -0.666   0.187  0.00  0.00    +0.011 A 
ATOM     21  C   UNL     1       0.002  -0.004   0.002  0.00  0.00    +0.003 A 
ATOM     22 BR   UNL     1       4.001   2.389  -0.024  0.00  0.00    -0.050 Br
ENDBRANCH   1  21
BRANCH  14  23
ATOM     23  C   UNL     1      -0.106  -1.444  -2.802  0.00  0.00    -0.018 A 
ATOM     24  C   UNL     1      -1.150  -1.272  -3.691  0.00  0.00    +0.009 A 
ATOM     25  C   UNL     1      -1.009  -0.415  -4.766  0.00  0.00    +0.039 A 
ATOM     26  C   UNL     1       0.179   0.272  -4.952  0.00  0.00    +0.123 A 
ATOM     27  C   UNL     1       1.224   0.099  -4.061  0.00  0.00    +0.039 A 
ATOM     28  C   UNL     1       1.079  -0.755  -2.984  0.00  0.00    +0.009 A 
ATOM     29  F   UNL     1       0.318   1.110  -6.003  0.00  0.00    -0.205 F 
ENDBRANCH  14  23
TORSDOF 2
