REMARK  Name = ZINC39211542
REMARK  9 active torsions:
REMARK  status: ('A' for Active; 'I' for Inactive)
REMARK    1  A    between atoms: C_1  and  C_2
REMARK    2  A    between atoms: C_6  and  C_33
REMARK    3  A    between atoms: C_7  and  N_8
REMARK    4  A    between atoms: C_9  and  C_14
REMARK    5  A    between atoms: C_14  and  N_19
REMARK    6  A    between atoms: N_19  and  C_20
REMARK    7  A    between atoms: C_20  and  C_21
REMARK    8  A    between atoms: C_21  and  C_22
REMARK    9  A    between atoms: C_30  and  C_32
REMARK                            x       y       z     vdW  Elec       q    Type
REMARK                         _______ _______ _______ _____ _____    ______ ____
ROOT
ATOM      1  C   UNL     1       2.028   1.686   1.972  0.00  0.00    -0.036 C 
ATOM      2  C   UNL     1       2.531   1.214   0.593  0.00  0.00    -0.009 C 
ATOM      3  C   UNL     1       3.881   1.950   0.408  0.00  0.00    -0.001 C 
ATOM      4  C   UNL     1       4.483   1.922   1.835  0.00  0.00    -0.001 C 
ATOM      5  C   UNL     1       3.269   2.136   2.763  0.00  0.00    -0.009 C 
ENDROOT
BRANCH   1   7
ATOM      6  N   UNL     1       0.207   0.029   1.895  0.00  0.00    -0.265 N 
ATOM      7  C   UNL     1       1.333   0.533   2.700  0.00  0.00    +0.131 C 
ATOM      8  N   UNL     1       0.736   1.013   3.971  0.00  0.00    -0.330 NA
ATOM      9  N   UNL     1      -0.543   0.284   4.023  0.00  0.00    +0.410 N 
ATOM     10  N   UNL     1      -0.949   0.241   2.609  0.00  0.00    -0.266 NA
ATOM     11  H   UNL     1       1.321   0.774   4.758  0.00  0.00    +0.106 HD
ATOM     12  H   UNL     1      -0.409  -0.647   4.388  0.00  0.00    -0.031 HD
ATOM     13  H   UNL     1      -1.393   1.103   2.331  0.00  0.00    +0.125 HD
ATOM     14  H   UNL     1      -1.221   0.791   4.572  0.00  0.00    -0.031 HD
BRANCH   6  21
ATOM     15  C   UNL     1      -0.866   1.456  -0.320  0.00  0.00    +0.046 C 
ATOM     16  C   UNL     1      -0.213   0.107  -0.480  0.00  0.00    -0.028 A 
ATOM     17  C   UNL     1      -0.118  -0.471  -1.731  0.00  0.00    +0.005 A 
ATOM     18  C   UNL     1       0.481  -1.709  -1.878  0.00  0.00    +0.001 A 
ATOM     19  C   UNL     1       0.986  -2.372  -0.775  0.00  0.00    +0.005 A 
ATOM     20  C   UNL     1       0.894  -1.800   0.478  0.00  0.00    -0.028 A 
ATOM     21  C   UNL     1       0.298  -0.554   0.630  0.00  0.00    +0.050 A 
ATOM     22  C   UNL     1       1.444  -2.524   1.680  0.00  0.00    +0.046 C 
ENDBRANCH   6  21
ENDBRANCH   1   7
BRANCH   1  23
ATOM     23  N   UNL     1       1.098   2.812   1.812  0.00  0.00    +0.385 N 
ATOM     24  H   UNL     1       0.256   2.491   1.358  0.00  0.00    -0.085 HD
ATOM     25  H   UNL     1       0.869   3.191   2.718  0.00  0.00    -0.085 HD
BRANCH  23  26
ATOM     26  C   UNL     1       1.729   3.855   0.991  0.00  0.00    -0.077 C 
BRANCH  26  27
ATOM     27  C   UNL     1       0.761   5.027   0.823  0.00  0.00    +0.018 C 
BRANCH  27  28
ATOM     28  C   UNL     1       1.408   6.097  -0.019  0.00  0.00    -0.021 A 
ATOM     29  C   UNL     1       1.344   6.215  -1.477  0.00  0.00    +0.003 A 
ATOM     30  C   UNL     1       0.734   5.467  -2.486  0.00  0.00    +0.010 A 
ATOM     31  C   UNL     1       0.867   5.851  -3.790  0.00  0.00    +0.001 A 
ATOM     32  C   UNL     1       1.605   6.979  -4.121  0.00  0.00    +0.002 A 
ATOM     33  C   UNL     1       2.216   7.731  -3.142  0.00  0.00    +0.026 A 
ATOM     34  C   UNL     1       2.093   7.359  -1.808  0.00  0.00    +0.047 A 
ATOM     35  N   UNL     1       2.570   7.887  -0.629  0.00  0.00    -0.358 N 
ATOM     36  C   UNL     1       2.147   7.125   0.426  0.00  0.00    +0.017 A 
ATOM     37  H   UNL     1       3.121   8.682  -0.556  0.00  0.00    +0.166 HD
ATOM     38  C   UNL     1       2.467   7.398   1.874  0.00  0.00    +0.063 C 
ENDBRANCH  27  28
ENDBRANCH  26  27
ENDBRANCH  23  26
ENDBRANCH   1  23
TORSDOF 6
