REMARK  Name = ZINC12047773
REMARK  10 active torsions:
REMARK  status: ('A' for Active; 'I' for Inactive)
REMARK    1  A    between atoms: C_1  and  O_2
REMARK    2  A    between atoms: O_2  and  C_3
REMARK    3  A    between atoms: C_6  and  C_11
REMARK    4  A    between atoms: C_8  and  O_9
REMARK    5  A    between atoms: O_9  and  C_10
REMARK    6  A    between atoms: C_15  and  O_17
REMARK    7  A    between atoms: O_17  and  C_18
REMARK    8  A    between atoms: C_23  and  C_24
REMARK    9  A    between atoms: C_23  and  N_64
REMARK   10  A    between atoms: C_29  and  C_30
REMARK                            x       y       z     vdW  Elec       q    Type
REMARK                         _______ _______ _______ _____ _____    ______ ____
ROOT
ATOM      1  C   UNL     1       1.304   2.840   1.021  0.00  0.00    -0.014 A 
ATOM      2  C   UNL     1       0.167   2.070   0.776  0.00  0.00    +0.014 A 
ATOM      3  C   UNL     1      -1.072   2.673   0.742  0.00  0.00    -0.018 A 
ATOM      4  C   UNL     1      -1.200   4.028   0.979  0.00  0.00    +0.163 A 
ATOM      5  C   UNL     1      -0.070   4.805   1.221  0.00  0.00    +0.162 A 
ATOM      6  C   UNL     1       1.180   4.211   1.238  0.00  0.00    +0.058 A 
ATOM      7  O   UNL     1      -2.437   4.601   0.987  0.00  0.00    -0.490 OA
ATOM      8  C   UNL     1      -3.280   4.225   2.083  0.00  0.00    +0.211 C 
ATOM      9  C   UNL     1      -4.022   2.943   1.774  0.00  0.00    -0.036 C 
ATOM     10  C   UNL     1      -2.308   1.851   0.432  0.00  0.00    -0.039 C 
ATOM     11  N   UNL     1      -3.127   1.772   1.666  0.00  0.00    +0.387 N 
ATOM     12  H   UNL     1      -2.499   1.760   2.478  0.00  0.00    -0.081 HD
ENDROOT
BRANCH   1  16
ATOM     13  C   UNL     1       5.142   1.001   1.105  0.00  0.00    +0.162 A 
ATOM     14  C   UNL     1       4.012   0.236   0.862  0.00  0.00    +0.050 A 
ATOM     15  C   UNL     1       2.766   0.830   0.834  0.00  0.00    +0.012 A 
ATOM     16  C   UNL     1       2.643   2.201   1.051  0.00  0.00    -0.014 A 
ATOM     17  C   UNL     1       3.779   2.972   1.290  0.00  0.00    +0.058 A 
ATOM     18  C   UNL     1       5.025   2.371   1.322  0.00  0.00    +0.162 A 
BRANCH  13  20
ATOM     19  C   UNL     1       6.415  -0.997   0.901  0.00  0.00    +0.277 C 
ATOM     20  O   UNL     1       6.367   0.412   1.132  0.00  0.00    -0.491 OA
ENDBRANCH  13  20
BRANCH  18  21
ATOM     21  O   UNL     1       6.135   3.120   1.560  0.00  0.00    -0.491 OA
ATOM     22  C   UNL     1       5.940   4.520   1.774  0.00  0.00    +0.277 C 
ENDBRANCH  18  21
ENDBRANCH   1  16
BRANCH   5  23
ATOM     23  O   UNL     1      -0.194   6.142   1.437  0.00  0.00    -0.491 OA
ATOM     24  C   UNL     1       1.009   6.874   1.677  0.00  0.00    +0.277 C 
ENDBRANCH   5  23
BRANCH  11  25
ATOM     25  C   UNL     1      -3.923   0.533   1.661  0.00  0.00    -0.039 C 
BRANCH  25  26
ATOM     26  C   UNL     1      -4.341   0.234   3.078  0.00  0.00    -0.019 A 
ATOM     27  C   UNL     1      -5.585   0.374   3.586  0.00  0.00    +0.107 A 
ATOM     28  N   UNL     1      -5.549   0.001   4.884  0.00  0.00    -0.284 N 
ATOM     29  H   UNL     1      -6.325  -0.006   5.514  0.00  0.00    +0.188 HD
ATOM     30  N   UNL     1      -4.236  -0.374   5.193  0.00  0.00    -0.174 NA
ATOM     31  C   UNL     1      -3.504  -0.236   4.108  0.00  0.00    +0.094 A 
BRANCH  31  32
ATOM     32  C   UNL     1      -2.053  -0.524   3.991  0.00  0.00    +0.002 A 
ATOM     33  C   UNL     1      -1.562  -1.197   2.874  0.00  0.00    +0.010 A 
ATOM     34  C   UNL     1      -0.211  -1.458   2.768  0.00  0.00    +0.001 A 
ATOM     35  C   UNL     1       0.654  -1.064   3.773  0.00  0.00    +0.000 A 
ATOM     36  C   UNL     1       0.171  -0.400   4.886  0.00  0.00    +0.001 A 
ATOM     37  C   UNL     1      -1.177  -0.129   5.000  0.00  0.00    +0.010 A 
ENDBRANCH  31  32
ENDBRANCH  25  26
ENDBRANCH  11  25
TORSDOF 7
