REMARK  Name = ZINC13750004
REMARK  5 active torsions:
REMARK  status: ('A' for Active; 'I' for Inactive)
REMARK    1  A    between atoms: C_1  and  C_2
REMARK    2  A    between atoms: C_2  and  C_3
REMARK    3  A    between atoms: C_2  and  N_4
REMARK    4  A    between atoms: C_6  and  C_13
REMARK    5  A    between atoms: N_20  and  C_23
REMARK                            x       y       z     vdW  Elec       q    Type
REMARK                         _______ _______ _______ _____ _____    ______ ____
ROOT
ATOM      1  C   UNL     1       3.786  -2.325   0.161  0.00  0.00    +0.028 C 
ATOM      2  C   UNL     1       3.708  -0.944   0.274  0.00  0.00    +0.100 C 
ATOM      3  C   UNL     1       4.889  -0.087   0.070  0.00  0.00    +0.257 C 
ATOM      4  O   UNL     1       5.971  -0.571  -0.206  0.00  0.00    -0.270 OA
ATOM      5  N   UNL     1       4.738   1.248   0.196  0.00  0.00    -0.235 N 
ATOM      6  C   UNL     1       3.552   1.793   0.499  0.00  0.00    +0.320 C 
ATOM      7  O   UNL     1       3.483   3.002   0.598  0.00  0.00    -0.251 OA
ATOM      8  N   UNL     1       2.438   1.075   0.698  0.00  0.00    -0.190 N 
ATOM      9  C   UNL     1       2.441  -0.271   0.609  0.00  0.00    +0.263 C 
ATOM     10  O   UNL     1       1.423  -0.911   0.796  0.00  0.00    -0.269 OA
ATOM     11  H   UNL     1       5.506   1.825   0.065  0.00  0.00    +0.159 HD
ENDROOT
BRANCH   1  14
ATOM     12  N   UNL     1       0.540  -3.814  -0.259  0.00  0.00    -0.344 N 
ATOM     13  C   UNL     1       1.439  -2.848  -0.523  0.00  0.00    +0.095 A 
ATOM     14  C   UNL     1       2.609  -3.102   0.172  0.00  0.00    +0.001 A 
ATOM     15  C   UNL     1       2.377  -4.353   0.921  0.00  0.00    +0.007 A 
ATOM     16  C   UNL     1       1.065  -4.745   0.616  0.00  0.00    +0.050 A 
ATOM     17  C   UNL     1       0.551  -5.905   1.185  0.00  0.00    +0.026 A 
ATOM     18  C   UNL     1       1.328  -6.653   2.045  0.00  0.00    +0.002 A 
ATOM     19  C   UNL     1       2.622  -6.260   2.350  0.00  0.00    +0.001 A 
ATOM     20  C   UNL     1       3.149  -5.112   1.795  0.00  0.00    +0.010 A 
BRANCH  12  22
ATOM     21  C   UNL     1      -1.585  -2.614  -0.414  0.00  0.00    +0.030 C 
ATOM     22  C   UNL     1      -0.811  -3.869  -0.821  0.00  0.00    +0.081 C 
ATOM     23  C   UNL     1      -0.726  -3.943  -2.347  0.00  0.00    +0.030 C 
ENDBRANCH  12  22
ENDBRANCH   1  14
BRANCH   8  24
ATOM     24  C   UNL     1       1.242   1.739   1.011  0.00  0.00    +0.049 A 
ATOM     25  C   UNL     1       0.389   2.148  -0.005  0.00  0.00    +0.028 A 
ATOM     26  C   UNL     1      -0.787   2.806   0.301  0.00  0.00    +0.051 A 
ATOM     27  C   UNL     1      -1.123   3.050   1.623  0.00  0.00    +0.166 A 
ATOM     28  C   UNL     1      -0.269   2.640   2.645  0.00  0.00    +0.168 A 
ATOM     29  C   UNL     1       0.912   1.986   2.336  0.00  0.00    +0.073 A 
ATOM     30  O   UNL     1      -0.817   2.999   3.842  0.00  0.00    -0.453 OA
ATOM     31  C   UNL     1      -2.205   3.266   3.566  0.00  0.00    +0.466 C 
ATOM     32  O   UNL     1      -2.207   3.665   2.182  0.00  0.00    -0.453 OA
ENDBRANCH   8  24
TORSDOF 3
