REMARK  Name = ZINC04941384
REMARK  8 active torsions:
REMARK  status: ('A' for Active; 'I' for Inactive)
REMARK    1  A    between atoms: C_1  and  C_2
REMARK    2  A    between atoms: C_2  and  C_4
REMARK    3  A    between atoms: C_2  and  N_17
REMARK    4  A    between atoms: N_17  and  C_18
REMARK    5  A    between atoms: N_17  and  S_26
REMARK    6  A    between atoms: C_21  and  O_24
REMARK    7  A    between atoms: O_24  and  C_25
REMARK    8  A    between atoms: S_26  and  C_29
REMARK                            x       y       z     vdW  Elec       q    Type
REMARK                         _______ _______ _______ _____ _____    ______ ____
ROOT
ATOM      1  C   UNL     1      -3.913   2.919   0.572  0.00  0.00    +0.040 C 
ATOM      2  C   UNL     1      -3.163   2.966   1.905  0.00  0.00    +0.180 C 
ENDROOT
BRANCH   2   3
ATOM      3  C   UNL     1      -1.968   3.876   1.777  0.00  0.00    +0.242 C 
ATOM      4  O   UNL     1      -2.013   5.002   2.226  0.00  0.00    -0.273 OA
ATOM      5  N   UNL     1      -0.851   3.439   1.164  0.00  0.00    -0.259 N 
ATOM      6  C   UNL     1      -0.770   2.078   0.604  0.00  0.00    +0.209 C 
ATOM      7  C   UNL     1       0.579   1.494   0.936  0.00  0.00    +0.235 C 
ATOM      8  O   UNL     1       0.696   0.293   1.067  0.00  0.00    -0.274 OA
ATOM      9  N   UNL     1       1.657   2.287   1.082  0.00  0.00    -0.283 N 
ATOM     10  C   UNL     1       1.539   3.678   0.985  0.00  0.00    +0.055 A 
ATOM     11  C   UNL     1       0.275   4.267   1.033  0.00  0.00    +0.058 A 
ATOM     12  C   UNL     1       0.144   5.641   0.944  0.00  0.00    +0.025 A 
ATOM     13  C   UNL     1       1.272   6.430   0.804  0.00  0.00    +0.002 A 
ATOM     14  C   UNL     1       2.525   5.849   0.751  0.00  0.00    +0.002 A 
ATOM     15  C   UNL     1       2.663   4.475   0.841  0.00  0.00    +0.025 A 
ATOM     16  H   UNL     1       2.524   1.890   1.257  0.00  0.00    +0.155 HD
ENDBRANCH   2   3
BRANCH   2  17
ATOM     17  N   UNL     1      -4.055   3.475   2.949  0.00  0.00    -0.196 N 
BRANCH  17  18
ATOM     18  C   UNL     1      -4.709   4.700   2.775  0.00  0.00    +0.052 A 
ATOM     19  C   UNL     1      -4.372   5.787   3.572  0.00  0.00    +0.028 A 
ATOM     20  C   UNL     1      -5.013   6.997   3.395  0.00  0.00    +0.047 A 
ATOM     21  C   UNL     1      -6.002   7.124   2.431  0.00  0.00    +0.120 A 
ATOM     22  C   UNL     1      -6.344   6.038   1.639  0.00  0.00    +0.047 A 
ATOM     23  C   UNL     1      -5.699   4.828   1.810  0.00  0.00    +0.028 A 
BRANCH  21  24
ATOM     24  O   UNL     1      -6.637   8.315   2.262  0.00  0.00    -0.495 OA
ATOM     25  C   UNL     1      -6.236   9.391   3.111  0.00  0.00    +0.277 C 
ENDBRANCH  21  24
ENDBRANCH  17  18
BRANCH  17  26
ATOM     26  S   UNL     1      -4.290   2.601   4.336  0.00  0.00    +0.043 S 
ATOM     27  O   UNL     1      -5.511   3.091   4.872  0.00  0.00    -0.155 OA
ATOM     28  O   UNL     1      -4.169   1.243   3.933  0.00  0.00    -0.155 OA
ATOM     29  C   UNL     1      -2.906   3.058   5.415  0.00  0.00    +0.218 C 
ENDBRANCH  17  26
ENDBRANCH   2  17
TORSDOF 5
