REMARK  Name = ZINC63272704
REMARK  7 active torsions:
REMARK  status: ('A' for Active; 'I' for Inactive)
REMARK    1  A    between atoms: C_1  and  C_2
REMARK    2  A    between atoms: C_2  and  C_4
REMARK    3  A    between atoms: C_2  and  S_19
REMARK    4  A    between atoms: N_6  and  C_7
REMARK    5  A    between atoms: C_7  and  C_8
REMARK    6  A    between atoms: C_8  and  C_9
REMARK    7  A    between atoms: S_19  and  C_20
REMARK                            x       y       z     vdW  Elec       q    Type
REMARK                         _______ _______ _______ _____ _____    ______ ____
ROOT
ATOM      1  C   UNL     1      -1.558  -0.924   0.545  0.00  0.00    +0.226 C 
ATOM      2  O   UNL     1      -1.716  -1.439   1.632  0.00  0.00    -0.275 OA
ATOM      3  N   UNL     1      -2.477  -1.101  -0.424  0.00  0.00    -0.314 N 
ATOM      4  H   UNL     1      -2.351  -0.689  -1.294  0.00  0.00    +0.149 HD
ENDROOT
BRANCH   1   6
ATOM      5  C   UNL     1      -0.660   1.387   0.523  0.00  0.00    +0.029 C 
ATOM      6  C   UNL     1      -0.333  -0.088   0.279  0.00  0.00    +0.131 C 
BRANCH   6   7
ATOM      7  S   UNL     1       1.004  -0.603   1.390  0.00  0.00    -0.116 S 
BRANCH   7   8
ATOM      8  C   UNL     1       1.182  -2.379   1.069  0.00  0.00    +0.217 C 
ATOM      9  C   UNL     1       2.571  -2.799   1.484  0.00  0.00    +0.121 C 
ATOM     10  N   UNL     1       3.287  -2.779   2.562  0.00  0.00    -0.234 NA
ATOM     11  C   UNL     1       4.496  -3.313   2.303  0.00  0.00    +0.224 C 
ATOM     12  N   UNL     1       4.597  -3.692   1.054  0.00  0.00    -0.215 NA
ATOM     13  C   UNL     1       3.424  -3.412   0.429  0.00  0.00    +0.180 C 
ATOM     14  N   UNL     1       2.938  -3.553  -0.773  0.00  0.00    -0.215 NA
ATOM     15  C   UNL     1       1.705  -3.176  -1.128  0.00  0.00    +0.219 C 
ATOM     16  N   UNL     1       0.840  -2.630  -0.345  0.00  0.00    -0.252 NA
ENDBRANCH   7   8
ENDBRANCH   6   7
ENDBRANCH   1   6
BRANCH   3  17
ATOM     17  C   UNL     1      -3.668  -1.914  -0.166  0.00  0.00    +0.108 C 
BRANCH  17  18
ATOM     18  C   UNL     1      -4.542  -1.953  -1.421  0.00  0.00    +0.052 C 
BRANCH  18  19
ATOM     19  C   UNL     1      -5.766  -2.790  -1.155  0.00  0.00    -0.040 C 
ATOM     20  C   UNL     1      -6.984  -2.349  -0.765  0.00  0.00    +0.000 A 
ATOM     21  C   UNL     1      -7.512  -1.008  -0.484  0.00  0.00    +0.030 A 
ATOM     22  C   UNL     1      -8.805  -0.879  -0.103  0.00  0.00    +0.042 A 
ATOM     23  C   UNL     1      -9.649  -1.991   0.029  0.00  0.00    +0.022 A 
ATOM     24  C   UNL     1      -9.236  -3.253  -0.213  0.00  0.00    +0.027 A 
ATOM     25  C   UNL     1      -7.896  -3.506  -0.619  0.00  0.00    +0.043 A 
ATOM     26  N   UNL     1      -7.267  -4.619  -0.907  0.00  0.00    -0.380 N 
ATOM     27  C   UNL     1      -5.885  -4.293  -1.275  0.00  0.00    +0.144 C 
ATOM     28 CL   UNL     1      -9.433   0.705   0.231  0.00  0.00    -0.084 Cl
ATOM     29  H   UNL     1      -7.652  -5.509  -0.884  0.00  0.00    +0.160 HD
ENDBRANCH  18  19
ENDBRANCH  17  18
ENDBRANCH   3  17
TORSDOF 6
