REMARK  Name = ZINC39694489
REMARK  7 active torsions:
REMARK  status: ('A' for Active; 'I' for Inactive)
REMARK    1  A    between atoms: N_4  and  C_6
REMARK    2  A    between atoms: C_6  and  C_7
REMARK    3  A    between atoms: C_7  and  N_8
REMARK    4  A    between atoms: C_9  and  C_11
REMARK    5  A    between atoms: C_22  and  C_24
REMARK    6  A    between atoms: C_27  and  O_30
REMARK    7  A    between atoms: O_30  and  C_31
REMARK                            x       y       z     vdW  Elec       q    Type
REMARK                         _______ _______ _______ _____ _____    ______ ____
ROOT
ATOM      1  C   UNL     1       4.607  -5.853  -1.992  0.00  0.00    +0.100 C 
ATOM      2  C   UNL     1       3.239  -6.546  -2.181  0.00  0.00    +0.121 C 
ATOM      3  N   UNL     1       3.130  -6.767  -3.642  0.00  0.00    -0.296 N 
ATOM      4  C   UNL     1       4.497  -7.161  -4.059  0.00  0.00    +0.115 C 
ATOM      5  C   UNL     1       5.430  -6.262  -3.224  0.00  0.00    -0.004 C 
ATOM      6  C   UNL     1       5.828  -5.027  -4.027  0.00  0.00    -0.010 C 
ATOM      7  C   UNL     1       6.693  -5.454  -5.216  0.00  0.00    -0.082 C 
ATOM      8  N   UNL     1       7.890  -6.151  -4.728  0.00  0.00    +0.379 N 
ATOM      9  C   UNL     1       7.502  -7.386  -4.036  0.00  0.00    -0.082 C 
ATOM     10  C   UNL     1       6.671  -7.041  -2.797  0.00  0.00    -0.010 C 
ATOM     11  C   UNL     1       2.035  -6.638  -4.417  0.00  0.00    +0.247 C 
ATOM     12  O   UNL     1       1.009  -6.183  -3.950  0.00  0.00    -0.270 OA
ATOM     13  H   UNL     1       8.488  -6.377  -5.508  0.00  0.00    -0.086 HD
ATOM     14  H   UNL     1       8.389  -5.551  -4.088  0.00  0.00    -0.086 HD
ENDROOT
BRANCH  11  15
ATOM     15  C   UNL     1       2.081  -7.049  -5.834  0.00  0.00    +0.037 A 
ATOM     16  C   UNL     1       3.055  -7.951  -6.270  0.00  0.00    +0.016 A 
ATOM     17  C   UNL     1       3.095  -8.332  -7.593  0.00  0.00    +0.047 A 
ATOM     18  C   UNL     1       2.167  -7.822  -8.493  0.00  0.00    +0.130 A 
ATOM     19  C   UNL     1       1.196  -6.926  -8.063  0.00  0.00    +0.047 A 
ATOM     20  C   UNL     1       1.147  -6.543  -6.741  0.00  0.00    +0.016 A 
BRANCH  18  21
ATOM     21  O   UNL     1       2.210  -8.200  -9.796  0.00  0.00    -0.406 OA
BRANCH  21  22
ATOM     22  C   UNL     1       1.227  -7.638 -10.667  0.00  0.00    +0.575 C 
ATOM     23  F   UNL     1       1.354  -6.245 -10.676  0.00  0.00    -0.133 F 
ATOM     24  F   UNL     1       1.415  -8.131 -11.963  0.00  0.00    -0.133 F 
ATOM     25  F   UNL     1      -0.051  -7.987 -10.216  0.00  0.00    -0.133 F 
ENDBRANCH  21  22
ENDBRANCH  18  21
ENDBRANCH  11  15
BRANCH   1  27
ATOM     26  N   UNL     1       5.359  -3.590  -1.335  0.00  0.00    -0.313 N 
ATOM     27  C   UNL     1       4.435  -4.357  -1.948  0.00  0.00    +0.218 C 
ATOM     28  O   UNL     1       3.466  -3.842  -2.464  0.00  0.00    -0.275 OA
ATOM     29  H   UNL     1       6.134  -4.001  -0.922  0.00  0.00    +0.149 HD
BRANCH  26  30
ATOM     30  C   UNL     1       5.191  -2.135  -1.292  0.00  0.00    +0.127 C 
BRANCH  30  31
ATOM     31  C   UNL     1       6.370  -1.508  -0.544  0.00  0.00    +0.162 C 
BRANCH  31  35
ATOM     32  C   UNL     1       6.018   1.998   0.223  0.00  0.00    +0.041 A 
ATOM     33  C   UNL     1       5.907   2.017  -1.171  0.00  0.00    +0.134 A 
ATOM     34  N   UNL     1       6.018   0.788  -1.607  0.00  0.00    -0.180 NA
ATOM     35  N   UNL     1       6.203  -0.053  -0.502  0.00  0.00    -0.270 N 
ATOM     36  C   UNL     1       6.199   0.713   0.609  0.00  0.00    +0.108 A 
ENDBRANCH  31  35
ENDBRANCH  30  31
ENDBRANCH  26  30
ENDBRANCH   1  27
TORSDOF 7
