REMARK  Name = ZINC12428381
REMARK  3 active torsions:
REMARK  status: ('A' for Active; 'I' for Inactive)
REMARK    1  A    between atoms: C_4  and  C_8
REMARK    2  A    between atoms: N_18  and  C_19
REMARK    3  A    between atoms: C_19  and  C_20
REMARK                            x       y       z     vdW  Elec       q    Type
REMARK                         _______ _______ _______ _____ _____    ______ ____
ROOT
ATOM      1  C   UNL     1      -0.734   1.584  -1.248  0.00  0.00    +0.067 C 
ATOM      2  C   UNL     1      -0.013   1.086   0.008  0.00  0.00    +0.109 C 
ATOM      3  C   UNL     1      -0.697   1.561   1.258  0.00  0.00    +0.219 C 
ATOM      4  O   UNL     1      -0.019   1.859   2.218  0.00  0.00    -0.275 OA
ATOM      5  N   UNL     1      -2.038   1.666   1.351  0.00  0.00    -0.270 N 
ATOM      6  C   UNL     1      -2.794   1.451   0.199  0.00  0.00    +0.127 A 
ATOM      7  C   UNL     1      -2.217   1.409  -1.044  0.00  0.00    +0.020 A 
ATOM      8  C   UNL     1      -3.222   1.189  -1.974  0.00  0.00    +0.140 A 
ATOM      9  N   UNL     1      -4.362   1.099  -1.330  0.00  0.00    -0.177 NA
ATOM     10  N   UNL     1      -4.112   1.261   0.043  0.00  0.00    -0.246 N 
ATOM     11  H   UNL     1      -2.465   1.885   2.195  0.00  0.00    +0.156 HD
ENDROOT
BRANCH   1  15
ATOM     12  C   UNL     1       0.156   5.716  -1.877  0.00  0.00    +0.004 A 
ATOM     13  C   UNL     1      -0.464   5.314  -0.709  0.00  0.00    +0.039 A 
ATOM     14  C   UNL     1      -0.758   3.977  -0.506  0.00  0.00    +0.129 A 
ATOM     15  C   UNL     1      -0.420   3.041  -1.470  0.00  0.00    +0.014 A 
ATOM     16  C   UNL     1       0.200   3.445  -2.638  0.00  0.00    +0.047 A 
ATOM     17  C   UNL     1       0.488   4.783  -2.841  0.00  0.00    +0.020 A 
ATOM     18 CL   UNL     1       0.618   2.273  -3.849  0.00  0.00    -0.083 Cl
ATOM     19  F   UNL     1      -1.370   3.584   0.632  0.00  0.00    -0.205 F 
ENDBRANCH   1  15
BRANCH  10  20
ATOM     20  C   UNL     1      -5.112   1.226   1.113  0.00  0.00    +0.180 C 
BRANCH  20  21
ATOM     21  C   UNL     1      -5.267  -0.188   1.610  0.00  0.00    -0.022 A 
ATOM     22  C   UNL     1      -6.204  -1.024   1.030  0.00  0.00    +0.009 A 
ATOM     23  C   UNL     1      -6.347  -2.323   1.480  0.00  0.00    +0.050 A 
ATOM     24  C   UNL     1      -5.558  -2.788   2.520  0.00  0.00    +0.166 A 
ATOM     25  C   UNL     1      -4.619  -1.944   3.107  0.00  0.00    +0.167 A 
ATOM     26  C   UNL     1      -4.477  -0.644   2.648  0.00  0.00    +0.055 A 
ATOM     27  O   UNL     1      -3.977  -2.629   4.099  0.00  0.00    -0.453 OA
ATOM     28  C   UNL     1      -4.246  -4.020   3.841  0.00  0.00    +0.466 C 
ATOM     29  O   UNL     1      -5.505  -4.001   3.143  0.00  0.00    -0.453 OA
ENDBRANCH  20  21
ENDBRANCH  10  20
TORSDOF 3
