REMARK  Name = ZINC20131082
REMARK  4 active torsions:
REMARK  status: ('A' for Active; 'I' for Inactive)
REMARK    1  A    between atoms: C_4  and  C_7
REMARK    2  A    between atoms: C_7  and  N_8
REMARK    3  A    between atoms: C_18  and  C_23
REMARK    4  A    between atoms: C_28  and  O_29
REMARK                            x       y       z     vdW  Elec       q    Type
REMARK                         _______ _______ _______ _____ _____    ______ ____
ROOT
ATOM      1  N   UNL     1       4.153  -0.953   1.342  0.00  0.00    -0.293 NA
ATOM      2  C   UNL     1       5.531  -1.463   1.370  0.00  0.00    +0.090 C 
ATOM      3  C   UNL     1       6.102  -1.356   2.787  0.00  0.00    +0.052 C 
ATOM      4  C   UNL     1       5.116  -2.014   3.749  0.00  0.00    -0.022 A 
ATOM      5  C   UNL     1       3.839  -2.230   3.359  0.00  0.00    +0.010 A 
ATOM      6  S   UNL     1       3.060  -2.997   4.752  0.00  0.00    -0.072 S 
ATOM      7  C   UNL     1       4.452  -3.026   5.853  0.00  0.00    +0.114 A 
ATOM      8  C   UNL     1       5.479  -2.436   5.096  0.00  0.00    +0.055 A 
ATOM      9  C   UNL     1       6.780  -2.331   5.786  0.00  0.00    +0.168 A 
ATOM     10  N   UNL     1       7.956  -1.855   5.431  0.00  0.00    -0.206 NA
ATOM     11  C   UNL     1       8.820  -2.002   6.440  0.00  0.00    +0.186 A 
ATOM     12  N   UNL     1       8.208  -2.576   7.458  0.00  0.00    -0.143 NA
ATOM     13  N   UNL     1       6.881  -2.802   7.064  0.00  0.00    -0.201 N 
ATOM     14  C   UNL     1       5.805  -3.354   7.688  0.00  0.00    +0.226 A 
ATOM     15  N   UNL     1       4.648  -3.454   7.094  0.00  0.00    -0.228 NA
ATOM     16  C   UNL     1       3.240  -1.883   2.031  0.00  0.00    +0.127 C 
ENDROOT
BRANCH  11  17
ATOM     17  C   UNL     1      10.244  -1.586   6.419  0.00  0.00    +0.062 A 
ATOM     18  C   UNL     1      10.779  -0.982   5.283  0.00  0.00    +0.015 A 
ATOM     19  C   UNL     1      12.104  -0.597   5.269  0.00  0.00    +0.001 A 
ATOM     20  C   UNL     1      12.904  -0.807   6.378  0.00  0.00    +0.004 A 
ATOM     21  C   UNL     1      12.383  -1.406   7.510  0.00  0.00    +0.046 A 
ATOM     22  C   UNL     1      11.053  -1.793   7.540  0.00  0.00    +0.128 A 
BRANCH  22  23
ATOM     23  O   UNL     1      10.538  -2.376   8.654  0.00  0.00    -0.506 OA
ATOM     24  H   UNL     1      10.617  -3.340   8.665  0.00  0.00    +0.292 HD
ENDBRANCH  22  23
ENDBRANCH  11  17
BRANCH   1  25
ATOM     25  C   UNL     1       3.711  -0.707  -0.038  0.00  0.00    +0.120 C 
BRANCH  25  29
ATOM     26  C   UNL     1      -0.017   1.378   0.010  0.00  0.00    +0.000 A 
ATOM     27  C   UNL     1       1.171   2.086   0.002  0.00  0.00    +0.000 A 
ATOM     28  C   UNL     1       2.377   1.411  -0.013  0.00  0.00    +0.005 A 
ATOM     29  C   UNL     1       2.396   0.029  -0.020  0.00  0.00    -0.033 A 
ATOM     30  C   UNL     1       1.208  -0.679  -0.012  0.00  0.00    +0.005 A 
ATOM     31  C   UNL     1       0.002  -0.004   0.002  0.00  0.00    +0.000 A 
ENDBRANCH  25  29
ENDBRANCH   1  25
TORSDOF 4
