REMARK  Name = ZINC44792927
REMARK  12 active torsions:
REMARK  status: ('A' for Active; 'I' for Inactive)
REMARK    1  A    between atoms: C_1  and  C_2
REMARK    2  A    between atoms: C_2  and  C_3
REMARK    3  A    between atoms: C_3  and  C_5
REMARK    4  A    between atoms: C_3  and  N_6
REMARK    5  A    between atoms: C_7  and  S_9
REMARK    6  A    between atoms: S_9  and  C_10
REMARK    7  A    between atoms: C_10  and  C_11
REMARK    8  A    between atoms: C_12  and  C_24
REMARK    9  A    between atoms: C_13  and  C_19
REMARK   10  A    between atoms: C_24  and  O_26
REMARK   11  A    between atoms: O_26  and  C_27
REMARK   12  A    between atoms: C_27  and  C_28
REMARK                            x       y       z     vdW  Elec       q    Type
REMARK                         _______ _______ _______ _____ _____    ______ ____
ROOT
ATOM      1  C   UNL     1      -6.824   0.755   3.617  0.00  0.00    +0.034 C 
ATOM      2  C   UNL     1      -7.170   2.046   3.810  0.00  0.00    +0.082 C 
ATOM      3  C   UNL     1      -7.847   2.406   5.117  0.00  0.00    +0.179 C 
ATOM      4  N   UNL     1      -8.072   1.312   6.076  0.00  0.00    -0.285 N 
ATOM      5  C   UNL     1      -7.669   0.071   5.739  0.00  0.00    +0.304 C 
ATOM      6  O   UNL     1      -7.850  -0.840   6.524  0.00  0.00    -0.252 OA
ATOM      7  N   UNL     1      -7.080  -0.193   4.566  0.00  0.00    -0.272 N 
ATOM      8  H   UNL     1      -8.500   1.480   6.930  0.00  0.00    +0.151 HD
ATOM      9  H   UNL     1      -6.816  -1.108   4.382  0.00  0.00    +0.156 HD
ENDROOT
BRANCH   3  10
ATOM     10  C   UNL     1      -9.184   3.022   4.794  0.00  0.00    +0.130 A 
ATOM     11  C   UNL     1      -9.459   4.338   4.773  0.00  0.00    +0.047 A 
ATOM     12  C   UNL     1     -10.823   4.466   4.424  0.00  0.00    +0.041 A 
ATOM     13  C   UNL     1     -11.300   3.220   4.253  0.00  0.00    +0.195 A 
ATOM     14  O   UNL     1     -10.301   2.349   4.473  0.00  0.00    -0.466 OA
ENDBRANCH   3  10
BRANCH   2  15
ATOM     15  C   UNL     1      -6.911   3.028   2.826  0.00  0.00    +0.339 C 
ATOM     16  O   UNL     1      -5.957   3.773   2.947  0.00  0.00    -0.245 OA
BRANCH  15  17
ATOM     17  O   UNL     1      -7.721   3.138   1.753  0.00  0.00    -0.462 OA
BRANCH  17  18
ATOM     18  C   UNL     1      -7.399   4.152   0.798  0.00  0.00    +0.229 C 
ATOM     19  C   UNL     1      -8.422   4.125  -0.339  0.00  0.00    +0.048 C 
ENDBRANCH  17  18
ENDBRANCH  15  17
ENDBRANCH   2  15
BRANCH   1  20
ATOM     20  C   UNL     1      -6.149   0.353   2.331  0.00  0.00    +0.128 C 
BRANCH  20  21
ATOM     21  S   UNL     1      -4.381   0.078   2.636  0.00  0.00    -0.087 S 
BRANCH  21  23
ATOM     22  N   UNL     1      -2.475  -0.651   0.923  0.00  0.00    -0.366 N 
ATOM     23  C   UNL     1      -3.743  -0.378   1.059  0.00  0.00    +0.126 C 
ATOM     24  N   UNL     1      -4.582  -0.447  -0.029  0.00  0.00    -0.339 N 
ATOM     25  H   UNL     1      -4.230  -0.699  -0.898  0.00  0.00    +0.144 HD
ATOM     26  H   UNL     1      -5.525  -0.245   0.072  0.00  0.00    +0.144 HD
ATOM     27  H   UNL     1      -1.883  -0.602   1.690  0.00  0.00    +0.162 HD
BRANCH  22  28
ATOM     28  C   UNL     1      -1.944  -1.030  -0.389  0.00  0.00    +0.078 C 
ATOM     29  C   UNL     1      -2.139  -2.533  -0.603  0.00  0.00    +0.030 C 
BRANCH  28  31
ATOM     30  C   UNL     1      -0.265   0.820  -0.362  0.00  0.00    +0.006 C 
ATOM     31  C   UNL     1      -0.452  -0.696  -0.451  0.00  0.00    +0.021 C 
ENDBRANCH  28  31
ENDBRANCH  22  28
ENDBRANCH  21  23
ENDBRANCH  20  21
ENDBRANCH   1  20
TORSDOF 9
