REMARK  Name = ZINC14657632
REMARK  6 active torsions:
REMARK  status: ('A' for Active; 'I' for Inactive)
REMARK    1  A    between atoms: C_1  and  C_2
REMARK    2  A    between atoms: N_11  and  C_15
REMARK    3  A    between atoms: C_15  and  C_16
REMARK    4  A    between atoms: C_21  and  C_27
REMARK    5  A    between atoms: C_22  and  C_24
REMARK    6  A    between atoms: C_24  and  C_26
REMARK                            x       y       z     vdW  Elec       q    Type
REMARK                         _______ _______ _______ _____ _____    ______ ____
ROOT
ATOM      1  C   UNL     1      -2.609   0.648   5.460  0.00  0.00    +0.237 C 
ATOM      2  O   UNL     1      -1.417   0.463   5.341  0.00  0.00    -0.274 OA
ATOM      3  N   UNL     1      -3.168   0.682   6.686  0.00  0.00    -0.263 N 
ATOM      4  C   UNL     1      -2.381   0.506   7.809  0.00  0.00    +0.166 A 
ATOM      5  N   UNL     1      -2.747   0.507   9.079  0.00  0.00    -0.224 NA
ATOM      6  C   UNL     1      -1.878   0.324  10.047  0.00  0.00    +0.091 A 
ATOM      7  C   UNL     1      -0.537   0.127   9.677  0.00  0.00    +0.083 A 
ATOM      8  S   UNL     1      -0.671   0.221   7.898  0.00  0.00    -0.049 S 
ATOM      9  H   UNL     1      -4.122   0.831   6.780  0.00  0.00    +0.157 HD
ENDROOT
BRANCH   6  10
ATOM     10  C   UNL     1      -2.294   0.327  11.468  0.00  0.00    +0.002 A 
ATOM     11  C   UNL     1      -3.431  -0.376  11.867  0.00  0.00    +0.010 A 
ATOM     12  C   UNL     1      -3.810  -0.374  13.193  0.00  0.00    +0.001 A 
ATOM     13  C   UNL     1      -3.072   0.332  14.126  0.00  0.00    +0.000 A 
ATOM     14  C   UNL     1      -1.946   1.036  13.736  0.00  0.00    +0.001 A 
ATOM     15  C   UNL     1      -1.553   1.037  12.414  0.00  0.00    +0.010 A 
ENDBRANCH   6  10
BRANCH   7  16
ATOM     16  C   UNL     1       0.595  -0.090  10.482  0.00  0.00    +0.169 C 
ATOM     17  O   UNL     1       0.467  -0.242  11.681  0.00  0.00    -0.292 OA
ATOM     18  C   UNL     1       1.966  -0.136   9.858  0.00  0.00    +0.092 C 
ENDBRANCH   7  16
BRANCH   1  19
ATOM     19  C   UNL     1      -3.467   0.841   4.235  0.00  0.00    +0.214 C 
BRANCH  19  29
ATOM     20  C   UNL     1       0.718   0.839   2.703  0.00  0.00    +0.010 C 
ATOM     21  C   UNL     1       0.220   1.502   1.417  0.00  0.00    +0.018 C 
ATOM     22  C   UNL     1       0.953   0.901   0.215  0.00  0.00    +0.006 C 
ATOM     23  C   UNL     1       0.440   1.551  -1.071  0.00  0.00    +0.000 C 
ATOM     24  C   UNL     1      -1.060   1.287  -1.215  0.00  0.00    +0.003 C 
ATOM     25  C   UNL     1      -1.801   1.890  -0.019  0.00  0.00    +0.035 C 
ATOM     26  C   UNL     1      -1.279   1.265   1.271  0.00  0.00    +0.115 C 
ATOM     27  C   UNL     1      -2.021   1.821   2.464  0.00  0.00    +0.247 C 
ATOM     28  O   UNL     1      -2.060   2.976   2.831  0.00  0.00    -0.273 OA
ATOM     29  N   UNL     1      -2.630   0.761   3.035  0.00  0.00    -0.215 N 
ATOM     30  C   UNL     1      -2.374  -0.372   2.370  0.00  0.00    +0.310 C 
ATOM     31  O   UNL     1      -2.812  -1.459   2.693  0.00  0.00    -0.252 OA
ATOM     32  N   UNL     1      -1.578  -0.172   1.303  0.00  0.00    -0.285 N 
ATOM     33  H   UNL     1      -1.263  -0.845   0.679  0.00  0.00    +0.151 HD
ENDBRANCH  19  29
ENDBRANCH   1  19
TORSDOF 4
