REMARK  Name = ZINC14188273
REMARK  5 active torsions:
REMARK  status: ('A' for Active; 'I' for Inactive)
REMARK    1  A    between atoms: N_11  and  C_12
REMARK    2  A    between atoms: C_18  and  C_20
REMARK    3  A    between atoms: C_20  and  O_21
REMARK    4  A    between atoms: O_21  and  C_22
REMARK    5  A    between atoms: C_27  and  O_28
REMARK                            x       y       z     vdW  Elec       q    Type
REMARK                         _______ _______ _______ _____ _____    ______ ____
ROOT
ATOM      1  C   UNL     1       8.391   2.888  -1.136  0.00  0.00    +0.095 C 
ATOM      2  C   UNL     1       8.081   1.393  -1.237  0.00  0.00    +0.044 C 
ATOM      3  C   UNL     1       7.188   0.980  -0.063  0.00  0.00    +0.110 C 
ATOM      4  N   UNL     1       5.999   1.843  -0.046  0.00  0.00    -0.299 N 
ATOM      5  C   UNL     1       6.184   3.300  -0.046  0.00  0.00    +0.110 C 
ATOM      6  C   UNL     1       7.088   3.687  -1.215  0.00  0.00    +0.044 C 
ATOM      7  C   UNL     1       4.762   1.308  -0.037  0.00  0.00    +0.253 C 
ATOM      8  O   UNL     1       4.623   0.103  -0.043  0.00  0.00    -0.272 OA
ENDROOT
BRANCH   1  19
ATOM      9  C   UNL     1      13.060   4.923  -2.497  0.00  0.00    +0.002 A 
ATOM     10  C   UNL     1      12.585   4.707  -1.214  0.00  0.00    +0.002 A 
ATOM     11  C   UNL     1      11.332   4.161  -1.018  0.00  0.00    +0.028 A 
ATOM     12  C   UNL     1      10.544   3.830  -2.110  0.00  0.00    +0.070 A 
ATOM     13  C   UNL     1      11.023   4.048  -3.404  0.00  0.00    +0.067 A 
ATOM     14  C   UNL     1      12.283   4.596  -3.591  0.00  0.00    +0.028 A 
ATOM     15  N   UNL     1      10.025   3.624  -4.279  0.00  0.00    -0.306 N 
ATOM     16  H   UNL     1      10.070   3.652  -5.247  0.00  0.00    +0.170 HD
ATOM     17  C   UNL     1       8.990   3.164  -3.551  0.00  0.00    +0.328 A 
ATOM     18  O   UNL     1       7.956   2.715  -4.009  0.00  0.00    -0.247 OA
ATOM     19  N   UNL     1       9.271   3.280  -2.239  0.00  0.00    -0.289 N 
ENDBRANCH   1  19
BRANCH   7  20
ATOM     20  C   UNL     1       3.552   2.206  -0.021  0.00  0.00    +0.324 C 
BRANCH  20  21
ATOM     21  O   UNL     1       2.367   1.409  -0.013  0.00  0.00    -0.479 OA
BRANCH  21  22
ATOM     22  C   UNL     1       1.178   2.069   0.002  0.00  0.00    +0.162 A 
ATOM     23  C   UNL     1       1.154   3.455   0.010  0.00  0.00    +0.049 A 
ATOM     24  C   UNL     1      -0.055   4.125   0.025  0.00  0.00    +0.004 A 
ATOM     25  C   UNL     1      -1.242   3.416   0.032  0.00  0.00    +0.004 A 
ATOM     26  C   UNL     1      -1.225   2.034   0.019  0.00  0.00    +0.049 A 
ATOM     27  C   UNL     1      -0.016   1.356   0.009  0.00  0.00    +0.158 A 
BRANCH  27  28
ATOM     28  O   UNL     1       0.002  -0.004   0.002  0.00  0.00    -0.503 OA
ATOM     29  H   UNL     1       0.016  -0.402   0.883  0.00  0.00    +0.292 HD
ENDBRANCH  27  28
ENDBRANCH  21  22
ENDBRANCH  20  21
ENDBRANCH   7  20
TORSDOF 5
