REMARK  Name = ZINC06221121
REMARK  2 active torsions:
REMARK  status: ('A' for Active; 'I' for Inactive)
REMARK    1  A    between atoms: C_6  and  C_7
REMARK    2  A    between atoms: C_12  and  C_15
REMARK                            x       y       z     vdW  Elec       q    Type
REMARK                         _______ _______ _______ _____ _____    ______ ____
ROOT
ATOM      1  C   UNL     1      -1.280  -0.789  -0.387  0.00  0.00    +0.092 C 
ATOM      2  N   UNL     1      -1.240  -2.063  -0.095  0.00  0.00    -0.339 N 
ATOM      3  C   UNL     1      -0.062  -2.723  -0.111  0.00  0.00    +0.187 C 
ATOM      4  N   UNL     1       1.042  -2.070   0.083  0.00  0.00    -0.157 NA
ATOM      5  N   UNL     1       2.297  -2.663   0.089  0.00  0.00    -0.234 N 
ATOM      6  C   UNL     1       2.587  -3.894  -0.511  0.00  0.00    +0.062 C 
ATOM      7  C   UNL     1       1.644  -4.798  -0.785  0.00  0.00    +0.074 C 
ATOM      8  S   UNL     1      -0.042  -4.463  -0.386  0.00  0.00    -0.056 S 
ATOM      9  H   UNL     1       3.019  -2.195   0.538  0.00  0.00    +0.174 HD
ATOM     10  H   UNL     1      -2.057  -2.534   0.132  0.00  0.00    +0.167 HD
ENDROOT
BRANCH   1  16
ATOM     11  C   UNL     1       0.544  -1.057  -2.056  0.00  0.00    +0.012 A 
ATOM     12  C   UNL     1       1.465  -0.514  -2.925  0.00  0.00    +0.039 A 
ATOM     13  C   UNL     1       1.562   0.863  -3.067  0.00  0.00    +0.123 A 
ATOM     14  C   UNL     1       0.734   1.701  -2.335  0.00  0.00    +0.039 A 
ATOM     15  C   UNL     1      -0.191   1.172  -1.463  0.00  0.00    +0.012 A 
ATOM     16  C   UNL     1      -0.295  -0.216  -1.315  0.00  0.00    -0.009 A 
ATOM     17  F   UNL     1       2.468   1.389  -3.920  0.00  0.00    -0.205 F 
ENDBRANCH   1  16
BRANCH   6  18
ATOM     18  C   UNL     1       3.989  -4.205  -0.855  0.00  0.00    -0.002 A 
ATOM     19  C   UNL     1       5.000  -3.282  -0.576  0.00  0.00    +0.011 A 
ATOM     20  C   UNL     1       6.308  -3.578  -0.899  0.00  0.00    +0.020 A 
ATOM     21  C   UNL     1       6.620  -4.787  -1.498  0.00  0.00    +0.041 A 
ATOM     22  C   UNL     1       5.622  -5.706  -1.778  0.00  0.00    +0.020 A 
ATOM     23  C   UNL     1       4.311  -5.424  -1.455  0.00  0.00    +0.011 A 
ATOM     24 CL   UNL     1       8.268  -5.152  -1.902  0.00  0.00    -0.084 Cl
ENDBRANCH   6  18
TORSDOF 2
