REMARK  Name = ZINC01101677
REMARK  6 active torsions:
REMARK  status: ('A' for Active; 'I' for Inactive)
REMARK    1  A    between atoms: C_1  and  C_2
REMARK    2  A    between atoms: C_2  and  C_3
REMARK    3  A    between atoms: C_2  and  N_4
REMARK    4  A    between atoms: C_6  and  C_13
REMARK    5  A    between atoms: N_20  and  C_23
REMARK    6  A    between atoms: C_26  and  C_29
REMARK                            x       y       z     vdW  Elec       q    Type
REMARK                         _______ _______ _______ _____ _____    ______ ____
ROOT
ATOM      1  C   UNL     1      -8.499  -2.378   0.273  0.00  0.00    +0.028 C 
ATOM      2  C   UNL     1      -7.372  -3.002  -0.245  0.00  0.00    +0.100 C 
ATOM      3  C   UNL     1      -7.163  -4.454  -0.104  0.00  0.00    +0.255 C 
ATOM      4  O   UNL     1      -7.979  -5.149   0.472  0.00  0.00    -0.270 OA
ATOM      5  N   UNL     1      -6.044  -4.991  -0.632  0.00  0.00    -0.263 N 
ATOM      6  C   UNL     1      -5.141  -4.237  -1.275  0.00  0.00    +0.150 C 
ATOM      7  S   UNL     1      -3.754  -5.007  -1.920  0.00  0.00    -0.018 S 
ATOM      8  N   UNL     1      -5.264  -2.912  -1.435  0.00  0.00    -0.217 N 
ATOM      9  C   UNL     1      -6.332  -2.240  -0.959  0.00  0.00    +0.262 C 
ATOM     10  O   UNL     1      -6.434  -1.038  -1.114  0.00  0.00    -0.269 OA
ATOM     11  H   UNL     1      -5.892  -5.945  -0.548  0.00  0.00    +0.157 HD
ENDROOT
BRANCH   1  14
ATOM     12  N   UNL     1      -8.049   1.179   0.539  0.00  0.00    -0.344 N 
ATOM     13  C   UNL     1      -7.593  -0.081   0.663  0.00  0.00    +0.095 A 
ATOM     14  C   UNL     1      -8.584  -0.971   0.284  0.00  0.00    +0.001 A 
ATOM     15  C   UNL     1      -9.745  -0.148  -0.111  0.00  0.00    +0.007 A 
ATOM     16  C   UNL     1      -9.350   1.186   0.076  0.00  0.00    +0.050 A 
ATOM     17  C   UNL     1     -10.247   2.208  -0.214  0.00  0.00    +0.026 A 
ATOM     18  C   UNL     1     -11.511   1.905  -0.674  0.00  0.00    +0.002 A 
ATOM     19  C   UNL     1     -11.900   0.586  -0.852  0.00  0.00    +0.001 A 
ATOM     20  C   UNL     1     -11.024  -0.441  -0.570  0.00  0.00    +0.010 A 
BRANCH  12  22
ATOM     21  C   UNL     1      -6.857   2.350   2.325  0.00  0.00    +0.030 C 
ATOM     22  C   UNL     1      -7.271   2.380   0.852  0.00  0.00    +0.081 C 
ATOM     23  C   UNL     1      -6.019   2.421  -0.028  0.00  0.00    +0.030 C 
ENDBRANCH  12  22
ENDBRANCH   1  14
BRANCH   8  24
ATOM     24  C   UNL     1      -4.265  -2.212  -2.115  0.00  0.00    +0.043 A 
ATOM     25  C   UNL     1      -2.994  -2.101  -1.559  0.00  0.00    +0.025 A 
ATOM     26  C   UNL     1      -2.007  -1.411  -2.227  0.00  0.00    +0.017 A 
ATOM     27  C   UNL     1      -2.283  -0.822  -3.464  0.00  0.00    +0.063 A 
ATOM     28  C   UNL     1      -3.563  -0.931  -4.017  0.00  0.00    +0.017 A 
ATOM     29  C   UNL     1      -4.543  -1.628  -3.346  0.00  0.00    +0.025 A 
BRANCH  27  30
ATOM     30  C   UNL     1      -1.229  -0.083  -4.182  0.00  0.00    +0.387 C 
ATOM     31  O   UNL     1      -0.118   0.015  -3.699  0.00  0.00    -0.241 OA
ATOM     32  O   UNL     1      -1.496   0.484  -5.375  0.00  0.00    -0.241 OA
ENDBRANCH  27  30
ENDBRANCH   8  24
TORSDOF 4
