REMARK  Name = ZINC14625610
REMARK  6 active torsions:
REMARK  status: ('A' for Active; 'I' for Inactive)
REMARK    1  A    between atoms: C_4  and  C_7
REMARK    2  A    between atoms: N_11  and  C_15
REMARK    3  A    between atoms: C_15  and  C_16
REMARK    4  A    between atoms: C_16  and  N_17
REMARK    5  A    between atoms: C_18  and  C_20
REMARK    6  A    between atoms: C_20  and  C_21
REMARK                            x       y       z     vdW  Elec       q    Type
REMARK                         _______ _______ _______ _____ _____    ______ ____
ROOT
ATOM      1  N   UNL     1       0.646   0.509   0.671  0.00  0.00    -0.313 N 
ATOM      2  C   UNL     1       0.777  -0.797   0.977  0.00  0.00    +0.219 C 
ATOM      3  O   UNL     1       1.875  -1.261   1.198  0.00  0.00    -0.275 OA
ATOM      4  H   UNL     1      -0.232   0.879   0.490  0.00  0.00    +0.149 HD
ENDROOT
BRANCH   1   5
ATOM      5  C   UNL     1       1.831   1.369   0.608  0.00  0.00    +0.123 C 
BRANCH   5   6
ATOM      6  C   UNL     1       1.408   2.793   0.244  0.00  0.00    +0.136 C 
BRANCH   6  11
ATOM      7  C   UNL     1       4.829   5.885   2.076  0.00  0.00    +0.028 C 
ATOM      8  C   UNL     1       4.196   5.133   1.142  0.00  0.00    +0.080 C 
ATOM      9  C   UNL     1       2.991   4.285   1.272  0.00  0.00    +0.260 C 
ATOM     10  O   UNL     1       2.400   4.173   2.329  0.00  0.00    -0.269 OA
ATOM     11  N   UNL     1       2.593   3.653   0.181  0.00  0.00    -0.227 N 
ATOM     12  C   UNL     1       3.248   3.785  -0.990  0.00  0.00    +0.286 C 
ATOM     13  O   UNL     1       2.991   3.271  -2.062  0.00  0.00    -0.262 OA
ATOM     14  S   UNL     1       4.585   4.899  -0.587  0.00  0.00    -0.026 S 
BRANCH   7  18
ATOM     15  C   UNL     1       8.534   7.731   1.158  0.00  0.00    +0.000 A 
ATOM     16  C   UNL     1       7.888   8.036   2.343  0.00  0.00    +0.001 A 
ATOM     17  C   UNL     1       6.683   7.440   2.649  0.00  0.00    +0.008 A 
ATOM     18  C   UNL     1       6.113   6.525   1.758  0.00  0.00    -0.024 A 
ATOM     19  C   UNL     1       6.776   6.217   0.564  0.00  0.00    +0.008 A 
ATOM     20  C   UNL     1       7.977   6.826   0.270  0.00  0.00    +0.001 A 
ENDBRANCH   7  18
ENDBRANCH   6  11
ENDBRANCH   5   6
ENDBRANCH   1   5
BRANCH   2  21
ATOM     21  C   UNL     1      -0.442  -1.681   1.042  0.00  0.00    +0.153 C 
BRANCH  21  22
ATOM     22  C   UNL     1      -0.026  -3.085   1.400  0.00  0.00    +0.078 A 
ATOM     23  C   UNL     1      -1.034  -4.137   1.526  0.00  0.00    +0.011 A 
ATOM     24  C   UNL     1      -2.392  -3.884   1.323  0.00  0.00    +0.010 A 
ATOM     25  C   UNL     1      -3.297  -4.901   1.452  0.00  0.00    +0.001 A 
ATOM     26  C   UNL     1      -2.884  -6.186   1.782  0.00  0.00    +0.001 A 
ATOM     27  C   UNL     1      -1.551  -6.465   1.988  0.00  0.00    +0.014 A 
ATOM     28  C   UNL     1      -0.610  -5.443   1.862  0.00  0.00    +0.050 A 
ATOM     29  C   UNL     1       0.825  -5.676   2.068  0.00  0.00    +0.272 A 
ATOM     30  O   UNL     1       1.238  -6.784   2.359  0.00  0.00    -0.266 OA
ATOM     31  N   UNL     1       1.677  -4.639   1.929  0.00  0.00    -0.242 N 
ATOM     32  H   UNL     1       2.626  -4.787   2.064  0.00  0.00    +0.192 HD
ATOM     33  N   UNL     1       1.230  -3.361   1.591  0.00  0.00    -0.175 NA
ENDBRANCH  21  22
ENDBRANCH   2  21
TORSDOF 6
