REMARK  Name = ZINC13475471
REMARK  8 active torsions:
REMARK  status: ('A' for Active; 'I' for Inactive)
REMARK    1  A    between atoms: C_1  and  N_2
REMARK    2  A    between atoms: N_2  and  C_3
REMARK    3  A    between atoms: N_2  and  C_11
REMARK    4  A    between atoms: C_3  and  C_4
REMARK    5  A    between atoms: C_11  and  C_12
REMARK    6  A    between atoms: C_13  and  C_19
REMARK    7  A    between atoms: C_17  and  N_18
REMARK    8  A    between atoms: C_20  and  C_21
REMARK                            x       y       z     vdW  Elec       q    Type
REMARK                         _______ _______ _______ _____ _____    ______ ____
ROOT
ATOM      1  C   UNL     1      -1.435   1.230   1.094  0.00  0.00    +0.009 A 
ATOM      2  C   UNL     1      -2.585   0.455   1.273  0.00  0.00    +0.120 A 
ATOM      3  N   UNL     1      -3.464   0.811   2.215  0.00  0.00    -0.227 NA
ATOM      4  C   UNL     1      -3.257   1.873   2.964  0.00  0.00    +0.224 A 
ATOM      5  N   UNL     1      -2.185   2.628   2.825  0.00  0.00    -0.221 NA
ATOM      6  C   UNL     1      -1.257   2.340   1.915  0.00  0.00    +0.122 A 
ENDROOT
BRANCH   6   7
ATOM      7  N   UNL     1      -0.131   3.139   1.782  0.00  0.00    -0.343 N 
ATOM      8  H   UNL     1       0.002   4.014   2.435  0.00  0.00    +0.144 HD
ATOM      9  H   UNL     1       0.629   2.897   1.025  0.00  0.00    +0.144 HD
ENDBRANCH   6   7
BRANCH   2  10
ATOM     10  C   UNL     1      -2.816  -0.702   0.461  0.00  0.00    -0.041 C 
ATOM     11  C   UNL     1      -3.006  -1.650  -0.204  0.00  0.00    -0.058 C 
BRANCH  11  12
ATOM     12  C   UNL     1      -3.237  -2.807  -1.016  0.00  0.00    +0.044 A 
ATOM     13  C   UNL     1      -4.392  -3.585  -0.836  0.00  0.00    +0.022 A 
ATOM     14  C   UNL     1      -4.572  -4.682  -1.634  0.00  0.00    +0.045 A 
ATOM     15  C   UNL     1      -3.612  -4.993  -2.595  0.00  0.00    +0.121 A 
ATOM     16  N   UNL     1      -2.530  -4.243  -2.745  0.00  0.00    -0.239 NA
ATOM     17  C   UNL     1      -2.320  -3.175  -2.003  0.00  0.00    +0.129 A 
ATOM     18  N   UNL     1      -3.792  -6.105  -3.406  0.00  0.00    -0.311 N 
ATOM     19  C   UNL     1      -3.963  -7.322  -2.600  0.00  0.00    +0.134 C 
ATOM     20  C   UNL     1      -4.218  -8.511  -3.530  0.00  0.00    +0.178 C 
ATOM     21  O   UNL     1      -3.135  -8.624  -4.458  0.00  0.00    -0.377 OA
ATOM     22  C   UNL     1      -2.940  -7.456  -5.260  0.00  0.00    +0.178 C 
ATOM     23  C   UNL     1      -2.673  -6.256  -4.347  0.00  0.00    +0.134 C 
ENDBRANCH  11  12
ENDBRANCH   2  10
BRANCH   1  24
ATOM     24  C   UNL     1      -0.414   0.870   0.046  0.00  0.00    -0.037 C 
BRANCH  24  26
ATOM     25  C   UNL     1      -0.628   2.994  -1.095  0.00  0.00    -0.095 C 
ATOM     26  N   UNL     1      -0.754   1.536  -1.218  0.00  0.00    +0.383 N 
ATOM     27  H   UNL     1      -1.804   1.305  -1.450  0.00  0.00    -0.081 HD
BRANCH  26  28
ATOM     28  C   UNL     1       0.074   1.028  -2.320  0.00  0.00    -0.041 C 
BRANCH  28  29
ATOM     29  C   UNL     1      -0.544   1.423  -3.636  0.00  0.00    -0.046 A 
ATOM     30  C   UNL     1      -1.403   0.555  -4.285  0.00  0.00    +0.003 A 
ATOM     31  C   UNL     1      -1.973   0.919  -5.490  0.00  0.00    +0.000 A 
ATOM     32  C   UNL     1      -1.678   2.147  -6.052  0.00  0.00    +0.001 A 
ATOM     33  C   UNL     1      -0.815   3.013  -5.407  0.00  0.00    +0.020 A 
ATOM     34  C   UNL     1      -0.248   2.651  -4.199  0.00  0.00    +0.042 A 
ATOM     35 CL   UNL     1       0.836   3.739  -3.388  0.00  0.00    -0.083 Cl
ENDBRANCH  28  29
ENDBRANCH  26  28
ENDBRANCH  24  26
ENDBRANCH   1  24
TORSDOF 7
