REMARK  Name = ZINC39658199
REMARK  5 active torsions:
REMARK  status: ('A' for Active; 'I' for Inactive)
REMARK    1  A    between atoms: C_6  and  C_7
REMARK    2  A    between atoms: C_10  and  C_12
REMARK    3  A    between atoms: C_16  and  C_25
REMARK    4  A    between atoms: N_27  and  C_28
REMARK    5  A    between atoms: C_31  and  C_34
REMARK                            x       y       z     vdW  Elec       q    Type
REMARK                         _______ _______ _______ _____ _____    ______ ____
ROOT
ATOM      1  C   UNL     1      -5.017  -1.060   0.072  0.00  0.00    +0.282 C 
ATOM      2  O   UNL     1      -5.769  -2.016   0.026  0.00  0.00    -0.267 OA
ATOM      3  N   UNL     1      -5.516   0.192   0.045  0.00  0.00    -0.294 N 
ATOM      4  C   UNL     1      -4.766   1.470   0.085  0.00  0.00    +0.121 C 
ATOM      5  C   UNL     1      -5.514   2.392  -0.904  0.00  0.00    +0.100 C 
ATOM      6  C   UNL     1      -6.939   1.819  -0.975  0.00  0.00    -0.004 C 
ATOM      7  C   UNL     1      -6.938   0.602  -0.038  0.00  0.00    +0.115 C 
ATOM      8  C   UNL     1      -7.262   1.379  -2.400  0.00  0.00    -0.010 C 
ATOM      9  C   UNL     1      -8.703   0.866  -2.456  0.00  0.00    -0.082 C 
ATOM     10  N   UNL     1      -9.621   1.929  -2.031  0.00  0.00    +0.379 N 
ATOM     11  C   UNL     1      -9.364   2.281  -0.629  0.00  0.00    -0.082 C 
ATOM     12  C   UNL     1      -7.951   2.855  -0.495  0.00  0.00    -0.010 C 
ATOM     13  H   UNL     1      -9.482   2.743  -2.611  0.00  0.00    -0.086 HD
ATOM     14  H   UNL     1     -10.573   1.609  -2.127  0.00  0.00    -0.086 HD
ENDROOT
BRANCH   1  18
ATOM     15  C   UNL     1      -1.413  -0.866   0.284  0.00  0.00    +0.136 A 
ATOM     16  C   UNL     1      -1.559  -2.224   0.273  0.00  0.00    +0.050 A 
ATOM     17  C   UNL     1      -2.930  -2.489   0.192  0.00  0.00    +0.055 A 
ATOM     18  C   UNL     1      -3.570  -1.269   0.157  0.00  0.00    +0.190 A 
ATOM     19  O   UNL     1      -2.631  -0.301   0.219  0.00  0.00    -0.450 OA
BRANCH  15  25
ATOM     20  C   UNL     1      -0.116   1.258   0.371  0.00  0.00    +0.014 A 
ATOM     21  C   UNL     1       1.085   1.932   0.444  0.00  0.00    +0.039 A 
ATOM     22  C   UNL     1       2.276   1.226   0.507  0.00  0.00    +0.123 A 
ATOM     23  C   UNL     1       2.268  -0.161   0.498  0.00  0.00    +0.039 A 
ATOM     24  C   UNL     1       1.073  -0.845   0.425  0.00  0.00    +0.014 A 
ATOM     25  C   UNL     1      -0.130  -0.139   0.362  0.00  0.00    +0.017 A 
ATOM     26  F   UNL     1       3.450   1.891   0.579  0.00  0.00    -0.205 F 
ENDBRANCH  15  25
ENDBRANCH   1  18
BRANCH   5  27
ATOM     27  C   UNL     1      -5.540   3.807  -0.385  0.00  0.00    +0.218 C 
ATOM     28  O   UNL     1      -5.556   4.014   0.810  0.00  0.00    -0.275 OA
ATOM     29  N   UNL     1      -5.546   4.841  -1.248  0.00  0.00    -0.312 N 
ATOM     30  H   UNL     1      -5.534   4.676  -2.204  0.00  0.00    +0.149 HD
BRANCH  29  31
ATOM     31  C   UNL     1      -5.572   6.216  -0.744  0.00  0.00    +0.073 C 
ATOM     32  C   UNL     1      -7.018   6.631  -0.465  0.00  0.00    +0.023 C 
ATOM     33  C   UNL     1      -7.045   8.067   0.062  0.00  0.00    +0.016 C 
ATOM     34  C   UNL     1      -6.438   9.005  -0.983  0.00  0.00    +0.102 C 
ATOM     35  C   UNL     1      -4.992   8.591  -1.261  0.00  0.00    +0.016 C 
ATOM     36  C   UNL     1      -4.965   7.155  -1.788  0.00  0.00    +0.023 C 
BRANCH  34  37
ATOM     37  C   UNL     1      -6.464  10.419  -0.464  0.00  0.00    +0.359 C 
ATOM     38  O   UNL     1      -5.607  11.213  -0.813  0.00  0.00    -0.246 OA
ATOM     39  O   UNL     1      -7.343  10.770   0.305  0.00  0.00    -0.246 OA
ENDBRANCH  34  37
ENDBRANCH  29  31
ENDBRANCH   5  27
TORSDOF 5
