REMARK  Name = ZINC19848863
REMARK  11 active torsions:
REMARK  status: ('A' for Active; 'I' for Inactive)
REMARK    1  A    between atoms: C_1  and  C_2
REMARK    2  A    between atoms: C_2  and  C_3
REMARK    3  A    between atoms: C_3  and  C_4
REMARK    4  A    between atoms: C_4  and  N_5
REMARK    5  A    between atoms: C_10  and  C_25
REMARK    6  A    between atoms: C_13  and  C_18
REMARK    7  A    between atoms: C_13  and  C_22
REMARK    8  A    between atoms: C_18  and  C_19
REMARK    9  A    between atoms: C_19  and  C_20
REMARK   10  A    between atoms: C_19  and  C_21
REMARK   11  A    between atoms: C_30  and  O_31
REMARK                            x       y       z     vdW  Elec       q    Type
REMARK                         _______ _______ _______ _____ _____    ______ ____
ROOT
ATOM      1  N   UNL     1       3.909   5.393   0.115  0.00  0.00    -0.242 N 
ATOM      2  C   UNL     1       3.205   6.022  -0.834  0.00  0.00    +0.224 C 
ATOM      3  O   UNL     1       3.331   7.188  -1.143  0.00  0.00    -0.275 OA
ATOM      4  C   UNL     1       2.229   5.052  -1.460  0.00  0.00    +0.077 C 
ATOM      5  C   UNL     1       0.792   5.453  -1.068  0.00  0.00    -0.023 C 
ATOM      6  N   UNL     1       0.141   4.180  -0.665  0.00  0.00    +0.396 N 
ATOM      7  C   UNL     1       1.196   3.455   0.089  0.00  0.00    +0.048 C 
ATOM      8  C   UNL     1       2.496   3.729  -0.694  0.00  0.00    +0.086 C 
ATOM      9  C   UNL     1       3.593   4.103   0.277  0.00  0.00    +0.225 C 
ATOM     10  O   UNL     1       4.106   3.352   1.079  0.00  0.00    -0.275 OA
ATOM     11  H   UNL     1      -0.737   4.399  -0.039  0.00  0.00    -0.083 HD
ATOM     12  H   UNL     1      -0.176   3.630  -1.563  0.00  0.00    -0.083 HD
ENDROOT
BRANCH   5  13
ATOM     13  C   UNL     1       0.075   6.059  -2.247  0.00  0.00    -0.018 A 
ATOM     14  C   UNL     1      -0.560   5.243  -3.163  0.00  0.00    +0.020 A 
ATOM     15  C   UNL     1      -1.222   5.798  -4.243  0.00  0.00    +0.018 A 
ATOM     16  C   UNL     1      -1.243   7.171  -4.413  0.00  0.00    +0.019 A 
ATOM     17  C   UNL     1      -0.605   7.990  -3.502  0.00  0.00    +0.047 A 
ATOM     18  C   UNL     1       0.056   7.436  -2.416  0.00  0.00    +0.119 A 
ATOM     19 BR   UNL     1      -2.095   4.679  -5.493  0.00  0.00    -0.050 Br
BRANCH  18  20
ATOM     20  O   UNL     1       0.684   8.240  -1.518  0.00  0.00    -0.507 OA
ATOM     21  H   UNL     1       0.669   9.331  -1.652  0.00  0.00    +0.292 HD
ENDBRANCH  18  20
ENDBRANCH   5  13
BRANCH   7  22
ATOM     22  C   UNL     1       0.900   1.978   0.117  0.00  0.00    +0.346 C 
ATOM     23  O   UNL     1       1.807   1.180   0.098  0.00  0.00    -0.248 OA
ATOM     24  O   UNL     1      -0.371   1.549   0.162  0.00  0.00    -0.248 OA
ENDBRANCH   7  22
BRANCH   1  25
ATOM     25  C   UNL     1       4.941   6.063   0.910  0.00  0.00    +0.116 C 
BRANCH  25  26
ATOM     26  C   UNL     1       6.293   5.929   0.208  0.00  0.00    +0.019 C 
BRANCH  26  28
ATOM     27  C   UNL     1       8.723   6.495   0.337  0.00  0.00    +0.004 C 
ATOM     28  C   UNL     1       7.371   6.628   1.039  0.00  0.00    -0.002 C 
ENDBRANCH  26  28
ENDBRANCH  25  26
ENDBRANCH   1  25
BRANCH   7  29
ATOM     29  C   UNL     1       1.304   4.003   1.514  0.00  0.00    +0.002 C 
BRANCH  29  30
ATOM     30  C   UNL     1       0.009   3.706   2.274  0.00  0.00    -0.018 C 
ATOM     31  C   UNL     1       0.176   4.105   3.741  0.00  0.00    +0.007 C 
ATOM     32  C   UNL     1      -1.139   4.506   1.656  0.00  0.00    +0.007 C 
ENDBRANCH  29  30
ENDBRANCH   7  29
TORSDOF 8
