REMARK  Name = ZINC40268836
REMARK  2 active torsions:
REMARK  status: ('A' for Active; 'I' for Inactive)
REMARK    1  A    between atoms: C_9  and  N_14
REMARK    2  A    between atoms: C_19  and  C_21
REMARK                            x       y       z     vdW  Elec       q    Type
REMARK                         _______ _______ _______ _____ _____    ______ ____
ROOT
ATOM      1  N   UNL     1       4.248  -4.074   0.731  0.00  0.00    -0.217 N 
ATOM      2  C   UNL     1       4.660  -5.153   0.039  0.00  0.00    +0.268 A 
ATOM      3  O   UNL     1       4.351  -5.285  -1.134  0.00  0.00    -0.266 OA
ATOM      4  C   UNL     1       5.454  -6.130   0.680  0.00  0.00    +0.074 A 
ATOM      5  C   UNL     1       5.772  -5.934   1.991  0.00  0.00    +0.035 A 
ATOM      6  C   UNL     1       5.290  -4.768   2.630  0.00  0.00    +0.092 A 
ATOM      7  N   UNL     1       4.561  -3.903   1.965  0.00  0.00    -0.168 NA
ENDROOT
BRANCH   1  16
ATOM      8  C   UNL     1      -0.017   1.371   0.010  0.00  0.00    +0.000 A 
ATOM      9  C   UNL     1       1.179   2.068   0.002  0.00  0.00    +0.002 A 
ATOM     10  C   UNL     1       2.365   1.376  -0.017  0.00  0.00    +0.023 A 
ATOM     11  C   UNL     1       2.396  -0.029  -0.024  0.00  0.00    +0.037 A 
ATOM     12  C   UNL     1       1.202  -0.717  -0.011  0.00  0.00    -0.026 A 
ATOM     13  C   UNL     1       0.002  -0.004   0.002  0.00  0.00    +0.005 A 
ATOM     14  C   UNL     1       1.065  -2.205  -0.003  0.00  0.00    +0.039 C 
ATOM     15  C   UNL     1       2.104  -2.950   0.776  0.00  0.00    +0.041 C 
ATOM     16  C   UNL     1       3.426  -3.066   0.057  0.00  0.00    +0.197 C 
ATOM     17  C   UNL     1       4.164  -1.776   0.040  0.00  0.00    +0.242 C 
ATOM     18  O   UNL     1       5.372  -1.843   0.129  0.00  0.00    -0.273 OA
ATOM     19  N   UNL     1       3.656  -0.580  -0.060  0.00  0.00    -0.284 N 
ATOM     20  H   UNL     1       4.340   0.093  -0.196  0.00  0.00    +0.155 HD
ENDBRANCH   1  16
BRANCH   6  21
ATOM     21  C   UNL     1       5.614  -4.518   4.056  0.00  0.00    +0.002 A 
ATOM     22  C   UNL     1       5.136  -3.373   4.692  0.00  0.00    +0.013 A 
ATOM     23  C   UNL     1       5.440  -3.146   6.018  0.00  0.00    +0.039 A 
ATOM     24  C   UNL     1       6.219  -4.053   6.718  0.00  0.00    +0.123 A 
ATOM     25  C   UNL     1       6.696  -5.192   6.090  0.00  0.00    +0.039 A 
ATOM     26  C   UNL     1       6.391  -5.431   4.766  0.00  0.00    +0.013 A 
ATOM     27  F   UNL     1       6.515  -3.826   8.017  0.00  0.00    -0.205 F 
ENDBRANCH   6  21
TORSDOF 2
