REMARK  Name = ZINC64156443
REMARK  8 active torsions:
REMARK  status: ('A' for Active; 'I' for Inactive)
REMARK    1  A    between atoms: C_1  and  N_2
REMARK    2  A    between atoms: C_7  and  C_9
REMARK    3  A    between atoms: N_11  and  C_12
REMARK    4  A    between atoms: C_12  and  C_13
REMARK    5  A    between atoms: C_13  and  C_15
REMARK    6  A    between atoms: C_13  and  C_23
REMARK    7  A    between atoms: C_18  and  O_21
REMARK    8  A    between atoms: O_21  and  C_22
REMARK                            x       y       z     vdW  Elec       q    Type
REMARK                         _______ _______ _______ _____ _____    ______ ____
ROOT
ATOM      1  C   UNL     1       6.086  -1.642   0.501  0.00  0.00    +0.064 C 
ENDROOT
BRANCH   1   2
ATOM      2  C   UNL     1       5.825  -1.271   1.938  0.00  0.00    -0.033 C 
ATOM      3  C   UNL     1       5.592  -0.032   2.428  0.00  0.00    -0.000 A 
ATOM      4  C   UNL     1       5.516   1.290   1.794  0.00  0.00    +0.010 A 
ATOM      5  C   UNL     1       5.262   2.373   2.564  0.00  0.00    +0.001 A 
ATOM      6  C   UNL     1       5.070   2.264   3.948  0.00  0.00    +0.002 A 
ATOM      7  C   UNL     1       5.125   1.085   4.602  0.00  0.00    +0.026 A 
ATOM      8  C   UNL     1       5.385  -0.120   3.891  0.00  0.00    +0.043 A 
ATOM      9  N   UNL     1       5.486  -1.364   4.290  0.00  0.00    -0.380 N 
ATOM     10  C   UNL     1       5.763  -2.209   3.123  0.00  0.00    +0.145 C 
ATOM     11  H   UNL     1       5.390  -1.675   5.204  0.00  0.00    +0.160 HD
ENDBRANCH   1   2
BRANCH   1  12
ATOM     12  C   UNL     1       7.438  -2.299   0.390  0.00  0.00    -0.038 A 
ATOM     13  C   UNL     1       7.697  -3.466   1.085  0.00  0.00    +0.008 A 
ATOM     14  C   UNL     1       8.936  -4.070   0.986  0.00  0.00    +0.046 A 
ATOM     15  C   UNL     1       9.920  -3.505   0.187  0.00  0.00    +0.120 A 
ATOM     16  C   UNL     1       9.657  -2.334  -0.510  0.00  0.00    +0.046 A 
ATOM     17  C   UNL     1       8.415  -1.737  -0.411  0.00  0.00    +0.008 A 
BRANCH  15  18
ATOM     18  O   UNL     1      11.139  -4.097   0.088  0.00  0.00    -0.495 OA
ATOM     19  C   UNL     1      12.103  -3.459  -0.752  0.00  0.00    +0.277 C 
ENDBRANCH  15  18
ENDBRANCH   1  12
BRANCH   1  20
ATOM     20  C   UNL     1       5.006  -2.614   0.020  0.00  0.00    +0.117 C 
BRANCH  20  23
ATOM     21  C   UNL     1       2.602  -2.601  -0.375  0.00  0.00    +0.260 C 
ATOM     22  O   UNL     1       2.683  -3.764  -0.722  0.00  0.00    -0.269 OA
ATOM     23  N   UNL     1       3.708  -1.936   0.015  0.00  0.00    -0.309 N 
ATOM     24  H   UNL     1       3.643  -1.009   0.292  0.00  0.00    +0.149 HD
BRANCH  21  31
ATOM     25  C   UNL     1      -0.018   1.461   0.010  0.00  0.00    +0.161 C 
ATOM     26  N   UNL     1       0.002  -0.004   0.002  0.00  0.00    -0.196 N 
ATOM     27  C   UNL     1      -1.158  -0.690   0.004  0.00  0.00    +0.235 C 
ATOM     28  O   UNL     1      -2.215  -0.096   0.017  0.00  0.00    -0.274 OA
ATOM     29  C   UNL     1      -1.137  -2.197  -0.011  0.00  0.00    +0.104 C 
ATOM     30  C   UNL     1       0.073  -2.675  -0.817  0.00  0.00    +0.071 C 
ATOM     31  C   UNL     1       1.301  -1.923  -0.380  0.00  0.00    +0.121 C 
ATOM     32  N   UNL     1       1.225  -0.682  -0.013  0.00  0.00    -0.177 NA
ENDBRANCH  21  31
ENDBRANCH  20  23
ENDBRANCH   1  20
TORSDOF 6
