REMARK  Name = ZINC39670824
REMARK  10 active torsions:
REMARK  status: ('A' for Active; 'I' for Inactive)
REMARK    1  A    between atoms: C_1  and  C_2
REMARK    2  A    between atoms: C_9  and  C_11
REMARK    3  A    between atoms: C_11  and  N_12
REMARK    4  A    between atoms: C_13  and  C_15
REMARK    5  A    between atoms: C_26  and  C_28
REMARK    6  A    between atoms: C_28  and  C_30
REMARK    7  A    between atoms: C_28  and  O_33
REMARK    8  A    between atoms: C_30  and  C_31
REMARK    9  A    between atoms: C_30  and  C_32
REMARK   10  A    between atoms: O_33  and  C_34
REMARK                            x       y       z     vdW  Elec       q    Type
REMARK                         _______ _______ _______ _____ _____    ______ ____
ROOT
ATOM      1  C   UNL     1      -3.127  -2.166   7.074  0.00  0.00    +0.100 C 
ATOM      2  C   UNL     1      -3.847  -0.841   6.735  0.00  0.00    +0.121 C 
ATOM      3  N   UNL     1      -4.665  -0.543   7.934  0.00  0.00    -0.297 N 
ATOM      4  C   UNL     1      -3.800  -0.927   9.075  0.00  0.00    +0.115 C 
ATOM      5  C   UNL     1      -3.098  -2.218   8.611  0.00  0.00    -0.004 C 
ATOM      6  C   UNL     1      -1.657  -2.243   9.111  0.00  0.00    -0.010 C 
ATOM      7  C   UNL     1      -1.654  -2.354  10.639  0.00  0.00    -0.082 C 
ATOM      8  N   UNL     1      -2.356  -3.578  11.044  0.00  0.00    +0.379 N 
ATOM      9  C   UNL     1      -3.765  -3.504  10.640  0.00  0.00    -0.082 C 
ATOM     10  C   UNL     1      -3.857  -3.442   9.112  0.00  0.00    -0.010 C 
ATOM     11  C   UNL     1      -5.913  -0.037   7.977  0.00  0.00    +0.257 C 
ATOM     12  O   UNL     1      -6.423   0.232   9.044  0.00  0.00    -0.272 OA
ATOM     13  H   UNL     1      -1.922  -4.375  10.603  0.00  0.00    -0.086 HD
ATOM     14  H   UNL     1      -2.300  -3.680  12.046  0.00  0.00    -0.086 HD
ENDROOT
BRANCH   1  16
ATOM     15  N   UNL     1      -1.073  -3.319   6.318  0.00  0.00    -0.309 N 
ATOM     16  C   UNL     1      -1.724  -2.157   6.523  0.00  0.00    +0.219 C 
ATOM     17  O   UNL     1      -1.181  -1.104   6.263  0.00  0.00    -0.275 OA
ATOM     18  H   UNL     1      -1.508  -4.161   6.525  0.00  0.00    +0.149 HD
BRANCH  15  19
ATOM     19  C   UNL     1       0.290  -3.310   5.782  0.00  0.00    +0.159 C 
BRANCH  19  28
ATOM     20  C   UNL     1       1.060  -7.860   2.647  0.00  0.00    +0.064 C 
ATOM     21  C   UNL     1       1.487  -7.825   4.091  0.00  0.00    +0.022 A 
ATOM     22  C   UNL     1       2.072  -8.909   4.642  0.00  0.00    +0.021 A 
ATOM     23  C   UNL     1       2.476  -8.889   5.988  0.00  0.00    +0.005 A 
ATOM     24  C   UNL     1       2.274  -7.771   6.736  0.00  0.00    +0.045 A 
ATOM     25  C   UNL     1       1.662  -6.647   6.146  0.00  0.00    +0.116 A 
ATOM     26  N   UNL     1       1.283  -6.695   4.829  0.00  0.00    -0.305 N 
ATOM     27  C   UNL     1       0.730  -5.480   4.528  0.00  0.00    +0.115 A 
ATOM     28  C   UNL     1       0.787  -4.727   5.649  0.00  0.00    +0.051 A 
ATOM     29  N   UNL     1       1.346  -5.451   6.621  0.00  0.00    -0.342 N 
ATOM     30  H   UNL     1       1.505  -5.146   7.528  0.00  0.00    +0.167 HD
ENDBRANCH  19  28
ENDBRANCH  15  19
ENDBRANCH   1  16
BRANCH  11  31
ATOM     31  C   UNL     1      -6.677   0.195   6.698  0.00  0.00    +0.261 C 
BRANCH  31  32
ATOM     32  C   UNL     1      -6.355   1.590   6.158  0.00  0.00    +0.033 C 
ATOM     33  C   UNL     1      -4.841   1.737   5.994  0.00  0.00    +0.011 C 
ATOM     34  C   UNL     1      -7.036   1.781   4.801  0.00  0.00    +0.011 C 
ENDBRANCH  31  32
BRANCH  31  35
ATOM     35  O   UNL     1      -8.079   0.096   6.956  0.00  0.00    -0.479 OA
BRANCH  35  36
ATOM     36  C   UNL     1      -8.854  -0.417   5.964  0.00  0.00    +0.122 A 
ATOM     37  C   UNL     1      -8.267  -0.903   4.805  0.00  0.00    +0.045 A 
ATOM     38  C   UNL     1      -9.056  -1.424   3.798  0.00  0.00    +0.004 A 
ATOM     39  C   UNL     1     -10.431  -1.462   3.946  0.00  0.00    +0.000 A 
ATOM     40  C   UNL     1     -11.018  -0.978   5.100  0.00  0.00    +0.004 A 
ATOM     41  C   UNL     1     -10.232  -0.461   6.112  0.00  0.00    +0.045 A 
ENDBRANCH  35  36
ENDBRANCH  31  35
ENDBRANCH  11  31
TORSDOF 7
