REMARK  Name = ZINC05953228
REMARK  8 active torsions:
REMARK  status: ('A' for Active; 'I' for Inactive)
REMARK    1  A    between atoms: C_1  and  C_2
REMARK    2  A    between atoms: C_2  and  O_3
REMARK    3  A    between atoms: O_3  and  C_4
REMARK    4  A    between atoms: C_4  and  C_6
REMARK    5  A    between atoms: C_8  and  C_27
REMARK    6  A    between atoms: C_10  and  N_11
REMARK    7  A    between atoms: C_12  and  C_14
REMARK    8  A    between atoms: C_23  and  C_25
REMARK                            x       y       z     vdW  Elec       q    Type
REMARK                         _______ _______ _______ _____ _____    ______ ____
ROOT
ATOM      1  N   UNL     1      -0.096   1.006   0.140  0.00  0.00    -0.279 N 
ATOM      2  C   UNL     1      -1.279   1.649   0.081  0.00  0.00    +0.222 C 
ATOM      3  O   UNL     1      -1.310   2.861   0.079  0.00  0.00    -0.275 OA
ATOM      4  H   UNL     1      -0.071   0.036   0.142  0.00  0.00    +0.155 HD
ENDROOT
BRANCH   2   5
ATOM      5  C   UNL     1      -2.562   0.862   0.018  0.00  0.00    +0.092 C 
ATOM      6  C   UNL     1      -3.785   1.824  -0.084  0.00  0.00    +0.002 C 
ATOM      7  C   UNL     1      -5.027   0.898   0.098  0.00  0.00    +0.004 C 
ATOM      8  C   UNL     1      -5.080   0.058  -1.199  0.00  0.00    +0.004 C 
ATOM      9  C   UNL     1      -3.867   0.555  -2.042  0.00  0.00    +0.004 C 
ATOM     10  C   UNL     1      -3.832   2.070  -1.633  0.00  0.00    +0.008 C 
ATOM     11  C   UNL     1      -2.615   0.019  -1.277  0.00  0.00    +0.117 C 
BRANCH  11  12
ATOM     12  C   UNL     1      -2.784  -1.441  -0.947  0.00  0.00    +0.360 C 
ATOM     13  O   UNL     1      -3.243  -1.770   0.122  0.00  0.00    -0.246 OA
ATOM     14  O   UNL     1      -2.424  -2.377  -1.839  0.00  0.00    -0.246 OA
ENDBRANCH  11  12
ENDBRANCH   2   5
BRANCH   1  19
ATOM     15  C   UNL     1       2.390   1.251   0.250  0.00  0.00    +0.088 A 
ATOM     16  C   UNL     1       3.441   2.240   0.296  0.00  0.00    +0.027 A 
ATOM     17  C   UNL     1       3.071   3.532   0.278  0.00  0.00    -0.011 A 
ATOM     18  S   UNL     1       1.294   3.448   0.193  0.00  0.00    -0.078 S 
ATOM     19  C   UNL     1       1.085   1.730   0.192  0.00  0.00    +0.086 A 
ATOM     20  C   UNL     1       3.948   4.757   0.315  0.00  0.00    +0.051 C 
BRANCH  15  21
ATOM     21  C   UNL     1       2.683  -0.183   0.265  0.00  0.00    +0.342 C 
ATOM     22  O   UNL     1       1.773  -0.990   0.225  0.00  0.00    -0.245 OA
BRANCH  21  23
ATOM     23  O   UNL     1       3.961  -0.610   0.322  0.00  0.00    -0.461 OA
BRANCH  23  25
ATOM     24  C   UNL     1       5.677  -2.336   0.400  0.00  0.00    +0.048 C 
ATOM     25  C   UNL     1       4.176  -2.046   0.333  0.00  0.00    +0.229 C 
ENDBRANCH  23  25
ENDBRANCH  21  23
ENDBRANCH  15  21
ENDBRANCH   1  19
TORSDOF 6
