REMARK  Name = ZINC59019526
REMARK  4 active torsions:
REMARK  status: ('A' for Active; 'I' for Inactive)
REMARK    1  A    between atoms: C_6  and  C_7
REMARK    2  A    between atoms: C_7  and  C_12
REMARK    3  A    between atoms: N_14  and  C_15
REMARK    4  A    between atoms: C_17  and  C_23
REMARK                            x       y       z     vdW  Elec       q    Type
REMARK                         _______ _______ _______ _____ _____    ______ ____
ROOT
ATOM      1  C   UNL     1      -2.825   0.019  -0.383  0.00  0.00    +0.228 C 
ATOM      2  O   UNL     1      -3.886  -0.556  -0.512  0.00  0.00    -0.274 OA
ATOM      3  N   UNL     1      -2.479   0.996  -1.244  0.00  0.00    -0.280 N 
ATOM      4  H   UNL     1      -1.604   1.410  -1.182  0.00  0.00    +0.155 HD
ENDROOT
BRANCH   3   5
ATOM      5  C   UNL     1      -3.384   1.415  -2.229  0.00  0.00    +0.099 A 
ATOM      6  C   UNL     1      -3.771   2.725  -2.302  0.00  0.00    +0.042 A 
ATOM      7  C   UNL     1      -4.677   3.117  -3.297  0.00  0.00    +0.073 A 
ATOM      8  C   UNL     1      -5.158   2.205  -4.172  0.00  0.00    +0.098 A 
ATOM      9  N   UNL     1      -4.775   0.902  -4.102  0.00  0.00    -0.327 N 
ATOM     10  H   UNL     1      -5.131   0.263  -4.738  0.00  0.00    +0.168 HD
ATOM     11  C   UNL     1      -3.903   0.491  -3.162  0.00  0.00    +0.270 A 
ATOM     12  O   UNL     1      -3.564  -0.681  -3.114  0.00  0.00    -0.266 OA
BRANCH   7  13
ATOM     13  C   UNL     1      -5.115   4.556  -3.393  0.00  0.00    +0.419 C 
ATOM     14  F   UNL     1      -6.014   4.700  -4.455  0.00  0.00    -0.166 F 
ATOM     15  F   UNL     1      -5.740   4.933  -2.199  0.00  0.00    -0.166 F 
ATOM     16  F   UNL     1      -3.999   5.370  -3.612  0.00  0.00    -0.166 F 
ENDBRANCH   7  13
ENDBRANCH   3   5
BRANCH   1  17
ATOM     17  C   UNL     1      -1.895  -0.360   0.740  0.00  0.00    +0.072 C 
ATOM     18  C   UNL     1      -1.536   0.886   1.575  0.00  0.00    +0.021 C 
ATOM     19  C   UNL     1      -2.538   0.853   2.756  0.00  0.00    +0.001 C 
ATOM     20  C   UNL     1      -2.637  -0.659   3.078  0.00  0.00    +0.001 C 
ATOM     21  C   UNL     1      -2.594  -1.343   1.695  0.00  0.00    +0.021 C 
BRANCH  17  27
ATOM     22  C   UNL     1      -0.560  -1.288  -1.164  0.00  0.00    +0.006 A 
ATOM     23  C   UNL     1       0.588  -1.862  -1.675  0.00  0.00    +0.015 A 
ATOM     24  C   UNL     1       1.657  -2.133  -0.840  0.00  0.00    +0.018 A 
ATOM     25  C   UNL     1       1.575  -1.830   0.507  0.00  0.00    +0.015 A 
ATOM     26  C   UNL     1       0.426  -1.256   1.018  0.00  0.00    +0.006 A 
ATOM     27  C   UNL     1      -0.642  -0.986   0.183  0.00  0.00    -0.032 A 
ATOM     28 BR   UNL     1       3.229  -2.918  -1.539  0.00  0.00    -0.050 Br
ENDBRANCH  17  27
ENDBRANCH   1  17
TORSDOF 4
