REMARK  Name = ZINC13225277
REMARK  4 active torsions:
REMARK  status: ('A' for Active; 'I' for Inactive)
REMARK    1  A    between atoms: C_4  and  S_23
REMARK    2  A    between atoms: C_6  and  C_7
REMARK    3  A    between atoms: C_19  and  C_21
REMARK    4  A    between atoms: S_23  and  N_26
REMARK                            x       y       z     vdW  Elec       q    Type
REMARK                         _______ _______ _______ _____ _____    ______ ____
ROOT
ATOM      1  C   UNL     1      -2.352   0.163   0.844  0.00  0.00    +0.016 A 
ATOM      2  C   UNL     1      -3.163  -0.482   1.752  0.00  0.00    +0.041 A 
ATOM      3  C   UNL     1      -4.432  -0.897   1.380  0.00  0.00    +0.150 A 
ATOM      4  C   UNL     1      -4.896  -0.660   0.095  0.00  0.00    +0.141 A 
ATOM      5  C   UNL     1      -4.096  -0.010  -0.820  0.00  0.00    +0.044 A 
ATOM      6  C   UNL     1      -2.816   0.410  -0.450  0.00  0.00    +0.039 A 
ATOM      7  F   UNL     1      -5.221  -1.535   2.273  0.00  0.00    -0.203 F 
ENDROOT
BRANCH   6   8
ATOM      8  C   UNL     1      -1.954   1.107  -1.426  0.00  0.00    +0.248 C 
ATOM      9  O   UNL     1      -1.879   0.702  -2.570  0.00  0.00    -0.270 OA
ATOM     10  N   UNL     1      -1.251   2.193  -1.049  0.00  0.00    -0.281 N 
ATOM     11  C   UNL     1      -0.444   3.045  -1.927  0.00  0.00    +0.080 C 
ATOM     12  C   UNL     1      -0.972   3.103  -3.343  0.00  0.00    +0.023 C 
ATOM     13  C   UNL     1      -2.331   3.800  -3.399  0.00  0.00    +0.002 C 
ATOM     14  C   UNL     1      -2.170   5.221  -2.848  0.00  0.00    +0.000 C 
ATOM     15  C   UNL     1      -1.753   5.132  -1.382  0.00  0.00    +0.005 C 
ATOM     16  C   UNL     1      -0.404   4.425  -1.245  0.00  0.00    +0.012 C 
ATOM     17  C   UNL     1      -0.274   3.999   0.250  0.00  0.00    +0.039 C 
ATOM     18  C   UNL     1      -1.157   2.734   0.319  0.00  0.00    +0.190 C 
BRANCH  18  19
ATOM     19  C   UNL     1      -2.530   3.093   0.828  0.00  0.00    +0.376 C 
ATOM     20  O   UNL     1      -3.476   3.075   0.076  0.00  0.00    -0.244 OA
ATOM     21  O   UNL     1      -2.701   3.432   2.115  0.00  0.00    -0.244 OA
ENDBRANCH  18  19
ENDBRANCH   6   8
BRANCH   4  22
ATOM     22  S   UNL     1      -6.511  -1.190  -0.370  0.00  0.00    +0.064 S 
ATOM     23  O   UNL     1      -7.394  -0.744   0.650  0.00  0.00    -0.153 OA
ATOM     24  O   UNL     1      -6.679  -0.831  -1.734  0.00  0.00    -0.153 OA
BRANCH  22  25
ATOM     25  N   UNL     1      -6.518  -2.845  -0.311  0.00  0.00    -0.176 NA
ATOM     26  C   UNL     1      -6.165  -3.638  -1.497  0.00  0.00    +0.109 C 
ATOM     27  C   UNL     1      -5.050  -4.622  -1.113  0.00  0.00    +0.017 C 
ATOM     28  C   UNL     1      -5.505  -5.456   0.087  0.00  0.00    +0.003 C 
ATOM     29  C   UNL     1      -5.767  -4.535   1.281  0.00  0.00    +0.017 C 
ATOM     30  C   UNL     1      -6.884  -3.549   0.925  0.00  0.00    +0.109 C 
ENDBRANCH  22  25
ENDBRANCH   4  22
TORSDOF 4
