REMARK  Name = ZINC13427706
REMARK  6 active torsions:
REMARK  status: ('A' for Active; 'I' for Inactive)
REMARK    1  A    between atoms: C_1  and  C_2
REMARK    2  A    between atoms: C_3  and  C_29
REMARK    3  A    between atoms: C_9  and  C_13
REMARK    4  A    between atoms: C_13  and  S_14
REMARK    5  A    between atoms: S_14  and  C_15
REMARK    6  A    between atoms: N_27  and  C_28
REMARK                            x       y       z     vdW  Elec       q    Type
REMARK                         _______ _______ _______ _____ _____    ______ ____
ROOT
ATOM      1  C   UNL     1       1.887  -5.585  -0.037  0.00  0.00    +0.151 C 
ENDROOT
BRANCH   1  10
ATOM      2  C   UNL     1      -0.018   1.503   0.010  0.00  0.00    +0.087 C 
ATOM      3  C   UNL     1       0.002  -0.004   0.002  0.00  0.00    +0.119 A 
ATOM      4  C   UNL     1      -1.102  -0.806   0.003  0.00  0.00    +0.118 A 
ATOM      5  C   UNL     1      -0.586  -2.186  -0.007  0.00  0.00    +0.118 A 
ATOM      6  C   UNL     1      -1.171  -3.470  -0.011  0.00  0.00    +0.263 A 
ATOM      7  O   UNL     1      -2.382  -3.607  -0.006  0.00  0.00    -0.267 OA
ATOM      8  N   UNL     1      -0.348  -4.544  -0.020  0.00  0.00    -0.309 N 
ATOM      9  H   UNL     1      -0.720  -5.439  -0.023  0.00  0.00    +0.170 HD
ATOM     10  C   UNL     1       0.997  -4.369  -0.026  0.00  0.00    +0.124 A 
ATOM     11  N   UNL     1       1.547  -3.188  -0.022  0.00  0.00    -0.198 NA
ATOM     12  C   UNL     1       0.804  -2.070  -0.013  0.00  0.00    +0.235 A 
ATOM     13  O   UNL     1       1.106  -0.761  -0.013  0.00  0.00    -0.441 OA
BRANCH   4  14
ATOM     14  C   UNL     1      -2.507  -0.383   0.012  0.00  0.00    +0.391 C 
ATOM     15  O   UNL     1      -2.788   0.808   0.020  0.00  0.00    -0.240 OA
ATOM     16  O   UNL     1      -3.398  -1.222   0.012  0.00  0.00    -0.240 OA
ENDBRANCH   4  14
ENDBRANCH   1  10
BRANCH   1  17
ATOM     17  S   UNL     1       3.624  -5.063  -0.043  0.00  0.00    -0.080 S 
BRANCH  17  18
ATOM     18  C   UNL     1       4.524  -6.577  -0.055  0.00  0.00    +0.173 A 
ATOM     19  N   UNL     1       3.870  -7.721  -0.063  0.00  0.00    -0.216 NA
ATOM     20  C   UNL     1       4.525  -8.877  -0.073  0.00  0.00    +0.117 A 
ATOM     21  C   UNL     1       5.926  -8.940  -0.074  0.00  0.00    +0.076 A 
ATOM     22  C   UNL     1       6.512 -10.291  -0.085  0.00  0.00    -0.023 A 
ATOM     23  C   UNL     1       5.655 -11.324  -0.095  0.00  0.00    -0.004 A 
ATOM     24  S   UNL     1       4.039 -10.582  -0.086  0.00  0.00    -0.073 S 
ATOM     25  C   UNL     1       6.364 -12.652  -0.111  0.00  0.00    +0.043 C 
ATOM     26  C   UNL     1       7.808 -12.314  -0.544  0.00  0.00    +0.010 C 
ATOM     27  C   UNL     1       7.938 -10.848  -0.085  0.00  0.00    +0.037 C 
ATOM     28  C   UNL     1       6.611  -7.685  -0.066  0.00  0.00    +0.263 A 
ATOM     29  O   UNL     1       7.829  -7.644  -0.067  0.00  0.00    -0.267 OA
ATOM     30  N   UNL     1       5.889  -6.548  -0.062  0.00  0.00    -0.290 N 
ATOM     31  C   UNL     1       6.580  -5.257  -0.059  0.00  0.00    +0.154 C 
ENDBRANCH  17  18
ENDBRANCH   1  17
TORSDOF 4
