REMARK  Name = ZINC01016780
REMARK  6 active torsions:
REMARK  status: ('A' for Active; 'I' for Inactive)
REMARK    1  A    between atoms: C_1  and  C_2
REMARK    2  A    between atoms: C_2  and  O_3
REMARK    3  A    between atoms: O_3  and  C_4
REMARK    4  A    between atoms: C_7  and  C_10
REMARK    5  A    between atoms: C_11  and  C_21
REMARK    6  A    between atoms: N_12  and  C_14
REMARK                            x       y       z     vdW  Elec       q    Type
REMARK                         _______ _______ _______ _____ _____    ______ ____
ROOT
ATOM      1  C   UNL     1       0.823  -1.820  -1.302  0.00  0.00    +0.263 A 
ATOM      2  C   UNL     1       1.456  -2.353  -2.452  0.00  0.00    +0.158 A 
ATOM      3  C   UNL     1       1.468  -3.823  -2.582  0.00  0.00    +0.051 A 
ATOM      4  C   UNL     1       0.850  -4.564  -1.551  0.00  0.00    +0.072 A 
ATOM      5  N   UNL     1       0.305  -3.922  -0.547  0.00  0.00    -0.150 NA
ATOM      6  N   UNL     1       0.296  -2.649  -0.427  0.00  0.00    -0.109 NA
ATOM      7  C   UNL     1       0.817  -6.070  -1.605  0.00  0.00    +0.068 C 
ATOM      8  C   UNL     1       2.126  -4.105  -3.759  0.00  0.00    +0.052 A 
ATOM      9  N   UNL     1       2.492  -2.938  -4.316  0.00  0.00    -0.236 N 
ATOM     10  N   UNL     1       2.077  -1.872  -3.507  0.00  0.00    -0.161 NA
ATOM     11  C   UNL     1       2.390  -5.478  -4.322  0.00  0.00    +0.066 C 
ENDROOT
BRANCH   9  12
ATOM     12  C   UNL     1       3.187  -2.806  -5.526  0.00  0.00    +0.066 A 
ATOM     13  C   UNL     1       2.835  -3.588  -6.618  0.00  0.00    +0.029 A 
ATOM     14  C   UNL     1       3.521  -3.457  -7.809  0.00  0.00    +0.022 A 
ATOM     15  C   UNL     1       4.558  -2.546  -7.915  0.00  0.00    +0.041 A 
ATOM     16  C   UNL     1       4.910  -1.765  -6.828  0.00  0.00    +0.022 A 
ATOM     17  C   UNL     1       4.223  -1.888  -5.636  0.00  0.00    +0.029 A 
ATOM     18 CL   UNL     1       5.418  -2.383  -9.414  0.00  0.00    -0.084 Cl
ENDBRANCH   9  12
BRANCH   1  19
ATOM     19  O   UNL     1       0.766  -0.480  -1.103  0.00  0.00    -0.474 OA
BRANCH  19  21
ATOM     20  C   UNL     1       0.150   1.502   0.135  0.00  0.00    +0.048 C 
ATOM     21  C   UNL     1       0.115  -0.027   0.085  0.00  0.00    +0.227 C 
ENDBRANCH  19  21
ENDBRANCH   1  19
TORSDOF 3
