REMARK  Name = ZINC36610229
REMARK  9 active torsions:
REMARK  status: ('A' for Active; 'I' for Inactive)
REMARK    1  A    between atoms: C_1  and  C_2
REMARK    2  A    between atoms: C_5  and  C_8
REMARK    3  A    between atoms: C_8  and  C_10
REMARK    4  A    between atoms: C_8  and  N_19
REMARK    5  A    between atoms: N_12  and  C_13
REMARK    6  A    between atoms: N_19  and  C_20
REMARK    7  A    between atoms: C_26  and  C_28
REMARK    8  A    between atoms: C_29  and  O_35
REMARK    9  A    between atoms: C_33  and  O_34
REMARK                            x       y       z     vdW  Elec       q    Type
REMARK                         _______ _______ _______ _____ _____    ______ ____
ROOT
ATOM      1  N   UNL     1       1.093  -4.788   0.939  0.00  0.00    -0.251 N 
ATOM      2  C   UNL     1       1.462  -6.059   0.683  0.00  0.00    +0.259 C 
ATOM      3  O   UNL     1       0.785  -6.753  -0.051  0.00  0.00    -0.269 OA
ENDROOT
BRANCH   1   4
ATOM      4  C   UNL     1       1.811  -4.025   1.865  0.00  0.00    +0.038 A 
ATOM      5  C   UNL     1       1.775  -4.353   3.214  0.00  0.00    +0.023 A 
ATOM      6  C   UNL     1       2.485  -3.597   4.126  0.00  0.00    +0.002 A 
ATOM      7  C   UNL     1       3.231  -2.514   3.697  0.00  0.00    +0.000 A 
ATOM      8  C   UNL     1       3.268  -2.185   2.355  0.00  0.00    +0.002 A 
ATOM      9  C   UNL     1       2.565  -2.940   1.437  0.00  0.00    +0.023 A 
ENDBRANCH   1   4
BRANCH   2  10
ATOM     10  C   UNL     1       2.686  -6.607   1.292  0.00  0.00    +0.120 A 
ATOM     11  C   UNL     1       2.610  -7.371   2.466  0.00  0.00    +0.133 A 
ATOM     12  C   UNL     1       3.767  -7.882   3.030  0.00  0.00    +0.046 A 
ATOM     13  C   UNL     1       4.994  -7.642   2.439  0.00  0.00    +0.007 A 
ATOM     14  C   UNL     1       5.080  -6.890   1.282  0.00  0.00    +0.046 A 
ATOM     15  C   UNL     1       3.935  -6.374   0.698  0.00  0.00    +0.133 A 
BRANCH  15  16
ATOM     16  O   UNL     1       4.022  -5.641  -0.440  0.00  0.00    -0.506 OA
ATOM     17  H   UNL     1       4.138  -4.693  -0.290  0.00  0.00    +0.292 HD
ENDBRANCH  15  16
BRANCH  11  18
ATOM     18  O   UNL     1       1.407  -7.608   3.047  0.00  0.00    -0.506 OA
ATOM     19  H   UNL     1       0.969  -8.410   2.732  0.00  0.00    +0.292 HD
ENDBRANCH  11  18
ENDBRANCH   2  10
BRANCH   1  20
ATOM     20  C   UNL     1      -0.060  -4.207   0.247  0.00  0.00    +0.197 C 
BRANCH  20  25
ATOM     21  C   UNL     1      -0.453   1.411   1.539  0.00  0.00    +0.044 C 
ATOM     22  C   UNL     1      -0.350  -0.054   1.202  0.00  0.00    -0.050 A 
ATOM     23  C   UNL     1      -0.246  -0.454  -0.117  0.00  0.00    +0.004 A 
ATOM     24  C   UNL     1      -0.152  -1.798  -0.426  0.00  0.00    +0.006 A 
ATOM     25  C   UNL     1      -0.162  -2.742   0.584  0.00  0.00    -0.018 A 
ATOM     26  C   UNL     1      -0.266  -2.341   1.903  0.00  0.00    +0.006 A 
ATOM     27  C   UNL     1      -0.355  -0.997   2.212  0.00  0.00    +0.004 A 
ENDBRANCH  20  25
BRANCH  20  28
ATOM     28  C   UNL     1      -1.317  -4.912   0.687  0.00  0.00    +0.239 C 
ATOM     29  O   UNL     1      -1.256  -5.812   1.498  0.00  0.00    -0.273 OA
ATOM     30  N   UNL     1      -2.510  -4.543   0.179  0.00  0.00    -0.311 N 
ATOM     31  H   UNL     1      -2.559  -3.824  -0.470  0.00  0.00    +0.149 HD
BRANCH  30  32
ATOM     32  C   UNL     1      -3.732  -5.229   0.606  0.00  0.00    +0.073 C 
ATOM     33  C   UNL     1      -3.930  -6.491  -0.234  0.00  0.00    +0.022 C 
ATOM     34  C   UNL     1      -5.206  -7.207   0.212  0.00  0.00    +0.002 C 
ATOM     35  C   UNL     1      -6.405  -6.276   0.023  0.00  0.00    +0.000 C 
ATOM     36  C   UNL     1      -6.208  -5.013   0.864  0.00  0.00    +0.002 C 
ATOM     37  C   UNL     1      -4.931  -4.297   0.418  0.00  0.00    +0.022 C 
ENDBRANCH  30  32
ENDBRANCH  20  28
ENDBRANCH   1  20
TORSDOF 8
