REMARK  Name = ZINC03429542
REMARK  10 active torsions:
REMARK  status: ('A' for Active; 'I' for Inactive)
REMARK    1  A    between atoms: C_1  and  O_2
REMARK    2  A    between atoms: O_2  and  C_3
REMARK    3  A    between atoms: C_3  and  C_4
REMARK    4  A    between atoms: C_4  and  N_5
REMARK    5  A    between atoms: N_5  and  C_6
REMARK    6  A    between atoms: C_7  and  N_22
REMARK    7  A    between atoms: N_8  and  C_15
REMARK    8  A    between atoms: C_15  and  C_16
REMARK    9  A    between atoms: C_23  and  C_25
REMARK   10  A    between atoms: C_25  and  N_63
REMARK                            x       y       z     vdW  Elec       q    Type
REMARK                         _______ _______ _______ _____ _____    ______ ____
ROOT
ATOM      1  N   UNL     1      -2.372   5.701  -3.101  0.00  0.00    -0.264 N 
ATOM      2  C   UNL     1      -1.769   5.150  -2.026  0.00  0.00    +0.203 C 
ATOM      3  O   UNL     1      -1.680   5.779  -0.993  0.00  0.00    -0.277 OA
ENDROOT
BRANCH   1   4
ATOM      4  C   UNL     1      -2.810   7.041  -3.055  0.00  0.00    +0.140 A 
ATOM      5  C   UNL     1      -3.845   7.413  -2.221  0.00  0.00    +0.128 A 
ATOM      6  N   UNL     1      -4.245   8.729  -2.194  0.00  0.00    -0.276 N 
ATOM      7  C   UNL     1      -3.643   9.640  -2.979  0.00  0.00    +0.331 A 
ATOM      8  O   UNL     1      -4.016  10.797  -2.945  0.00  0.00    -0.246 OA
ATOM      9  N   UNL     1      -2.636   9.295  -3.801  0.00  0.00    -0.273 N 
ATOM     10  H   UNL     1      -2.205   9.992  -4.375  0.00  0.00    +0.173 HD
ATOM     11  C   UNL     1      -2.202   8.021  -3.862  0.00  0.00    +0.277 A 
ATOM     12  O   UNL     1      -1.288   7.719  -4.611  0.00  0.00    -0.266 OA
BRANCH   5  13
ATOM     13  N   UNL     1      -4.464   6.481  -1.424  0.00  0.00    -0.343 N 
ATOM     14  H   UNL     1      -4.143   5.566  -1.408  0.00  0.00    +0.144 HD
ATOM     15  H   UNL     1      -5.223   6.738  -0.877  0.00  0.00    +0.144 HD
ENDBRANCH   5  13
BRANCH   6  16
ATOM     16  C   UNL     1      -5.339   9.139  -1.310  0.00  0.00    +0.163 C 
BRANCH  16  17
ATOM     17  C   UNL     1      -6.651   9.008  -2.039  0.00  0.00    -0.028 A 
ATOM     18  C   UNL     1      -7.150  10.077  -2.761  0.00  0.00    +0.005 A 
ATOM     19  C   UNL     1      -8.351   9.956  -3.434  0.00  0.00    +0.000 A 
ATOM     20  C   UNL     1      -9.058   8.770  -3.378  0.00  0.00    +0.000 A 
ATOM     21  C   UNL     1      -8.562   7.703  -2.652  0.00  0.00    +0.000 A 
ATOM     22  C   UNL     1      -7.359   7.822  -1.983  0.00  0.00    +0.005 A 
ENDBRANCH  16  17
ENDBRANCH   6  16
ENDBRANCH   1   4
BRANCH   1  23
ATOM     23  C   UNL     1      -2.571   4.906  -4.316  0.00  0.00    +0.142 C 
BRANCH  23  24
ATOM     24  C   UNL     1      -3.961   4.268  -4.285  0.00  0.00    +0.178 C 
BRANCH  24  26
ATOM     25  C   UNL     1      -6.298   4.799  -4.311  0.00  0.00    +0.194 C 
ATOM     26  O   UNL     1      -4.957   5.292  -4.335  0.00  0.00    -0.381 OA
ENDBRANCH  24  26
ENDBRANCH  23  24
ENDBRANCH   1  23
BRANCH   2  27
ATOM     27  C   UNL     1      -1.207   3.755  -2.111  0.00  0.00    +0.020 C 
BRANCH  27  37
ATOM     28  C   UNL     1       0.551   4.207  -0.505  0.00  0.00    -0.073 C 
ATOM     29  C   UNL     1       0.884   4.041   0.978  0.00  0.00    +0.017 C 
ATOM     30  C   UNL     1       0.953   2.576   1.328  0.00  0.00    -0.048 A 
ATOM     31  C   UNL     1       1.579   2.207   2.509  0.00  0.00    +0.004 A 
ATOM     32  C   UNL     1       1.660   0.877   2.868  0.00  0.00    +0.000 A 
ATOM     33  C   UNL     1       1.115  -0.092   2.046  0.00  0.00    +0.000 A 
ATOM     34  C   UNL     1       0.492   0.274   0.875  0.00  0.00    +0.002 A 
ATOM     35  C   UNL     1       0.411   1.610   0.510  0.00  0.00    -0.061 A 
ATOM     36  C   UNL     1      -0.272   1.959  -0.786  0.00  0.00    -0.042 C 
ATOM     37  N   UNL     1      -0.641   3.384  -0.793  0.00  0.00    +0.388 N 
ATOM     38  H   UNL     1      -1.348   3.552  -0.067  0.00  0.00    -0.081 HD
ENDBRANCH  27  37
ENDBRANCH   2  27
TORSDOF 9
