REMARK  Name = ZINC43740603
REMARK  7 active torsions:
REMARK  status: ('A' for Active; 'I' for Inactive)
REMARK    1  A    between atoms: C_1  and  C_2
REMARK    2  A    between atoms: C_6  and  C_31
REMARK    3  A    between atoms: C_6  and  O_32
REMARK    4  A    between atoms: C_7  and  O_30
REMARK    5  A    between atoms: C_17  and  C_19
REMARK    6  A    between atoms: C_19  and  N_20
REMARK    7  A    between atoms: O_32  and  C_33
REMARK                            x       y       z     vdW  Elec       q    Type
REMARK                         _______ _______ _______ _____ _____    ______ ____
ROOT
ATOM      1  C   UNL     1      -0.019   1.526   0.010  0.00  0.00    +0.014 C 
ATOM      2  C   UNL     1       0.002  -0.004   0.002  0.00  0.00    +0.003 C 
ATOM      3  C   UNL     1       0.611  -0.500  -1.310  0.00  0.00    +0.010 C 
ATOM      4  C   UNL     1       2.033   0.049  -1.447  0.00  0.00    +0.003 C 
ATOM      5  C   UNL     1       2.884  -0.428  -0.270  0.00  0.00    +0.037 C 
ATOM      6  C   UNL     1       2.265   0.058   1.043  0.00  0.00    +0.095 C 
ATOM      7  C   UNL     1       0.849  -0.512   1.175  0.00  0.00    +0.100 C 
ATOM      8  C   UNL     1       0.908  -2.037   1.102  0.00  0.00    +0.046 C 
ATOM      9  C   UNL     1      -0.487  -2.647   1.242  0.00  0.00    +0.044 C 
ATOM     10  C   UNL     1      -1.460  -2.027   0.220  0.00  0.00    +0.181 C 
ATOM     11  C   UNL     1      -1.420  -0.535   0.162  0.00  0.00    +0.054 C 
ATOM     12  O   UNL     1      -1.076  -2.627  -1.022  0.00  0.00    -0.461 OA
ATOM     13  C   UNL     1      -0.825  -3.934  -0.779  0.00  0.00    +0.309 C 
ATOM     14  O   UNL     1      -0.927  -4.829  -1.584  0.00  0.00    -0.251 OA
ATOM     15  C   UNL     1      -0.391  -4.101   0.689  0.00  0.00    +0.088 C 
ATOM     16  C   UNL     1       3.121  -0.420   2.219  0.00  0.00    +0.044 C 
ENDROOT
BRANCH   7  17
ATOM     17  O   UNL     1       0.273  -0.092   2.413  0.00  0.00    -0.385 OA
ATOM     18  H   UNL     1       0.763  -0.382   3.194  0.00  0.00    +0.210 HD
ENDBRANCH   7  17
BRANCH   6  19
ATOM     19  O   UNL     1       2.207   1.486   1.043  0.00  0.00    -0.374 OA
ATOM     20  C   UNL     1       3.482   2.120   0.917  0.00  0.00    +0.194 C 
ENDBRANCH   6  19
BRANCH  15  21
ATOM     21  C   UNL     1      -1.350  -5.027   1.440  0.00  0.00    -0.064 C 
BRANCH  21  22
ATOM     22  N   UNL     1      -1.155  -6.409   0.983  0.00  0.00    +0.380 N 
ATOM     23  C   UNL     1       0.196  -6.856   1.345  0.00  0.00    -0.074 C 
ATOM     24  C   UNL     1       0.435  -8.265   0.797  0.00  0.00    +0.046 C 
ATOM     25  C   UNL     1      -0.604  -9.220   1.390  0.00  0.00    +0.167 C 
ATOM     26  C   UNL     1      -2.010  -8.703   1.078  0.00  0.00    +0.046 C 
ATOM     27  C   UNL     1      -2.155  -7.278   1.615  0.00  0.00    -0.074 C 
ATOM     28  O   UNL     1      -0.435 -10.527   0.819  0.00  0.00    -0.346 OA
ATOM     29  C   UNL     1       0.389 -11.242   1.772  0.00  0.00    +0.191 C 
ATOM     30  C   UNL     1      -0.129 -10.682   3.120  0.00  0.00    +0.191 C 
ATOM     31  O   UNL     1      -0.426  -9.305   2.809  0.00  0.00    -0.346 OA
ATOM     32  H   UNL     1      -1.262  -6.449  -0.019  0.00  0.00    -0.082 HD
ENDBRANCH  21  22
ENDBRANCH  15  21
TORSDOF 4
