REMARK  Name = ZINC39691072
REMARK  9 active torsions:
REMARK  status: ('A' for Active; 'I' for Inactive)
REMARK    1  A    between atoms: C_1  and  C_2
REMARK    2  A    between atoms: C_7  and  C_8
REMARK    3  A    between atoms: C_8  and  C_9
REMARK    4  A    between atoms: C_9  and  N_10
REMARK    5  A    between atoms: C_11  and  C_13
REMARK    6  A    between atoms: C_24  and  C_26
REMARK    7  A    between atoms: C_31  and  O_32
REMARK    8  A    between atoms: O_32  and  C_33
REMARK    9  A    between atoms: C_33  and  C_35
REMARK                            x       y       z     vdW  Elec       q    Type
REMARK                         _______ _______ _______ _____ _____    ______ ____
ROOT
ATOM      1  C   UNL     1      -2.618   2.727   6.174  0.00  0.00    +0.100 C 
ATOM      2  C   UNL     1      -2.114   1.665   7.176  0.00  0.00    +0.121 C 
ATOM      3  N   UNL     1      -2.975   1.836   8.369  0.00  0.00    -0.296 N 
ATOM      4  C   UNL     1      -4.325   2.101   7.814  0.00  0.00    +0.115 C 
ATOM      5  C   UNL     1      -4.070   3.010   6.595  0.00  0.00    -0.004 C 
ATOM      6  C   UNL     1      -5.028   2.654   5.463  0.00  0.00    -0.010 C 
ATOM      7  C   UNL     1      -6.459   2.998   5.884  0.00  0.00    -0.082 C 
ATOM      8  N   UNL     1      -6.548   4.430   6.196  0.00  0.00    +0.379 N 
ATOM      9  C   UNL     1      -5.694   4.746   7.346  0.00  0.00    -0.082 C 
ATOM     10  C   UNL     1      -4.230   4.476   6.987  0.00  0.00    -0.010 C 
ATOM     11  C   UNL     1      -2.614   1.768   9.666  0.00  0.00    +0.250 C 
ATOM     12  O   UNL     1      -3.460   1.838  10.537  0.00  0.00    -0.270 OA
ATOM     13  H   UNL     1      -6.246   4.966   5.396  0.00  0.00    -0.086 HD
ATOM     14  H   UNL     1      -7.505   4.667   6.414  0.00  0.00    -0.086 HD
ENDROOT
BRANCH  11  15
ATOM     15  C   UNL     1      -1.193   1.608  10.028  0.00  0.00    +0.079 A 
ATOM     16  C   UNL     1      -0.346   0.837   9.228  0.00  0.00    +0.017 A 
ATOM     17  C   UNL     1       0.981   0.692   9.572  0.00  0.00    +0.001 A 
ATOM     18  C   UNL     1       1.479   1.308  10.708  0.00  0.00    +0.004 A 
ATOM     19  C   UNL     1       0.653   2.073  11.508  0.00  0.00    +0.047 A 
ATOM     20  C   UNL     1      -0.683   2.234  11.174  0.00  0.00    +0.144 A 
BRANCH  20  21
ATOM     21  O   UNL     1      -1.495   2.989  11.956  0.00  0.00    -0.425 OA
BRANCH  21  22
ATOM     22  C   UNL     1      -1.646   4.286  11.641  0.00  0.00    +0.309 C 
ATOM     23  O   UNL     1      -1.141   4.726  10.635  0.00  0.00    -0.251 OA
ATOM     24  C   UNL     1      -2.444   5.193  12.542  0.00  0.00    +0.136 C 
ENDBRANCH  21  22
ENDBRANCH  20  21
ENDBRANCH  11  15
BRANCH   1  26
ATOM     25  N   UNL     1      -2.507   3.030   3.721  0.00  0.00    -0.315 N 
ATOM     26  C   UNL     1      -2.576   2.184   4.768  0.00  0.00    +0.218 C 
ATOM     27  O   UNL     1      -2.605   0.986   4.580  0.00  0.00    -0.275 OA
ATOM     28  H   UNL     1      -2.483   3.987   3.872  0.00  0.00    +0.149 HD
BRANCH  25  29
ATOM     29  C   UNL     1      -2.466   2.502   2.355  0.00  0.00    +0.109 C 
BRANCH  29  30
ATOM     30  C   UNL     1      -2.389   3.663   1.362  0.00  0.00    +0.054 C 
BRANCH  30  37
ATOM     31  C   UNL     1      -4.848   3.016  -0.011  0.00  0.00    +0.044 C 
ATOM     32  C   UNL     1      -3.523   2.811  -0.700  0.00  0.00    -0.047 A 
ATOM     33  C   UNL     1      -3.485   2.318  -1.991  0.00  0.00    +0.003 A 
ATOM     34  C   UNL     1      -2.271   2.130  -2.623  0.00  0.00    +0.000 A 
ATOM     35  C   UNL     1      -1.094   2.435  -1.965  0.00  0.00    +0.000 A 
ATOM     36  C   UNL     1      -1.132   2.928  -0.674  0.00  0.00    +0.004 A 
ATOM     37  C   UNL     1      -2.347   3.120  -0.043  0.00  0.00    -0.043 A 
ENDBRANCH  30  37
ENDBRANCH  29  30
ENDBRANCH  25  29
ENDBRANCH   1  26
TORSDOF 7
