REMARK  Name = ZINC03299625
REMARK  7 active torsions:
REMARK  status: ('A' for Active; 'I' for Inactive)
REMARK    1  A    between atoms: C_3  and  C_6
REMARK    2  A    between atoms: C_9  and  S_12
REMARK    3  A    between atoms: N_10  and  N_11
REMARK    4  A    between atoms: S_12  and  C_13
REMARK    5  A    between atoms: C_13  and  C_14
REMARK    6  A    between atoms: C_17  and  C_29
REMARK    7  A    between atoms: C_20  and  C_22
REMARK                            x       y       z     vdW  Elec       q    Type
REMARK                         _______ _______ _______ _____ _____    ______ ____
ROOT
ATOM      1  C   UNL     1       9.784  -0.522   0.166  0.00  0.00    +0.243 C 
ATOM      2  O   UNL     1       9.816  -1.696   0.466  0.00  0.00    -0.273 OA
ATOM      3  N   UNL     1      10.933   0.156  -0.026  0.00  0.00    -0.207 N 
ATOM      4  C   UNL     1      12.302  -0.373   0.082  0.00  0.00    +0.187 C 
ATOM      5  C   UNL     1      13.196   0.805  -0.232  0.00  0.00    +0.030 C 
ATOM      6  C   UNL     1      12.408   1.848  -0.479  0.00  0.00    +0.050 C 
ATOM      7  N   UNL     1      11.066   1.507  -0.374  0.00  0.00    -0.261 N 
ATOM      8  H   UNL     1      10.326   2.118  -0.519  0.00  0.00    +0.170 HD
ENDROOT
BRANCH   6   9
ATOM      9  C   UNL     1      12.899   3.200  -0.829  0.00  0.00    -0.003 A 
ATOM     10  C   UNL     1      14.269   3.444  -0.922  0.00  0.00    +0.011 A 
ATOM     11  C   UNL     1      14.722   4.706  -1.248  0.00  0.00    +0.020 A 
ATOM     12  C   UNL     1      13.819   5.729  -1.484  0.00  0.00    +0.041 A 
ATOM     13  C   UNL     1      12.458   5.492  -1.393  0.00  0.00    +0.020 A 
ATOM     14  C   UNL     1      11.994   4.233  -1.072  0.00  0.00    +0.011 A 
ATOM     15 CL   UNL     1      14.396   7.314  -1.893  0.00  0.00    -0.084 Cl
ENDBRANCH   6   9
BRANCH   4  16
ATOM     16  C   UNL     1      12.562  -0.875   1.479  0.00  0.00    +0.131 A 
ATOM     17  C   UNL     1      13.247  -1.988   1.800  0.00  0.00    +0.047 A 
ATOM     18  C   UNL     1      13.246  -2.075   3.212  0.00  0.00    +0.041 A 
ATOM     19  C   UNL     1      12.561  -1.012   3.668  0.00  0.00    +0.195 A 
ATOM     20  O   UNL     1      12.154  -0.285   2.614  0.00  0.00    -0.466 OA
ENDBRANCH   4  16
BRANCH   1  21
ATOM     21  C   UNL     1       8.459   0.179   0.007  0.00  0.00    +0.175 C 
BRANCH  21  22
ATOM     22  S   UNL     1       7.112  -0.992   0.328  0.00  0.00    -0.075 S 
BRANCH  22  26
ATOM     23  C   UNL     1       3.568   0.618  -0.029  0.00  0.00    +0.217 A 
ATOM     24  N   UNL     1       4.372   1.623  -0.299  0.00  0.00    -0.123 NA
ATOM     25  N   UNL     1       5.596   1.239  -0.220  0.00  0.00    -0.120 NA
ATOM     26  C   UNL     1       5.651  -0.033   0.105  0.00  0.00    +0.209 A 
ATOM     27  N   UNL     1       4.364  -0.472   0.244  0.00  0.00    -0.221 N 
BRANCH  23  30
ATOM     28  C   UNL     1      -0.016   1.344   0.009  0.00  0.00    +0.042 A 
ATOM     29  C   UNL     1       1.324   1.776  -0.001  0.00  0.00    +0.053 A 
ATOM     30  C   UNL     1       2.098   0.654  -0.015  0.00  0.00    +0.173 A 
ATOM     31  O   UNL     1       1.280  -0.418  -0.012  0.00  0.00    -0.460 OA
ATOM     32  C   UNL     1       0.002  -0.004   0.002  0.00  0.00    +0.196 A 
ENDBRANCH  23  30
BRANCH  27  33
ATOM     33  N   UNL     1       3.953  -1.731   0.581  0.00  0.00    -0.294 N 
ATOM     34  H   UNL     1       3.830  -2.303  -0.241  0.00  0.00    +0.163 HD
ATOM     35  H   UNL     1       4.598  -2.161   1.227  0.00  0.00    +0.163 HD
ENDBRANCH  27  33
ENDBRANCH  22  26
ENDBRANCH  21  22
ENDBRANCH   1  21
TORSDOF 7
