REMARK  Name = ZINC38573732
REMARK  5 active torsions:
REMARK  status: ('A' for Active; 'I' for Inactive)
REMARK    1  A    between atoms: C_4  and  C_7
REMARK    2  A    between atoms: C_7  and  C_8
REMARK    3  A    between atoms: C_8  and  C_10
REMARK    4  A    between atoms: C_8  and  N_27
REMARK    5  A    between atoms: C_28  and  C_30
REMARK                            x       y       z     vdW  Elec       q    Type
REMARK                         _______ _______ _______ _____ _____    ______ ____
ROOT
ATOM      1  C   UNL     1       5.422  -1.804   1.383  0.00  0.00    +0.236 C 
ATOM      2  O   UNL     1       6.506  -1.282   1.528  0.00  0.00    -0.274 OA
ATOM      3  N   UNL     1       5.334  -3.138   1.209  0.00  0.00    -0.300 N 
ATOM      4  C   UNL     1       4.028  -3.786   1.027  0.00  0.00    +0.106 C 
ATOM      5  C   UNL     1       3.888  -4.911   2.057  0.00  0.00    +0.009 C 
ATOM      6  C   UNL     1       5.083  -5.858   1.938  0.00  0.00    -0.037 C 
ATOM      7  C   UNL     1       6.378  -5.096   2.225  0.00  0.00    +0.009 C 
ATOM      8  C   UNL     1       6.544  -3.972   1.192  0.00  0.00    +0.106 C 
ATOM      9  C   UNL     1       4.930  -7.007   2.936  0.00  0.00    +0.140 C 
ATOM     10  C   UNL     1       6.085  -7.962   2.647  0.00  0.00    +0.042 C 
ATOM     11  N   UNL     1       6.715  -8.099   3.747  0.00  0.00    -0.243 NA
ATOM     12  C   UNL     1       6.207  -7.300   4.718  0.00  0.00    +0.216 C 
ATOM     13  N   UNL     1       5.166  -6.599   4.321  0.00  0.00    -0.264 NA
ATOM     14  C   UNL     1       6.369  -8.453   1.250  0.00  0.00    +0.034 C 
ATOM     15  C   UNL     1       6.352  -7.201   0.351  0.00  0.00    -0.076 C 
ATOM     16  N   UNL     1       5.133  -6.423   0.582  0.00  0.00    +0.385 N 
ATOM     17  H   UNL     1       4.332  -7.021   0.447  0.00  0.00    -0.085 HD
ATOM     18  H   UNL     1       5.093  -5.670  -0.088  0.00  0.00    -0.085 HD
ENDROOT
BRANCH   1  19
ATOM     19  C   UNL     1       4.171  -0.963   1.399  0.00  0.00    +0.164 C 
BRANCH  19  20
ATOM     20  N   UNL     1       4.451   0.315   2.057  0.00  0.00    -0.297 N 
ATOM     21  C   UNL     1       5.392   1.140   1.556  0.00  0.00    +0.280 C 
ATOM     22  O   UNL     1       6.009   0.822   0.557  0.00  0.00    -0.267 OA
ATOM     23  H   UNL     1       3.959   0.568   2.854  0.00  0.00    +0.150 HD
BRANCH  21  24
ATOM     24  C   UNL     1       5.672   2.419   2.215  0.00  0.00    +0.189 A 
ATOM     25  C   UNL     1       6.590   3.346   1.812  0.00  0.00    +0.054 A 
ATOM     26  C   UNL     1       6.522   4.407   2.727  0.00  0.00    +0.042 A 
ATOM     27  C   UNL     1       5.577   4.087   3.638  0.00  0.00    +0.196 A 
ATOM     28  O   UNL     1       5.064   2.890   3.324  0.00  0.00    -0.458 OA
ENDBRANCH  21  24
ENDBRANCH  19  20
BRANCH  19  29
ATOM     29  C   UNL     1       3.711  -0.707  -0.038  0.00  0.00    +0.067 C 
BRANCH  29  33
ATOM     30  C   UNL     1      -0.017   1.378   0.010  0.00  0.00    +0.000 A 
ATOM     31  C   UNL     1       1.171   2.086   0.002  0.00  0.00    +0.000 A 
ATOM     32  C   UNL     1       2.377   1.411  -0.013  0.00  0.00    +0.004 A 
ATOM     33  C   UNL     1       2.396   0.029  -0.020  0.00  0.00    -0.045 A 
ATOM     34  C   UNL     1       1.208  -0.679  -0.012  0.00  0.00    +0.004 A 
ATOM     35  C   UNL     1       0.002  -0.004   0.002  0.00  0.00    +0.000 A 
ENDBRANCH  29  33
ENDBRANCH  19  29
ENDBRANCH   1  19
TORSDOF 5
