REMARK  Name = ZINC11906444
REMARK  8 active torsions:
REMARK  status: ('A' for Active; 'I' for Inactive)
REMARK    1  A    between atoms: C_1  and  C_2
REMARK    2  A    between atoms: C_6  and  C_28
REMARK    3  A    between atoms: C_7  and  N_8
REMARK    4  A    between atoms: N_8  and  S_9
REMARK    5  A    between atoms: S_9  and  C_12
REMARK    6  A    between atoms: C_13  and  C_27
REMARK    7  A    between atoms: C_15  and  N_19
REMARK    8  A    between atoms: C_17  and  C_18
REMARK                            x       y       z     vdW  Elec       q    Type
REMARK                         _______ _______ _______ _____ _____    ______ ____
ROOT
ATOM      1  C   UNL     1      -2.076   1.115   1.355  0.00  0.00    +0.114 A 
ATOM      2  C   UNL     1      -2.556   1.138   2.651  0.00  0.00    -0.022 A 
ATOM      3  C   UNL     1      -1.709   0.864   3.707  0.00  0.00    +0.030 A 
ATOM      4  C   UNL     1      -0.376   0.559   3.466  0.00  0.00    +0.060 A 
ATOM      5  C   UNL     1       0.102   0.531   2.162  0.00  0.00    +0.030 A 
ATOM      6  C   UNL     1      -0.750   0.806   1.110  0.00  0.00    -0.022 A 
ATOM      7  C   UNL     1      -0.233   0.777  -0.305  0.00  0.00    +0.046 C 
ATOM      8  C   UNL     1      -4.003   1.469   2.912  0.00  0.00    +0.046 C 
ENDROOT
BRANCH   4   9
ATOM      9  N   UNL     1       0.484   0.281   4.534  0.00  0.00    -0.144 N 
ATOM     10  C   UNL     1       1.600  -0.462   4.476  0.00  0.00    +0.240 C 
ATOM     11  O   UNL     1       1.971  -0.943   3.426  0.00  0.00    -0.274 OA
ATOM     12  C   UNL     1       2.380  -0.681   5.736  0.00  0.00    +0.122 C 
ATOM     13  C   UNL     1       1.967   0.400   6.771  0.00  0.00    +0.198 C 
ATOM     14  S   UNL     1       0.299   0.809   6.112  0.00  0.00    +0.052 S 
ATOM     15  O   UNL     1       0.118   2.216   6.027  0.00  0.00    -0.155 OA
ATOM     16  O   UNL     1      -0.694  -0.031   6.684  0.00  0.00    -0.155 OA
ENDBRANCH   4   9
BRANCH   1  17
ATOM     17  S   UNL     1      -3.158   1.472   0.010  0.00  0.00    +0.073 S 
ATOM     18  O   UNL     1      -4.269   2.167   0.557  0.00  0.00    -0.150 OA
ATOM     19  O   UNL     1      -2.352   2.017  -1.026  0.00  0.00    -0.150 OA
BRANCH  17  20
ATOM     20  N   UNL     1      -3.735   0.025  -0.551  0.00  0.00    -0.216 N 
ATOM     21  H   UNL     1      -4.673  -0.198  -0.444  0.00  0.00    +0.174 HD
BRANCH  20  28
ATOM     22  C   UNL     1      -2.865   0.623  -3.194  0.00  0.00    +0.046 C 
ATOM     23  C   UNL     1      -2.422  -0.623  -2.470  0.00  0.00    -0.028 A 
ATOM     24  C   UNL     1      -1.564  -1.512  -3.088  0.00  0.00    +0.005 A 
ATOM     25  C   UNL     1      -1.161  -2.658  -2.427  0.00  0.00    +0.001 A 
ATOM     26  C   UNL     1      -1.610  -2.915  -1.145  0.00  0.00    +0.005 A 
ATOM     27  C   UNL     1      -2.464  -2.027  -0.520  0.00  0.00    -0.028 A 
ATOM     28  C   UNL     1      -2.871  -0.875  -1.181  0.00  0.00    +0.054 A 
ATOM     29  C   UNL     1      -2.953  -2.308   0.878  0.00  0.00    +0.046 C 
ENDBRANCH  20  28
ENDBRANCH  17  20
ENDBRANCH   1  17
TORSDOF 4
