REMARK  Name = ZINC11911567
REMARK  9 active torsions:
REMARK  status: ('A' for Active; 'I' for Inactive)
REMARK    1  A    between atoms: C_1  and  O_2
REMARK    2  A    between atoms: O_2  and  C_3
REMARK    3  A    between atoms: C_6  and  C_9
REMARK    4  A    between atoms: C_10  and  C_15
REMARK    5  A    between atoms: C_15  and  N_66
REMARK    6  A    between atoms: C_18  and  C_21
REMARK    7  A    between atoms: C_21  and  C_28
REMARK    8  A    between atoms: C_28  and  C_29
REMARK    9  A    between atoms: C_29  and  C_30
REMARK                            x       y       z     vdW  Elec       q    Type
REMARK                         _______ _______ _______ _____ _____    ______ ____
ROOT
ATOM      1  C   UNL     1      -4.827   3.692   3.869  0.00  0.00    -0.078 C 
ATOM      2  C   UNL     1      -4.461   3.049   2.529  0.00  0.00    -0.013 C 
ATOM      3  C   UNL     1      -3.150   2.273   2.682  0.00  0.00    +0.018 C 
ATOM      4  C   UNL     1      -3.312   1.224   3.785  0.00  0.00    -0.013 C 
ATOM      5  C   UNL     1      -3.713   1.919   5.088  0.00  0.00    -0.078 C 
ATOM      6  N   UNL     1      -4.994   2.628   4.881  0.00  0.00    +0.382 N 
ATOM      7  H   UNL     1      -5.695   1.957   4.547  0.00  0.00    -0.081 HD
ENDROOT
BRANCH   3   8
ATOM      8  C   UNL     1      -2.811   1.578   1.361  0.00  0.00    +0.115 C 
ATOM      9  C   UNL     1      -3.990   0.761   0.870  0.00  0.00    +0.244 C 
ATOM     10  O   UNL     1      -4.517  -0.174   1.432  0.00  0.00    -0.273 OA
ATOM     11  N   UNL     1      -4.329   1.293  -0.321  0.00  0.00    -0.238 N 
ATOM     12  C   UNL     1      -3.537   2.320  -0.647  0.00  0.00    +0.307 C 
ATOM     13  O   UNL     1      -3.648   2.960  -1.675  0.00  0.00    -0.252 OA
ATOM     14  N   UNL     1      -2.603   2.567   0.290  0.00  0.00    -0.285 N 
ATOM     15  H   UNL     1      -5.058   0.970  -0.874  0.00  0.00    +0.159 HD
ATOM     16  H   UNL     1      -1.926   3.261   0.265  0.00  0.00    +0.151 HD
BRANCH   8  17
ATOM     17  C   UNL     1      -1.573   0.693   1.524  0.00  0.00    +0.040 C 
BRANCH  17  18
ATOM     18  C   UNL     1      -1.150   0.152   0.157  0.00  0.00    +0.038 C 
BRANCH  18  19
ATOM     19  C   UNL     1       0.068  -0.720   0.316  0.00  0.00    -0.047 A 
ATOM     20  C   UNL     1       1.331  -0.166   0.224  0.00  0.00    +0.003 A 
ATOM     21  C   UNL     1       2.450  -0.967   0.364  0.00  0.00    +0.000 A 
ATOM     22  C   UNL     1       2.305  -2.321   0.597  0.00  0.00    +0.000 A 
ATOM     23  C   UNL     1       1.042  -2.876   0.691  0.00  0.00    +0.000 A 
ATOM     24  C   UNL     1      -0.076  -2.075   0.550  0.00  0.00    +0.003 A 
ENDBRANCH  18  19
ENDBRANCH  17  18
ENDBRANCH   8  17
ENDBRANCH   3   8
BRANCH   6  25
ATOM     25  C   UNL     1      -5.458   3.213   6.156  0.00  0.00    -0.039 C 
BRANCH  25  27
ATOM     26  C   UNL     1      -7.161   1.389   6.885  0.00  0.00    +0.094 A 
ATOM     27  C   UNL     1      -5.956   2.102   7.044  0.00  0.00    -0.019 A 
ATOM     28  C   UNL     1      -5.329   1.616   8.138  0.00  0.00    +0.107 A 
ATOM     29  N   UNL     1      -6.096   0.632   8.655  0.00  0.00    -0.284 N 
ATOM     30  H   UNL     1      -5.885   0.090   9.468  0.00  0.00    +0.188 HD
ATOM     31  N   UNL     1      -7.238   0.502   7.854  0.00  0.00    -0.174 NA
BRANCH  26  35
ATOM     32  C   UNL     1     -10.040   1.994   3.812  0.00  0.00    +0.120 A 
ATOM     33  C   UNL     1      -9.681   0.704   4.181  0.00  0.00    +0.046 A 
ATOM     34  C   UNL     1      -8.748   0.506   5.177  0.00  0.00    +0.013 A 
ATOM     35  C   UNL     1      -8.165   1.600   5.813  0.00  0.00    +0.003 A 
ATOM     36  C   UNL     1      -8.531   2.893   5.443  0.00  0.00    +0.013 A 
ATOM     37  C   UNL     1      -9.461   3.086   4.443  0.00  0.00    +0.046 A 
BRANCH  32  39
ATOM     38  C   UNL     1     -11.283   3.539   2.501  0.00  0.00    +0.277 C 
ATOM     39  O   UNL     1     -10.960   2.187   2.831  0.00  0.00    -0.495 OA
ENDBRANCH  32  39
ENDBRANCH  26  35
ENDBRANCH  25  27
ENDBRANCH   6  25
TORSDOF 8
