REMARK  Name = ZINC64048408
REMARK  8 active torsions:
REMARK  status: ('A' for Active; 'I' for Inactive)
REMARK    1  A    between atoms: C_1  and  C_2
REMARK    2  A    between atoms: C_2  and  N_3
REMARK    3  A    between atoms: N_3  and  C_4
REMARK    4  A    between atoms: C_4  and  C_5
REMARK    5  A    between atoms: C_14  and  C_16
REMARK    6  A    between atoms: C_19  and  N_22
REMARK    7  A    between atoms: N_22  and  S_23
REMARK    8  A    between atoms: S_23  and  C_26
REMARK                            x       y       z     vdW  Elec       q    Type
REMARK                         _______ _______ _______ _____ _____    ______ ____
ROOT
ATOM      1  C   UNL     1      -1.071  -0.356   2.543  0.00  0.00    +0.037 A 
ATOM      2  C   UNL     1       0.172   0.245   2.319  0.00  0.00    +0.015 A 
ATOM      3  C   UNL     1       0.940   0.651   3.386  0.00  0.00    +0.025 A 
ATOM      4  C   UNL     1       0.481   0.465   4.687  0.00  0.00    +0.048 A 
ATOM      5  C   UNL     1      -0.756  -0.133   4.913  0.00  0.00    +0.025 A 
ATOM      6  C   UNL     1      -1.531  -0.536   3.850  0.00  0.00    +0.015 A 
ENDROOT
BRANCH   1   8
ATOM      7  N   UNL     1      -1.309  -1.310   0.304  0.00  0.00    -0.293 N 
ATOM      8  C   UNL     1      -1.896  -0.792   1.401  0.00  0.00    +0.247 C 
ATOM      9  O   UNL     1      -3.107  -0.685   1.449  0.00  0.00    -0.270 OA
BRANCH   7  11
ATOM     10  C   UNL     1       0.780  -0.406  -0.588  0.00  0.00    +0.024 C 
ATOM     11  C   UNL     1       0.143  -1.500   0.270  0.00  0.00    +0.105 C 
ENDBRANCH   7  11
BRANCH   7  12
ATOM     12  C   UNL     1      -2.124  -1.684  -0.855  0.00  0.00    +0.143 C 
BRANCH  12  13
ATOM     13  C   UNL     1      -2.561  -3.120  -0.720  0.00  0.00    -0.026 A 
ATOM     14  C   UNL     1      -1.772  -4.133  -1.232  0.00  0.00    +0.009 A 
ATOM     15  C   UNL     1      -2.169  -5.452  -1.109  0.00  0.00    +0.050 A 
ATOM     16  C   UNL     1      -3.360  -5.761  -0.473  0.00  0.00    +0.166 A 
ATOM     17  C   UNL     1      -4.155  -4.740   0.042  0.00  0.00    +0.167 A 
ATOM     18  C   UNL     1      -3.748  -3.422  -0.079  0.00  0.00    +0.054 A 
ATOM     19  O   UNL     1      -5.263  -5.297   0.614  0.00  0.00    -0.453 OA
ATOM     20  C   UNL     1      -5.338  -6.634   0.084  0.00  0.00    +0.466 C 
ATOM     21  O   UNL     1      -3.969  -6.957  -0.225  0.00  0.00    -0.453 OA
ENDBRANCH  12  13
ENDBRANCH   7  12
ENDBRANCH   1   8
BRANCH   4  22
ATOM     22  N   UNL     1       1.259   0.876   5.763  0.00  0.00    -0.216 N 
ATOM     23  H   UNL     1       2.206   0.666   5.786  0.00  0.00    +0.174 HD
BRANCH  22  24
ATOM     24  S   UNL     1       0.570   1.726   7.007  0.00  0.00    +0.072 S 
ATOM     25  O   UNL     1      -0.560   0.977   7.433  0.00  0.00    -0.150 OA
ATOM     26  O   UNL     1       1.625   2.081   7.890  0.00  0.00    -0.150 OA
BRANCH  24  27
ATOM     27  C   UNL     1      -0.049   3.230   6.330  0.00  0.00    +0.110 A 
ATOM     28  C   UNL     1       0.857   4.363   6.180  0.00  0.00    +0.031 A 
ATOM     29  C   UNL     1       0.447   5.544   5.668  0.00  0.00    +0.027 A 
ATOM     30  C   UNL     1      -0.944   5.704   5.248  0.00  0.00    +0.056 A 
ATOM     31  N   UNL     1      -1.646   6.681   4.730  0.00  0.00    -0.268 N 
ATOM     32  C   UNL     1      -2.934   6.238   4.544  0.00  0.00    +0.308 C 
ATOM     33  O   UNL     1      -3.838   6.900   4.080  0.00  0.00    -0.252 OA
ATOM     34  N   UNL     1      -3.043   4.933   4.962  0.00  0.00    -0.267 N 
ATOM     35  C   UNL     1      -1.874   4.541   5.403  0.00  0.00    +0.058 A 
ATOM     36  C   UNL     1      -1.347   3.297   5.961  0.00  0.00    +0.054 A 
ATOM     37  H   UNL     1      -3.849   4.394   4.936  0.00  0.00    +0.156 HD
ATOM     38  H   UNL     1      -1.313   7.566   4.515  0.00  0.00    +0.156 HD
ENDBRANCH  24  27
ENDBRANCH  22  24
ENDBRANCH   4  22
TORSDOF 7
