REMARK  Name = ZINC05276277
REMARK  6 active torsions:
REMARK  status: ('A' for Active; 'I' for Inactive)
REMARK    1  A    between atoms: C_1  and  C_2
REMARK    2  A    between atoms: C_4  and  C_22
REMARK    3  A    between atoms: C_13  and  N_53
REMARK    4  A    between atoms: C_26  and  O_29
REMARK    5  A    between atoms: C_27  and  O_28
REMARK    6  A    between atoms: O_29  and  C_30
REMARK                            x       y       z     vdW  Elec       q    Type
REMARK                         _______ _______ _______ _____ _____    ______ ____
ROOT
ATOM      1  C   UNL     1       7.479   3.771  -0.150  0.00  0.00    +0.010 C 
ATOM      2  C   UNL     1       5.966   3.654  -0.345  0.00  0.00    +0.021 C 
ATOM      3  C   UNL     1       5.552   2.181  -0.294  0.00  0.00    +0.061 C 
ATOM      4  C   UNL     1       4.051   2.078  -0.187  0.00  0.00    +0.006 A 
ATOM      5  C   UNL     1       3.443   0.871  -0.496  0.00  0.00    +0.057 A 
ATOM      6  C   UNL     1       2.070   0.736  -0.406  0.00  0.00    +0.167 A 
ATOM      7  C   UNL     1       1.293   1.818  -0.001  0.00  0.00    +0.170 A 
ATOM      8  C   UNL     1       1.900   3.022   0.307  0.00  0.00    +0.095 A 
ATOM      9  C   UNL     1       3.282   3.156   0.213  0.00  0.00    +0.126 A 
ATOM     10  O   UNL     1       3.837   4.358   0.519  0.00  0.00    -0.506 OA
ATOM     11  C   UNL     1       5.240   4.397   0.784  0.00  0.00    +0.127 C 
ATOM     12  O   UNL     1      -0.017   1.436   0.010  0.00  0.00    -0.452 OA
ATOM     13  C   UNL     1       0.002  -0.004   0.002  0.00  0.00    +0.466 C 
ATOM     14  O   UNL     1       1.245  -0.326  -0.650  0.00  0.00    -0.453 OA
ENDROOT
BRANCH  11  19
ATOM     15  C   UNL     1       5.468   6.472  -0.470  0.00  0.00    -0.074 C 
ATOM     16  C   UNL     1       5.494   7.975  -0.094  0.00  0.00    -0.020 C 
ATOM     17  C   UNL     1       4.790   7.999   1.282  0.00  0.00    -0.020 C 
ATOM     18  C   UNL     1       4.930   6.567   1.831  0.00  0.00    -0.074 C 
ATOM     19  N   UNL     1       5.693   5.820   0.830  0.00  0.00    +0.404 N 
ATOM     20  H   UNL     1       6.692   5.848   1.064  0.00  0.00    -0.076 HD
ENDBRANCH  11  19
BRANCH   3  21
ATOM     21  C   UNL     1       6.014   1.487  -1.550  0.00  0.00    +0.006 A 
ATOM     22  C   UNL     1       5.555   1.913  -2.784  0.00  0.00    +0.008 A 
ATOM     23  C   UNL     1       5.981   1.282  -3.937  0.00  0.00    +0.004 A 
ATOM     24  C   UNL     1       6.859   0.216  -3.863  0.00  0.00    +0.049 A 
ATOM     25  C   UNL     1       7.317  -0.219  -2.630  0.00  0.00    +0.162 A 
ATOM     26  C   UNL     1       6.893   0.420  -1.468  0.00  0.00    +0.162 A 
BRANCH  26  27
ATOM     27  O   UNL     1       7.340  -0.004  -0.256  0.00  0.00    -0.503 OA
ATOM     28  H   UNL     1       6.786  -0.684   0.152  0.00  0.00    +0.292 HD
ENDBRANCH  26  27
BRANCH  25  29
ATOM     29  O   UNL     1       8.180  -1.267  -2.555  0.00  0.00    -0.491 OA
ATOM     30  C   UNL     1       8.572  -1.874  -3.788  0.00  0.00    +0.277 C 
ENDBRANCH  25  29
ENDBRANCH   3  21
TORSDOF 4
