REMARK  Name = ZINC15775734
REMARK  6 active torsions:
REMARK  status: ('A' for Active; 'I' for Inactive)
REMARK    1  A    between atoms: C_1  and  C_2
REMARK    2  A    between atoms: C_5  and  S_8
REMARK    3  A    between atoms: S_8  and  N_11
REMARK    4  A    between atoms: N_13  and  C_17
REMARK    5  A    between atoms: C_17  and  C_18
REMARK    6  A    between atoms: N_20  and  C_21
REMARK                            x       y       z     vdW  Elec       q    Type
REMARK                         _______ _______ _______ _____ _____    ______ ____
ROOT
ATOM      1  N   UNL     1       2.640   0.847   2.400  0.00  0.00    -0.102 NA
ATOM      2  C   UNL     1       2.964   0.580   1.158  0.00  0.00    +0.212 A 
ATOM      3  N   UNL     1       2.407   1.044  -0.012  0.00  0.00    -0.231 N 
ATOM      4  N   UNL     1       2.944   0.605  -1.201  0.00  0.00    -0.170 NA
ATOM      5  C   UNL     1       3.943  -0.225  -1.217  0.00  0.00    +0.181 A 
ATOM      6  S   UNL     1       4.247  -0.489   0.522  0.00  0.00    -0.035 S 
ENDROOT
BRANCH   1   7
ATOM      7  S   UNL     1       3.481   0.148   3.644  0.00  0.00    +0.101 S 
ATOM      8  O   UNL     1       3.209  -1.246   3.584  0.00  0.00    -0.146 OA
ATOM      9  O   UNL     1       4.801   0.670   3.586  0.00  0.00    -0.146 OA
BRANCH   7  14
ATOM     10  C   UNL     1       1.056   2.158   8.790  0.00  0.00    +0.044 C 
ATOM     11  C   UNL     1       1.661   1.656   7.504  0.00  0.00    -0.050 A 
ATOM     12  C   UNL     1       1.173   0.505   6.914  0.00  0.00    +0.005 A 
ATOM     13  C   UNL     1       1.729   0.045   5.735  0.00  0.00    +0.029 A 
ATOM     14  C   UNL     1       2.772   0.735   5.146  0.00  0.00    +0.113 A 
ATOM     15  C   UNL     1       3.263   1.883   5.740  0.00  0.00    +0.029 A 
ATOM     16  C   UNL     1       2.704   2.347   6.916  0.00  0.00    +0.005 A 
ENDBRANCH   7  14
ENDBRANCH   1   7
BRANCH   3  17
ATOM     17  C   UNL     1       1.280   1.980   0.007  0.00  0.00    +0.242 C 
BRANCH  17  18
ATOM     18  C   UNL     1      -0.014   1.209   0.007  0.00  0.00    +0.239 C 
ATOM     19  O   UNL     1       0.002  -0.004  -0.008  0.00  0.00    -0.273 OA
ATOM     20  N   UNL     1      -1.191   1.867   0.018  0.00  0.00    -0.284 N 
ATOM     21  H   UNL     1      -1.205   2.833   0.098  0.00  0.00    +0.155 HD
BRANCH  20  22
ATOM     22  C   UNL     1      -2.391   1.155  -0.086  0.00  0.00    +0.034 A 
ATOM     23  C   UNL     1      -3.468   1.704  -0.769  0.00  0.00    +0.024 A 
ATOM     24  C   UNL     1      -4.650   0.997  -0.875  0.00  0.00    +0.017 A 
ATOM     25  C   UNL     1      -4.765  -0.252  -0.291  0.00  0.00    +0.018 A 
ATOM     26  C   UNL     1      -3.696  -0.799   0.395  0.00  0.00    +0.017 A 
ATOM     27  C   UNL     1      -2.510  -0.099   0.499  0.00  0.00    +0.024 A 
ATOM     28 BR   UNL     1      -6.388  -1.213  -0.432  0.00  0.00    -0.050 Br
ENDBRANCH  20  22
ENDBRANCH  17  18
ENDBRANCH   3  17
TORSDOF 5
