REMARK  Name = ZINC49022827
REMARK  8 active torsions:
REMARK  status: ('A' for Active; 'I' for Inactive)
REMARK    1  A    between atoms: C_1  and  C_2
REMARK    2  A    between atoms: C_2  and  C_3
REMARK    3  A    between atoms: C_3  and  C_5
REMARK    4  A    between atoms: C_3  and  N_8
REMARK    5  A    between atoms: C_5  and  C_6
REMARK    6  A    between atoms: C_5  and  C_7
REMARK    7  A    between atoms: C_9  and  C_11
REMARK    8  A    between atoms: N_13  and  C_14
REMARK                            x       y       z     vdW  Elec       q    Type
REMARK                         _______ _______ _______ _____ _____    ______ ____
ROOT
ATOM      1  C   UNL     1      -4.085   0.324   2.619  0.00  0.00    +0.303 C 
ATOM      2  O   UNL     1      -3.413   0.526   3.610  0.00  0.00    -0.265 OA
ATOM      3  N   UNL     1      -5.426   0.434   2.680  0.00  0.00    -0.278 N 
ATOM      4  H   UNL     1      -5.958   0.339   1.874  0.00  0.00    +0.155 HD
ENDROOT
BRANCH   3   5
ATOM      5  C   UNL     1      -6.052   0.686   3.904  0.00  0.00    +0.034 A 
ATOM      6  C   UNL     1      -7.288   0.117   4.184  0.00  0.00    +0.024 A 
ATOM      7  C   UNL     1      -7.904   0.368   5.394  0.00  0.00    +0.016 A 
ATOM      8  C   UNL     1      -7.291   1.184   6.327  0.00  0.00    +0.013 A 
ATOM      9  C   UNL     1      -6.060   1.752   6.052  0.00  0.00    +0.016 A 
ATOM     10  C   UNL     1      -5.436   1.500   4.846  0.00  0.00    +0.024 A 
ATOM     11  I   UNL     1      -8.229   1.562   8.162  0.00  0.00    -0.044 I 
ENDBRANCH   3   5
BRANCH   1  13
ATOM     12  N   UNL     1      -2.081  -0.157   1.271  0.00  0.00    -0.304 N 
ATOM     13  C   UNL     1      -3.423  -0.047   1.332  0.00  0.00    +0.300 C 
ATOM     14  O   UNL     1      -4.094  -0.249   0.341  0.00  0.00    -0.265 OA
ATOM     15  H   UNL     1      -1.545   0.004   2.063  0.00  0.00    +0.149 HD
BRANCH  12  16
ATOM     16  C   UNL     1      -1.433  -0.521   0.009  0.00  0.00    +0.076 C 
BRANCH  16  17
ATOM     17  C   UNL     1      -1.418  -2.044  -0.136  0.00  0.00    +0.003 C 
ATOM     18  C   UNL     1      -2.854  -2.571  -0.130  0.00  0.00    +0.009 C 
ATOM     19  C   UNL     1      -0.740  -2.424  -1.454  0.00  0.00    +0.009 C 
ENDBRANCH  16  17
BRANCH  16  21
ATOM     20  C   UNL     1      -0.015   1.536   0.023  0.00  0.00    +0.006 C 
ATOM     21  C   UNL     1       0.004   0.006   0.003  0.00  0.00    +0.019 C 
ENDBRANCH  16  21
ENDBRANCH  12  16
ENDBRANCH   1  13
TORSDOF 5
