REMARK  Name = ZINC01068582
REMARK  4 active torsions:
REMARK  status: ('A' for Active; 'I' for Inactive)
REMARK    1  A    between atoms: C_1  and  C_2
REMARK    2  A    between atoms: C_4  and  C_25
REMARK    3  A    between atoms: C_8  and  N_24
REMARK    4  A    between atoms: C_9  and  C_11
REMARK                            x       y       z     vdW  Elec       q    Type
REMARK                         _______ _______ _______ _____ _____    ______ ____
ROOT
ATOM      1  C   UNL     1      -2.615  -0.492  -0.080  0.00  0.00    +0.175 A 
ATOM      2  N   UNL     1      -1.566  -1.317  -0.097  0.00  0.00    -0.194 NA
ATOM      3  C   UNL     1      -1.756  -2.629  -0.178  0.00  0.00    +0.217 A 
ATOM      4  N   UNL     1      -2.990  -3.121  -0.243  0.00  0.00    -0.181 NA
ATOM      5  C   UNL     1      -4.036  -2.301  -0.226  0.00  0.00    +0.223 A 
ATOM      6  N   UNL     1      -3.852  -0.988  -0.139  0.00  0.00    -0.194 NA
ATOM      7  N   UNL     1      -5.316  -2.815  -0.294  0.00  0.00    -0.295 N 
ATOM      8  C   UNL     1      -6.122  -2.373   0.853  0.00  0.00    +0.136 C 
ATOM      9  C   UNL     1      -7.547  -2.915   0.707  0.00  0.00    +0.179 C 
ATOM     10  O   UNL     1      -7.500  -4.340   0.595  0.00  0.00    -0.377 OA
ATOM     11  C   UNL     1      -6.723  -4.805  -0.512  0.00  0.00    +0.179 C 
ATOM     12  C   UNL     1      -5.291  -4.282  -0.379  0.00  0.00    +0.136 C 
ATOM     13  N   UNL     1      -0.671  -3.483  -0.196  0.00  0.00    -0.327 N 
ATOM     14  H   UNL     1       0.229  -3.125  -0.149  0.00  0.00    +0.145 HD
ATOM     15  H   UNL     1      -0.809  -4.441  -0.255  0.00  0.00    +0.145 HD
ENDROOT
BRANCH   1  24
ATOM     16  C   UNL     1       1.236   3.507   0.263  0.00  0.00    +0.044 C 
ATOM     17  C   UNL     1      -0.186   4.006   0.249  0.00  0.00    -0.037 A 
ATOM     18  C   UNL     1      -0.455   5.353   0.318  0.00  0.00    +0.027 A 
ATOM     19  C   UNL     1      -1.764   5.809   0.305  0.00  0.00    +0.040 A 
ATOM     20  N   UNL     1      -2.768   4.957   0.227  0.00  0.00    -0.245 NA
ATOM     21  C   UNL     1      -2.563   3.660   0.159  0.00  0.00    +0.111 A 
ATOM     22  C   UNL     1      -1.267   3.094   0.171  0.00  0.00    +0.032 A 
ATOM     23  C   UNL     1      -1.230   1.642   0.083  0.00  0.00    +0.052 A 
ATOM     24  C   UNL     1      -2.407   0.961   0.009  0.00  0.00    +0.080 A 
ATOM     25  S   UNL     1      -3.637   2.251   0.047  0.00  0.00    -0.064 S 
ATOM     26  C   UNL     1      -2.042   7.288   0.381  0.00  0.00    +0.065 C 
BRANCH  23  27
ATOM     27  N   UNL     1      -0.013   0.961   0.079  0.00  0.00    -0.356 N 
ATOM     28  H   UNL     1       0.052   0.088  -0.338  0.00  0.00    +0.142 HD
ATOM     29  H   UNL     1       0.768   1.362   0.491  0.00  0.00    +0.142 HD
ENDBRANCH  23  27
ENDBRANCH   1  24
TORSDOF 2
