REMARK  Name = ZINC32593415
REMARK  6 active torsions:
REMARK  status: ('A' for Active; 'I' for Inactive)
REMARK    1  A    between atoms: C_1  and  C_2
REMARK    2  A    between atoms: C_4  and  C_27
REMARK    3  A    between atoms: C_9  and  C_13
REMARK    4  A    between atoms: N_15  and  C_16
REMARK    5  A    between atoms: N_20  and  C_21
REMARK    6  A    between atoms: C_21  and  C_22
REMARK                            x       y       z     vdW  Elec       q    Type
REMARK                         _______ _______ _______ _____ _____    ______ ____
ROOT
ATOM      1  C   UNL     1       2.816   0.201   0.936  0.00  0.00    +0.285 C 
ATOM      2  O   UNL     1       1.952  -0.624   1.160  0.00  0.00    -0.266 OA
ATOM      3  N   UNL     1       2.509   1.513   0.924  0.00  0.00    -0.264 N 
ATOM      4  H   UNL     1       3.291   2.260   0.722  0.00  0.00    +0.157 HD
ENDROOT
BRANCH   1  13
ATOM      5  C   UNL     1       9.671   2.187  -0.572  0.00  0.00    +0.044 C 
ATOM      6  C   UNL     1       8.674   1.089  -0.306  0.00  0.00    -0.047 A 
ATOM      7  C   UNL     1       9.091  -0.234  -0.315  0.00  0.00    +0.007 A 
ATOM      8  C   UNL     1       8.200  -1.243  -0.076  0.00  0.00    -0.036 A 
ATOM      9  C   UNL     1       6.863  -0.937   0.178  0.00  0.00    +0.067 A 
ATOM     10  C   UNL     1       5.870  -1.996   0.440  0.00  0.00    +0.193 A 
ATOM     11  O   UNL     1       6.179  -3.174   0.445  0.00  0.00    -0.287 OA
ATOM     12  C   UNL     1       4.490  -1.561   0.702  0.00  0.00    +0.103 A 
ATOM     13  C   UNL     1       4.208  -0.235   0.678  0.00  0.00    +0.194 A 
ATOM     14  O   UNL     1       5.141   0.696   0.434  0.00  0.00    -0.450 OA
ATOM     15  C   UNL     1       6.432   0.401   0.189  0.00  0.00    +0.140 A 
ATOM     16  C   UNL     1       7.357   1.411  -0.057  0.00  0.00    +0.050 A 
ATOM     17  C   UNL     1       8.659  -2.678  -0.086  0.00  0.00    +0.044 C 
ENDBRANCH   1  13
BRANCH   3  18
ATOM     18  C   UNL     1       1.200   1.924   1.167  0.00  0.00    +0.124 A 
ATOM     19  C   UNL     1       0.137   1.114   1.431  0.00  0.00    +0.065 A 
ATOM     20  C   UNL     1      -0.986   1.925   1.608  0.00  0.00    +0.136 A 
ATOM     21  N   UNL     1      -0.621   3.174   1.468  0.00  0.00    -0.178 NA
ATOM     22  N   UNL     1       0.750   3.205   1.186  0.00  0.00    -0.243 N 
BRANCH  22  23
ATOM     23  C   UNL     1       1.556   4.406   0.953  0.00  0.00    +0.219 C 
BRANCH  23  24
ATOM     24  C   UNL     1       1.550   4.739  -0.517  0.00  0.00    +0.126 A 
ATOM     25  C   UNL     1       0.658   5.530  -1.140  0.00  0.00    +0.046 A 
ATOM     26  C   UNL     1       1.028   5.567  -2.505  0.00  0.00    +0.041 A 
ATOM     27  C   UNL     1       2.118   4.790  -2.635  0.00  0.00    +0.195 A 
ATOM     28  O   UNL     1       2.429   4.291  -1.427  0.00  0.00    -0.466 OA
ENDBRANCH  23  24
ENDBRANCH  22  23
ENDBRANCH   3  18
TORSDOF 4
