REMARK  Name = ZINC39276553
REMARK  7 active torsions:
REMARK  status: ('A' for Active; 'I' for Inactive)
REMARK    1  A    between atoms: C_1  and  S_2
REMARK    2  A    between atoms: S_2  and  C_3
REMARK    3  A    between atoms: C_3  and  C_4
REMARK    4  A    between atoms: C_4  and  C_5
REMARK    5  A    between atoms: C_5  and  C_7
REMARK    6  A    between atoms: C_5  and  N_24
REMARK    7  A    between atoms: C_25  and  C_27
REMARK                            x       y       z     vdW  Elec       q    Type
REMARK                         _______ _______ _______ _____ _____    ______ ____
ROOT
ATOM      1  C   UNL     1       1.806  -3.790  -3.136  0.00  0.00    +0.236 C 
ATOM      2  O   UNL     1       2.894  -4.327  -3.119  0.00  0.00    -0.274 OA
ATOM      3  N   UNL     1       0.693  -4.529  -3.309  0.00  0.00    -0.300 N 
ATOM      4  C   UNL     1      -0.620  -3.884  -3.446  0.00  0.00    +0.106 C 
ATOM      5  C   UNL     1      -1.284  -4.386  -4.732  0.00  0.00    +0.009 C 
ATOM      6  C   UNL     1      -1.332  -5.914  -4.714  0.00  0.00    -0.037 C 
ATOM      7  C   UNL     1       0.088  -6.476  -4.650  0.00  0.00    +0.009 C 
ATOM      8  C   UNL     1       0.769  -5.995  -3.370  0.00  0.00    +0.106 C 
ATOM      9  C   UNL     1      -2.031  -6.421  -5.976  0.00  0.00    +0.140 C 
ATOM     10  C   UNL     1      -3.469  -5.921  -5.880  0.00  0.00    +0.042 C 
ATOM     11  N   UNL     1      -3.684  -5.253  -6.945  0.00  0.00    -0.243 NA
ATOM     12  C   UNL     1      -2.566  -5.151  -7.706  0.00  0.00    +0.216 C 
ATOM     13  N   UNL     1      -1.533  -5.791  -7.200  0.00  0.00    -0.264 NA
ATOM     14  C   UNL     1      -4.298  -6.144  -4.640  0.00  0.00    +0.034 C 
ATOM     15  C   UNL     1      -3.408  -5.723  -3.455  0.00  0.00    -0.076 C 
ATOM     16  N   UNL     1      -2.097  -6.370  -3.545  0.00  0.00    +0.385 N 
ATOM     17  H   UNL     1      -2.229  -7.369  -3.608  0.00  0.00    -0.085 HD
ATOM     18  H   UNL     1      -1.572  -6.163  -2.709  0.00  0.00    -0.085 HD
ENDROOT
BRANCH   1  19
ATOM     19  C   UNL     1       1.701  -2.297  -2.965  0.00  0.00    +0.160 C 
BRANCH  19  20
ATOM     20  N   UNL     1       2.974  -1.672  -3.334  0.00  0.00    -0.300 N 
ATOM     21  C   UNL     1       3.000  -0.390  -3.748  0.00  0.00    +0.246 C 
ATOM     22  O   UNL     1       1.968   0.248  -3.816  0.00  0.00    -0.270 OA
ATOM     23  H   UNL     1       3.798  -2.181  -3.280  0.00  0.00    +0.150 HD
BRANCH  21  24
ATOM     24  C   UNL     1       4.284   0.241  -4.120  0.00  0.00    +0.051 A 
ATOM     25  C   UNL     1       5.471  -0.491  -4.048  0.00  0.00    +0.014 A 
ATOM     26  C   UNL     1       6.666   0.103  -4.397  0.00  0.00    +0.001 A 
ATOM     27  C   UNL     1       6.691   1.422  -4.816  0.00  0.00    +0.001 A 
ATOM     28  C   UNL     1       5.519   2.153  -4.889  0.00  0.00    +0.016 A 
ATOM     29  C   UNL     1       4.315   1.569  -4.549  0.00  0.00    +0.030 A 
ATOM     30 BR   UNL     1       2.713   2.568  -4.657  0.00  0.00    -0.050 Br
ENDBRANCH  21  24
ENDBRANCH  19  20
BRANCH  19  31
ATOM     31  C   UNL     1       1.377  -1.972  -1.506  0.00  0.00    +0.042 C 
BRANCH  31  32
ATOM     32  C   UNL     1       1.120  -0.471  -1.362  0.00  0.00    +0.071 C 
BRANCH  32  34
ATOM     33  C   UNL     1       0.462   1.707   0.369  0.00  0.00    +0.084 C 
ATOM     34  S   UNL     1       0.736  -0.086   0.369  0.00  0.00    -0.164 S 
ENDBRANCH  32  34
ENDBRANCH  31  32
ENDBRANCH  19  31
ENDBRANCH   1  19
TORSDOF 6
