REMARK  Name = ZINC09848608
REMARK  10 active torsions:
REMARK  status: ('A' for Active; 'I' for Inactive)
REMARK    1  A    between atoms: C_1  and  C_2
REMARK    2  A    between atoms: C_2  and  C_3
REMARK    3  A    between atoms: N_5  and  C_17
REMARK    4  A    between atoms: C_12  and  C_16
REMARK    5  A    between atoms: C_17  and  C_18
REMARK    6  A    between atoms: N_20  and  C_21
REMARK    7  A    between atoms: C_21  and  C_22
REMARK    8  A    between atoms: C_22  and  C_23
REMARK    9  A    between atoms: C_26  and  S_29
REMARK   10  A    between atoms: S_29  and  N_32
REMARK                            x       y       z     vdW  Elec       q    Type
REMARK                         _______ _______ _______ _____ _____    ______ ____
ROOT
ATOM      1  C   UNL     1      -0.543   1.446  -3.655  0.00  0.00    +0.235 C 
ATOM      2  O   UNL     1      -1.540   2.130  -3.753  0.00  0.00    -0.274 OA
ATOM      3  N   UNL     1      -0.067   1.120  -2.437  0.00  0.00    -0.313 N 
ATOM      4  H   UNL     1       0.730   0.573  -2.358  0.00  0.00    +0.149 HD
ENDROOT
BRANCH   1   5
ATOM      5  C   UNL     1       0.162   0.960  -4.895  0.00  0.00    +0.243 C 
BRANCH   5   8
ATOM      6  C   UNL     1      -2.223   1.061  -7.689  0.00  0.00    +0.135 A 
ATOM      7  N   UNL     1      -1.566   0.676  -6.649  0.00  0.00    -0.154 NA
ATOM      8  N   UNL     1      -0.547   1.445  -6.082  0.00  0.00    -0.217 N 
ATOM      9  C   UNL     1      -0.210   2.635  -6.630  0.00  0.00    +0.292 A 
ATOM     10  O   UNL     1       0.679   3.317  -6.152  0.00  0.00    -0.264 OA
ATOM     11  C   UNL     1      -0.947   3.077  -7.816  0.00  0.00    +0.116 A 
ATOM     12  N   UNL     1      -1.948   2.260  -8.315  0.00  0.00    -0.291 N 
ATOM     13  C   UNL     1      -2.513   2.866  -9.432  0.00  0.00    +0.063 A 
ATOM     14  C   UNL     1      -3.521   2.603 -10.373  0.00  0.00    +0.037 A 
ATOM     15  C   UNL     1      -3.776   3.490 -11.357  0.00  0.00    -0.011 A 
ATOM     16  S   UNL     1      -2.596   4.788 -11.030  0.00  0.00    -0.092 S 
ATOM     17  C   UNL     1      -1.827   4.076  -9.598  0.00  0.00    +0.038 A 
ATOM     18  C   UNL     1      -0.868   4.201  -8.604  0.00  0.00    +0.048 A 
ATOM     19  C   UNL     1      -4.803   3.405 -12.457  0.00  0.00    +0.051 C 
BRANCH   6  21
ATOM     20  C   UNL     1      -3.429  -1.084  -7.382  0.00  0.00    +0.012 C 
ATOM     21  C   UNL     1      -3.314   0.178  -8.239  0.00  0.00    +0.073 C 
ENDBRANCH   6  21
ENDBRANCH   5   8
ENDBRANCH   1   5
BRANCH   3  22
ATOM     22  C   UNL     1      -0.753   1.593  -1.232  0.00  0.00    +0.109 C 
BRANCH  22  23
ATOM     23  C   UNL     1      -0.013   1.086   0.008  0.00  0.00    +0.054 C 
BRANCH  23  24
ATOM     24  C   UNL     1      -0.718   1.572   1.248  0.00  0.00    -0.046 A 
ATOM     25  C   UNL     1      -0.360   2.779   1.819  0.00  0.00    +0.005 A 
ATOM     26  C   UNL     1      -1.010   3.227   2.953  0.00  0.00    +0.029 A 
ATOM     27  C   UNL     1      -2.012   2.463   3.523  0.00  0.00    +0.105 A 
ATOM     28  C   UNL     1      -2.366   1.254   2.955  0.00  0.00    +0.029 A 
ATOM     29  C   UNL     1      -1.719   0.808   1.818  0.00  0.00    +0.005 A 
BRANCH  27  30
ATOM     30  S   UNL     1      -2.837   3.032   4.972  0.00  0.00    +0.056 S 
ATOM     31  O   UNL     1      -2.695   4.446   4.992  0.00  0.00    -0.153 OA
ATOM     32  O   UNL     1      -4.107   2.394   4.993  0.00  0.00    -0.153 OA
BRANCH  30  33
ATOM     33  N   UNL     1      -1.995   2.453   6.274  0.00  0.00    -0.204 NA
ATOM     34  H   UNL     1      -1.204   1.909   6.137  0.00  0.00    +0.144 HD
ATOM     35  H   UNL     1      -2.292   2.659   7.175  0.00  0.00    +0.144 HD
ENDBRANCH  30  33
ENDBRANCH  27  30
ENDBRANCH  23  24
ENDBRANCH  22  23
ENDBRANCH   3  22
TORSDOF 8
