REMARK  Name = ZINC28876086
REMARK  6 active torsions:
REMARK  status: ('A' for Active; 'I' for Inactive)
REMARK    1  A    between atoms: C_1  and  C_2
REMARK    2  A    between atoms: C_5  and  N_8
REMARK    3  A    between atoms: C_10  and  C_15
REMARK    4  A    between atoms: N_17  and  C_18
REMARK    5  A    between atoms: C_22  and  N_25
REMARK    6  A    between atoms: C_23  and  C_24
REMARK                            x       y       z     vdW  Elec       q    Type
REMARK                         _______ _______ _______ _____ _____    ______ ____
ROOT
ATOM      1  C   UNL     1       1.973  -6.425  -1.121  0.00  0.00    +0.222 C 
ATOM      2  O   UNL     1       2.617  -5.558  -1.674  0.00  0.00    -0.275 OA
ATOM      3  N   UNL     1       2.576  -7.560  -0.718  0.00  0.00    -0.285 N 
ATOM      4  H   UNL     1       1.982  -8.370  -0.270  0.00  0.00    +0.155 HD
ENDROOT
BRANCH   3   5
ATOM      5  C   UNL     1       3.960  -7.708  -0.869  0.00  0.00    +0.038 A 
ATOM      6  C   UNL     1       4.631  -7.004  -1.859  0.00  0.00    +0.024 A 
ATOM      7  C   UNL     1       5.997  -7.152  -2.005  0.00  0.00    +0.004 A 
ATOM      8  C   UNL     1       6.695  -8.002  -1.167  0.00  0.00    +0.033 A 
ATOM      9  C   UNL     1       6.029  -8.705  -0.180  0.00  0.00    +0.131 A 
ATOM     10  C   UNL     1       4.664  -8.557  -0.025  0.00  0.00    +0.001 A 
ATOM     11  C   UNL     1       3.941  -9.319   1.055  0.00  0.00    +0.048 C 
BRANCH   9  12
ATOM     12  N   UNL     1       6.780  -9.613   0.716  0.00  0.00    +0.057 N 
ATOM     13  O   UNL     1       7.963  -9.416   0.930  0.00  0.00    -0.126 OA
ATOM     14  O   UNL     1       6.216 -10.556   1.239  0.00  0.00    -0.126 OA
ENDBRANCH   9  12
ENDBRANCH   3   5
BRANCH   1  17
ATOM     15  N   UNL     1       0.147  -4.007  -0.061  0.00  0.00    -0.271 N 
ATOM     16  C   UNL     1       0.048  -4.807  -1.288  0.00  0.00    +0.127 C 
ATOM     17  C   UNL     1       0.497  -6.231  -0.886  0.00  0.00    +0.102 C 
ATOM     18  C   UNL     1       0.171  -6.248   0.625  0.00  0.00    +0.110 C 
ATOM     19  C   UNL     1       0.208  -4.791   1.029  0.00  0.00    +0.221 C 
ATOM     20  O   UNL     1       0.283  -4.389   2.171  0.00  0.00    -0.275 OA
BRANCH  15  25
ATOM     21  C   UNL     1       0.238   1.664   0.065  0.00  0.00    +0.044 C 
ATOM     22  C   UNL     1       0.214   0.157   0.032  0.00  0.00    -0.050 A 
ATOM     23  C   UNL     1       0.234  -0.506  -1.181  0.00  0.00    +0.005 A 
ATOM     24  C   UNL     1       0.218  -1.887  -1.215  0.00  0.00    +0.024 A 
ATOM     25  C   UNL     1       0.170  -2.608  -0.030  0.00  0.00    +0.036 A 
ATOM     26  C   UNL     1       0.144  -1.939   1.187  0.00  0.00    +0.024 A 
ATOM     27  C   UNL     1       0.167  -0.558   1.214  0.00  0.00    +0.005 A 
ENDBRANCH  15  25
ENDBRANCH   1  17
TORSDOF 4
