REMARK  Name = ZINC08568089
REMARK  8 active torsions:
REMARK  status: ('A' for Active; 'I' for Inactive)
REMARK    1  A    between atoms: C_1  and  C_2
REMARK    2  A    between atoms: C_2  and  C_3
REMARK    3  A    between atoms: C_3  and  C_4
REMARK    4  A    between atoms: C_4  and  C_5
REMARK    5  A    between atoms: C_12  and  N_29
REMARK    6  A    between atoms: C_13  and  C_27
REMARK    7  A    between atoms: N_21  and  C_24
REMARK    8  A    between atoms: C_24  and  C_25
REMARK                            x       y       z     vdW  Elec       q    Type
REMARK                         _______ _______ _______ _____ _____    ______ ____
ROOT
ATOM      1  C   UNL     1       1.383  -2.643  -2.553  0.00  0.00    +0.045 A 
ATOM      2  C   UNL     1       2.705  -2.784  -2.726  0.00  0.00    +0.061 A 
ATOM      3  C   UNL     1       2.928  -3.245  -4.045  0.00  0.00    +0.245 A 
ATOM      4  N   UNL     1       1.772  -3.370  -4.628  0.00  0.00    -0.135 NA
ATOM      5  N   UNL     1       0.776  -3.003  -3.708  0.00  0.00    -0.278 N 
ATOM      6  H   UNL     1      -0.179  -3.004  -3.873  0.00  0.00    +0.189 HD
ATOM      7  O   UNL     1       4.179  -3.485  -4.520  0.00  0.00    -0.421 OA
ATOM      8  C   UNL     1       5.192  -3.528  -3.631  0.00  0.00    +0.201 C 
ATOM      9  C   UNL     1       5.102  -3.106  -2.350  0.00  0.00    +0.110 C 
ATOM     10  C   UNL     1       3.839  -2.530  -1.772  0.00  0.00    +0.145 C 
ATOM     11  C   UNL     1       3.987  -1.072  -1.481  0.00  0.00    -0.001 A 
ATOM     12  C   UNL     1       4.262   0.002  -2.300  0.00  0.00    +0.007 A 
ATOM     13  C   UNL     1       4.332   1.254  -1.697  0.00  0.00    +0.000 A 
ATOM     14  C   UNL     1       4.135   1.410  -0.340  0.00  0.00    +0.002 A 
ATOM     15  C   UNL     1       3.859   0.335   0.490  0.00  0.00    +0.024 A 
ATOM     16  C   UNL     1       3.786  -0.927  -0.102  0.00  0.00    +0.041 A 
ATOM     17  N   UNL     1       3.531  -2.157   0.479  0.00  0.00    -0.266 N 
ATOM     18  C   UNL     1       3.544  -3.157  -0.428  0.00  0.00    +0.241 C 
ATOM     19  O   UNL     1       3.355  -4.334  -0.206  0.00  0.00    -0.274 OA
ENDROOT
BRANCH   8  20
ATOM     20  N   UNL     1       6.395  -4.034  -4.056  0.00  0.00    -0.328 N 
ATOM     21  H   UNL     1       6.495  -4.346  -4.968  0.00  0.00    +0.145 HD
ATOM     22  H   UNL     1       7.145  -4.079  -3.442  0.00  0.00    +0.145 HD
ENDBRANCH   8  20
BRANCH   9  23
ATOM     23  C   UNL     1       6.256  -3.210  -1.510  0.00  0.00    +0.102 C 
ATOM     24  N   UNL     1       7.173  -3.293  -0.843  0.00  0.00    -0.191 NA
ENDBRANCH   9  23
BRANCH   1  25
ATOM     25  C   UNL     1       0.696  -2.176  -1.296  0.00  0.00    +0.055 C 
BRANCH  25  26
ATOM     26  C   UNL     1      -0.805  -2.035  -1.558  0.00  0.00    +0.006 C 
BRANCH  26  28
ATOM     27  C   UNL     1      -2.992  -1.347  -0.563  0.00  0.00    +0.004 C 
ATOM     28  C   UNL     1      -1.504  -1.567  -0.280  0.00  0.00    -0.003 C 
ENDBRANCH  26  28
ENDBRANCH  25  26
ENDBRANCH   1  25
BRANCH  17  29
ATOM     29  C   UNL     1       3.277  -2.350   1.909  0.00  0.00    +0.140 C 
BRANCH  29  30
ATOM     30  C   UNL     1       1.814  -2.130   2.193  0.00  0.00    -0.015 C 
ATOM     31  C   UNL     1       1.117  -3.059   2.798  0.00  0.00    +0.005 C 
ENDBRANCH  29  30
ENDBRANCH  17  29
TORSDOF 7
