REMARK  Name = ZINC66452970
REMARK  3 active torsions:
REMARK  status: ('A' for Active; 'I' for Inactive)
REMARK    1  A    between atoms: C_1  and  C_2
REMARK    2  A    between atoms: N_15  and  C_16
REMARK    3  A    between atoms: C_16  and  C_17
REMARK                            x       y       z     vdW  Elec       q    Type
REMARK                         _______ _______ _______ _____ _____    ______ ____
ROOT
ATOM      1  C   UNL     1      -0.018   1.503   0.010  0.00  0.00    +0.090 C 
ATOM      2  C   UNL     1       0.002  -0.004   0.002  0.00  0.00    +0.149 A 
ATOM      3  N   UNL     1       0.007  -0.765  -1.089  0.00  0.00    -0.211 NA
ATOM      4  C   UNL     1       0.026  -2.035  -0.743  0.00  0.00    +0.169 A 
ATOM      5  C   UNL     1       0.041  -3.302  -1.481  0.00  0.00    +0.045 A 
ATOM      6  C   UNL     1       0.036  -3.346  -2.874  0.00  0.00    +0.014 A 
ATOM      7  C   UNL     1       0.050  -4.565  -3.516  0.00  0.00    +0.001 A 
ATOM      8  C   UNL     1       0.070  -5.747  -2.787  0.00  0.00    +0.002 A 
ATOM      9  C   UNL     1       0.075  -5.726  -1.411  0.00  0.00    +0.028 A 
ATOM     10  C   UNL     1       0.061  -4.503  -0.736  0.00  0.00    +0.078 A 
ATOM     11  N   UNL     1       0.067  -4.443   0.618  0.00  0.00    -0.214 NA
ATOM     12  C   UNL     1       0.054  -3.305   1.261  0.00  0.00    +0.219 A 
ATOM     13  N   UNL     1       0.033  -2.095   0.625  0.00  0.00    -0.181 N 
ATOM     14  N   UNL     1       0.023  -0.765   1.068  0.00  0.00    -0.147 NA
ATOM     15  N   UNL     1       0.061  -3.325   2.636  0.00  0.00    -0.309 N 
ATOM     16  H   UNL     1       0.052  -2.493   3.133  0.00  0.00    +0.149 HD
ENDROOT
BRANCH  15  17
ATOM     17  C   UNL     1       0.083  -4.605   3.349  0.00  0.00    +0.140 C 
BRANCH  17  18
ATOM     18  C   UNL     1       0.086  -4.352   4.835  0.00  0.00    -0.025 A 
ATOM     19  C   UNL     1       1.286  -4.213   5.508  0.00  0.00    +0.054 A 
ATOM     20  C   UNL     1       1.293  -3.980   6.875  0.00  0.00    +0.164 A 
ATOM     21  C   UNL     1       0.091  -3.883   7.566  0.00  0.00    +0.180 A 
ATOM     22  C   UNL     1      -1.110  -4.024   6.885  0.00  0.00    +0.086 A 
ATOM     23  C   UNL     1      -1.109  -4.252   5.521  0.00  0.00    +0.029 A 
ATOM     24 CL   UNL     1      -2.613  -3.908   7.745  0.00  0.00    -0.080 Cl
ATOM     25  O   UNL     1       0.075  -3.646   8.906  0.00  0.00    -0.483 OA
ATOM     26  C   UNL     1       1.296  -3.881   9.616  0.00  0.00    +0.270 C 
ATOM     27  C   UNL     1       2.444  -3.244   8.821  0.00  0.00    +0.270 C 
ATOM     28  O   UNL     1       2.482  -3.850   7.524  0.00  0.00    -0.485 OA
ENDBRANCH  17  18
ENDBRANCH  15  17
TORSDOF 2
