REMARK  Name = ZINC08706633
REMARK  5 active torsions:
REMARK  status: ('A' for Active; 'I' for Inactive)
REMARK    1  A    between atoms: C_3  and  N_18
REMARK    2  A    between atoms: C_6  and  N_7
REMARK    3  A    between atoms: C_8  and  C_10
REMARK    4  A    between atoms: N_18  and  S_19
REMARK    5  A    between atoms: S_19  and  C_22
REMARK                            x       y       z     vdW  Elec       q    Type
REMARK                         _______ _______ _______ _____ _____    ______ ____
ROOT
ATOM      1  C   UNL     1      -0.404  -0.574  -4.775  0.00  0.00    +0.025 A 
ATOM      2  C   UNL     1      -0.139  -1.360  -5.879  0.00  0.00    +0.026 A 
ATOM      3  C   UNL     1      -0.691  -1.036  -7.111  0.00  0.00    +0.048 A 
ATOM      4  C   UNL     1      -1.514   0.076  -7.232  0.00  0.00    +0.026 A 
ATOM      5  C   UNL     1      -1.782   0.859  -6.128  0.00  0.00    +0.025 A 
ATOM      6  C   UNL     1      -1.231   0.535  -4.895  0.00  0.00    +0.034 A 
ENDROOT
BRANCH   6   7
ATOM      7  N   UNL     1      -1.504   1.329  -3.774  0.00  0.00    -0.285 N 
ATOM      8  C   UNL     1      -1.677   2.659  -3.916  0.00  0.00    +0.222 C 
ATOM      9  O   UNL     1      -1.504   3.181  -4.997  0.00  0.00    -0.275 OA
ATOM     10  H   UNL     1      -1.569   0.923  -2.896  0.00  0.00    +0.155 HD
BRANCH   8  11
ATOM     11  C   UNL     1      -2.087   3.496  -2.732  0.00  0.00    +0.098 C 
ATOM     12  C   UNL     1      -1.012   3.406  -1.636  0.00  0.00    +0.037 C 
ATOM     13  C   UNL     1      -1.257   4.496  -0.565  0.00  0.00    +0.166 C 
ATOM     14  S   UNL     1      -2.102   5.821  -1.523  0.00  0.00    -0.030 S 
ATOM     15  O   UNL     1      -1.232   6.939  -1.634  0.00  0.00    -0.174 OA
ATOM     16  O   UNL     1      -3.413   6.003  -1.004  0.00  0.00    -0.174 OA
ATOM     17  C   UNL     1      -2.217   4.985  -3.161  0.00  0.00    +0.178 C 
ENDBRANCH   8  11
ENDBRANCH   6   7
BRANCH   3  18
ATOM     18  N   UNL     1      -0.418  -1.830  -8.230  0.00  0.00    -0.216 N 
ATOM     19  H   UNL     1      -0.842  -2.698  -8.324  0.00  0.00    +0.174 HD
BRANCH  18  20
ATOM     20  S   UNL     1       0.627  -1.288  -9.395  0.00  0.00    +0.072 S 
ATOM     21  O   UNL     1       0.707  -2.313 -10.377  0.00  0.00    -0.150 OA
ATOM     22  O   UNL     1       0.231   0.039  -9.711  0.00  0.00    -0.150 OA
BRANCH  20  23
ATOM     23  C   UNL     1       2.221  -1.176  -8.653  0.00  0.00    +0.112 A 
ATOM     24  C   UNL     1       3.108  -2.230  -8.763  0.00  0.00    +0.032 A 
ATOM     25  C   UNL     1       4.362  -2.149  -8.184  0.00  0.00    +0.051 A 
ATOM     26  C   UNL     1       4.725  -1.006  -7.492  0.00  0.00    +0.162 A 
ATOM     27  C   UNL     1       3.835   0.053  -7.381  0.00  0.00    +0.164 A 
ATOM     28  C   UNL     1       2.583  -0.030  -7.967  0.00  0.00    +0.078 A 
ATOM     29  O   UNL     1       4.202   1.175  -6.698  0.00  0.00    -0.488 OA
ATOM     30  C   UNL     1       4.361   1.022  -5.286  0.00  0.00    +0.232 C 
ATOM     31  C   UNL     1       5.749   0.499  -4.952  0.00  0.00    +0.082 C 
ATOM     32  C   UNL     1       5.983  -0.905  -5.488  0.00  0.00    +0.232 C 
ATOM     33  O   UNL     1       5.959  -0.912  -6.917  0.00  0.00    -0.488 OA
ENDBRANCH  20  23
ENDBRANCH  18  20
ENDBRANCH   3  18
TORSDOF 5
