REMARK  Name = ZINC19223671
REMARK  9 active torsions:
REMARK  status: ('A' for Active; 'I' for Inactive)
REMARK    1  A    between atoms: C_1  and  C_2
REMARK    2  A    between atoms: C_2  and  C_3
REMARK    3  A    between atoms: C_2  and  C_4
REMARK    4  A    between atoms: C_2  and  O_30
REMARK    5  A    between atoms: C_5  and  C_6
REMARK    6  A    between atoms: C_9  and  C_11
REMARK    7  A    between atoms: C_11  and  N_12
REMARK    8  A    between atoms: N_12  and  C_13
REMARK    9  A    between atoms: C_23  and  C_26
REMARK                            x       y       z     vdW  Elec       q    Type
REMARK                         _______ _______ _______ _____ _____    ______ ____
ROOT
ATOM      1  N   UNL     1       7.061  -1.410   5.930  0.00  0.00    +0.385 N 
ATOM      2  H   UNL     1       6.470  -2.337   5.922  0.00  0.00    -0.085 HD
ATOM      3  H   UNL     1       7.477  -1.232   4.927  0.00  0.00    -0.085 HD
ENDROOT
BRANCH   1   4
ATOM      4  C   UNL     1       8.172  -1.567   6.878  0.00  0.00    -0.054 C 
ATOM      5  C   UNL     1       7.710  -2.410   8.070  0.00  0.00    -0.013 C 
ATOM      6  C   UNL     1       8.890  -2.621   9.024  0.00  0.00    +0.017 C 
ATOM      7  C   UNL     1      10.038  -3.293   8.267  0.00  0.00    +0.106 C 
ATOM      8  N   UNL     1      10.444  -2.446   7.138  0.00  0.00    -0.317 N 
ATOM      9  C   UNL     1       9.341  -2.269   6.184  0.00  0.00    +0.091 C 
ATOM     10  C   UNL     1      11.570  -2.962   6.508  0.00  0.00    +0.121 A 
ATOM     11  C   UNL     1      12.726  -3.196   7.245  0.00  0.00    +0.044 A 
ATOM     12  C   UNL     1      13.838  -3.715   6.606  0.00  0.00    +0.017 A 
ATOM     13  C   UNL     1      13.759  -3.973   5.243  0.00  0.00    +0.073 A 
ATOM     14  C   UNL     1      12.581  -3.712   4.573  0.00  0.00    +0.125 A 
ATOM     15  N   UNL     1      11.534  -3.222   5.210  0.00  0.00    -0.240 NA
BRANCH  13  16
ATOM     16  C   UNL     1      14.947  -4.532   4.505  0.00  0.00    +0.419 C 
ATOM     17  F   UNL     1      14.620  -4.702   3.155  0.00  0.00    -0.166 F 
ATOM     18  F   UNL     1      16.024  -3.646   4.615  0.00  0.00    -0.166 F 
ATOM     19  F   UNL     1      15.302  -5.767   5.058  0.00  0.00    -0.166 F 
ENDBRANCH  13  16
ENDBRANCH   1   4
BRANCH   1  20
ATOM     20  C   UNL     1       6.200  -0.282   6.310  0.00  0.00    -0.039 C 
BRANCH  20  24
ATOM     21  C   UNL     1       3.358   0.368   3.302  0.00  0.00    +0.062 A 
ATOM     22  C   UNL     1       2.961  -0.464   4.318  0.00  0.00    +0.025 A 
ATOM     23  C   UNL     1       3.845  -0.729   5.339  0.00  0.00    +0.010 A 
ATOM     24  C   UNL     1       5.075  -0.152   5.316  0.00  0.00    -0.026 A 
ATOM     25  S   UNL     1       5.015   0.799   3.807  0.00  0.00    -0.087 S 
BRANCH  21  27
ATOM     26  C   UNL     1       2.034   1.131   1.191  0.00  0.00    -0.062 C 
ATOM     27  C   UNL     1       2.631   0.787   2.142  0.00  0.00    -0.056 C 
BRANCH  26  29
ATOM     28  C   UNL     1       2.040   1.127  -1.261  0.00  0.00    +0.055 C 
ATOM     29  C   UNL     1       1.286   1.562  -0.002  0.00  0.00    +0.121 C 
ATOM     30  C   UNL     1       1.145   3.085   0.008  0.00  0.00    +0.055 C 
BRANCH  29  31
ATOM     31  O   UNL     1      -0.011   0.963   0.007  0.00  0.00    -0.377 OA
ATOM     32  H   UNL     1      -0.702   1.160   0.840  0.00  0.00    +0.211 HD
ENDBRANCH  29  31
ENDBRANCH  26  29
ENDBRANCH  21  27
ENDBRANCH  20  24
ENDBRANCH   1  20
TORSDOF 7
