REMARK  Name = ZINC63633447
REMARK  7 active torsions:
REMARK  status: ('A' for Active; 'I' for Inactive)
REMARK    1  A    between atoms: C_1  and  C_2
REMARK    2  A    between atoms: C_8  and  C_28
REMARK    3  A    between atoms: N_16  and  C_17
REMARK    4  A    between atoms: C_17  and  C_18
REMARK    5  A    between atoms: C_18  and  C_19
REMARK    6  A    between atoms: C_33  and  O_34
REMARK    7  A    between atoms: O_34  and  C_35
REMARK                            x       y       z     vdW  Elec       q    Type
REMARK                         _______ _______ _______ _____ _____    ______ ____
ROOT
ATOM      1  C   UNL     1      -0.098   1.580   0.576  0.00  0.00    +0.024 C 
ATOM      2  C   UNL     1      -0.064   0.059   0.412  0.00  0.00    +0.062 C 
ATOM      3  C   UNL     1      -1.494  -0.494   0.433  0.00  0.00    +0.114 C 
ATOM      4  C   UNL     1      -1.418  -1.998   0.409  0.00  0.00    +0.221 C 
ATOM      5  O   UNL     1      -2.358  -2.633  -0.021  0.00  0.00    -0.275 OA
ATOM      6  N   UNL     1      -0.334  -2.651   0.850  0.00  0.00    -0.243 N 
ATOM      7  C   UNL     1      -0.314  -4.124   0.803  0.00  0.00    +0.234 C 
ATOM      8  N   UNL     1       0.268  -4.646   2.037  0.00  0.00    -0.228 NA
ATOM      9  C   UNL     1       0.938  -3.923   2.873  0.00  0.00    +0.180 C 
ATOM     10  N   UNL     1       1.138  -2.575   2.698  0.00  0.00    -0.286 N 
ATOM     11  C   UNL     1       0.853  -1.980   1.381  0.00  0.00    +0.239 C 
ATOM     12  N   UNL     1       0.682  -0.540   1.522  0.00  0.00    -0.280 NA
ATOM     13  N   UNL     1       1.473  -4.528   3.985  0.00  0.00    -0.317 N 
ATOM     14  H   UNL     1       1.461  -2.024   3.429  0.00  0.00    +0.152 HD
ATOM     15  H   UNL     1       1.979  -4.005   4.626  0.00  0.00    +0.149 HD
ATOM     16  H   UNL     1       1.571  -0.081   1.650  0.00  0.00    +0.125 HD
ENDROOT
BRANCH   7  17
ATOM     17  C   UNL     1      -1.721  -4.640   0.655  0.00  0.00    +0.036 A 
ATOM     18  C   UNL     1      -2.212  -4.960  -0.596  0.00  0.00    +0.011 A 
ATOM     19  C   UNL     1      -3.504  -5.433  -0.733  0.00  0.00    +0.001 A 
ATOM     20  C   UNL     1      -4.308  -5.589   0.382  0.00  0.00    +0.004 A 
ATOM     21  C   UNL     1      -3.821  -5.272   1.635  0.00  0.00    +0.046 A 
ATOM     22  C   UNL     1      -2.523  -4.801   1.775  0.00  0.00    +0.127 A 
BRANCH  22  23
ATOM     23  O   UNL     1      -2.041  -4.494   3.008  0.00  0.00    -0.495 OA
ATOM     24  C   UNL     1      -2.922  -4.684   4.116  0.00  0.00    +0.277 C 
ENDBRANCH  22  23
ENDBRANCH   7  17
BRANCH  13  25
ATOM     25  C   UNL     1       1.278  -5.964   4.203  0.00  0.00    +0.108 C 
BRANCH  25  26
ATOM     26  C   UNL     1       1.970  -6.381   5.502  0.00  0.00    +0.052 C 
BRANCH  26  27
ATOM     27  C   UNL     1       1.770  -7.858   5.726  0.00  0.00    -0.040 C 
ATOM     28  C   UNL     1       2.618  -8.854   5.384  0.00  0.00    -0.001 A 
ATOM     29  C   UNL     1       3.930  -8.861   4.727  0.00  0.00    +0.010 A 
ATOM     30  C   UNL     1       4.551 -10.044   4.514  0.00  0.00    +0.001 A 
ATOM     31  C   UNL     1       3.974 -11.260   4.904  0.00  0.00    +0.002 A 
ATOM     32  C   UNL     1       2.772 -11.334   5.514  0.00  0.00    +0.026 A 
ATOM     33  C   UNL     1       2.031 -10.152   5.787  0.00  0.00    +0.043 A 
ATOM     34  N   UNL     1       0.864  -9.965   6.356  0.00  0.00    -0.380 N 
ATOM     35  C   UNL     1       0.582  -8.526   6.383  0.00  0.00    +0.144 C 
ATOM     36  H   UNL     1       0.286 -10.662   6.704  0.00  0.00    +0.160 HD
ENDBRANCH  26  27
ENDBRANCH  25  26
ENDBRANCH  13  25
TORSDOF 5
