REMARK  Name = ZINC08230658
REMARK  6 active torsions:
REMARK  status: ('A' for Active; 'I' for Inactive)
REMARK    1  A    between atoms: C_1  and  C_2
REMARK    2  A    between atoms: C_2  and  C_4
REMARK    3  A    between atoms: C_2  and  S_16
REMARK    4  A    between atoms: C_4  and  C_6
REMARK    5  A    between atoms: S_16  and  C_17
REMARK    6  A    between atoms: C_19  and  C_23
REMARK                            x       y       z     vdW  Elec       q    Type
REMARK                         _______ _______ _______ _____ _____    ______ ____
ROOT
ATOM      1  C   UNL     1      -0.019   1.526   0.010  0.00  0.00    +0.028 C 
ATOM      2  C   UNL     1       0.002  -0.004   0.002  0.00  0.00    +0.122 C 
ENDROOT
BRANCH   2   3
ATOM      3  C   UNL     1       0.707  -0.490  -1.238  0.00  0.00    +0.178 C 
ATOM      4  O   UNL     1       0.066  -0.782  -2.226  0.00  0.00    -0.291 OA
BRANCH   3   5
ATOM      5  C   UNL     1       2.120  -0.606  -1.250  0.00  0.00    +0.043 A 
ATOM      6  C   UNL     1       2.983  -0.322  -0.213  0.00  0.00    +0.095 A 
ATOM      7  N   UNL     1       4.251  -0.555  -0.603  0.00  0.00    -0.360 N 
ATOM      8  H   UNL     1       5.032  -0.427  -0.043  0.00  0.00    +0.165 HD
ATOM      9  C   UNL     1       4.285  -1.003  -1.908  0.00  0.00    +0.047 A 
ATOM     10  C   UNL     1       2.962  -1.063  -2.373  0.00  0.00    +0.010 A 
ATOM     11  C   UNL     1       2.695  -1.491  -3.670  0.00  0.00    +0.011 A 
ATOM     12  C   UNL     1       3.736  -1.860  -4.495  0.00  0.00    +0.001 A 
ATOM     13  C   UNL     1       5.044  -1.805  -4.037  0.00  0.00    +0.002 A 
ATOM     14  C   UNL     1       5.323  -1.375  -2.757  0.00  0.00    +0.026 A 
ENDBRANCH   3   5
ENDBRANCH   2   3
BRANCH   2  15
ATOM     15  S   UNL     1      -1.700  -0.632   0.015  0.00  0.00    -0.075 S 
BRANCH  15  16
ATOM     16  C   UNL     1      -2.335  -0.110   1.573  0.00  0.00    +0.185 A 
ATOM     17  N   UNL     1      -1.680   0.578   2.483  0.00  0.00    -0.200 NA
ATOM     18  C   UNL     1      -2.475   0.796   3.542  0.00  0.00    +0.189 A 
ATOM     19  N   UNL     1      -3.648   0.247   3.313  0.00  0.00    -0.151 NA
ATOM     20  H   UNL     1      -4.292  -0.821   1.585  0.00  0.00    +0.191 HD
ATOM     21  N   UNL     1      -3.582  -0.341   2.040  0.00  0.00    -0.253 N 
BRANCH  18  22
ATOM     22  C   UNL     1      -2.095   1.534   4.766  0.00  0.00    +0.058 A 
ATOM     23  C   UNL     1      -2.841   1.793   5.884  0.00  0.00    +0.019 A 
ATOM     24  C   UNL     1      -2.267   2.509   6.912  0.00  0.00    +0.008 A 
ATOM     25  C   UNL     1      -0.984   2.934   6.786  0.00  0.00    +0.046 A 
ATOM     26  S   UNL     1      -0.540   2.311   5.173  0.00  0.00    -0.093 S 
ENDBRANCH  18  22
ENDBRANCH  15  16
ENDBRANCH   2  15
TORSDOF 5
