REMARK  Name = ZINC02633327
REMARK  3 active torsions:
REMARK  status: ('A' for Active; 'I' for Inactive)
REMARK    1  A    between atoms: C_1  and  C_2
REMARK    2  A    between atoms: C_2  and  C_18
REMARK    3  A    between atoms: C_4  and  C_11
REMARK                            x       y       z     vdW  Elec       q    Type
REMARK                         _______ _______ _______ _____ _____    ______ ____
ROOT
ATOM      1  C   UNL     1      -0.019   1.526   0.010  0.00  0.00    +0.041 C 
ATOM      2  C   UNL     1       0.002  -0.004   0.002  0.00  0.00    +0.078 C 
ATOM      3  C   UNL     1      -1.411  -0.519  -0.016  0.00  0.00    +0.031 C 
ATOM      4  C   UNL     1      -1.759  -1.653   0.602  0.00  0.00    +0.074 C 
ATOM      5  N   UNL     1      -0.772  -2.349   1.306  0.00  0.00    -0.200 N 
ATOM      6  C   UNL     1       0.431  -1.781   1.606  0.00  0.00    +0.219 A 
ATOM      7  N   UNL     1       1.131  -2.654   2.269  0.00  0.00    -0.201 NA
ATOM      8  C   UNL     1       0.425  -3.783   2.407  0.00  0.00    +0.247 A 
ATOM      9  N   UNL     1      -0.744  -3.635   1.829  0.00  0.00    -0.152 NA
ATOM     10  N   UNL     1       0.715  -0.486   1.197  0.00  0.00    -0.301 N 
ATOM     11  H   UNL     1       1.351   0.071   1.673  0.00  0.00    +0.150 HD
ENDROOT
BRANCH   4  12
ATOM     12  C   UNL     1      -3.151  -2.157   0.543  0.00  0.00    +0.000 A 
ATOM     13  C   UNL     1      -4.185  -1.425   1.126  0.00  0.00    +0.011 A 
ATOM     14  C   UNL     1      -5.479  -1.899   1.068  0.00  0.00    +0.020 A 
ATOM     15  C   UNL     1      -5.753  -3.098   0.433  0.00  0.00    +0.041 A 
ATOM     16  C   UNL     1      -4.729  -3.829  -0.147  0.00  0.00    +0.020 A 
ATOM     17  C   UNL     1      -3.432  -3.361  -0.100  0.00  0.00    +0.011 A 
ATOM     18 CL   UNL     1      -7.384  -3.688   0.364  0.00  0.00    -0.084 Cl
ENDBRANCH   4  12
BRANCH   2  19
ATOM     19  C   UNL     1       0.720  -0.484  -1.233  0.00  0.00    -0.020 A 
ATOM     20  C   UNL     1       0.014  -0.710  -2.399  0.00  0.00    +0.007 A 
ATOM     21  C   UNL     1       0.672  -1.150  -3.532  0.00  0.00    +0.020 A 
ATOM     22  C   UNL     1       2.038  -1.365  -3.498  0.00  0.00    +0.041 A 
ATOM     23  C   UNL     1       2.745  -1.139  -2.330  0.00  0.00    +0.020 A 
ATOM     24  C   UNL     1       2.087  -0.694  -1.200  0.00  0.00    +0.007 A 
ATOM     25 CL   UNL     1       2.866  -1.919  -4.920  0.00  0.00    -0.084 Cl
ENDBRANCH   2  19
TORSDOF 2
