REMARK  Name = ZINC01418892
REMARK  8 active torsions:
REMARK  status: ('A' for Active; 'I' for Inactive)
REMARK    1  A    between atoms: C_7  and  C_11
REMARK    2  A    between atoms: C_11  and  C_13
REMARK    3  A    between atoms: C_11  and  N_25
REMARK    4  A    between atoms: N_15  and  C_16
REMARK    5  A    between atoms: N_25  and  C_26
REMARK    6  A    between atoms: C_26  and  C_27
REMARK    7  A    between atoms: C_33  and  C_35
REMARK    8  A    between atoms: C_35  and  N_36
REMARK                            x       y       z     vdW  Elec       q    Type
REMARK                         _______ _______ _______ _____ _____    ______ ____
ROOT
ATOM      1  C   UNL     1      -6.371   3.269  -3.092  0.00  0.00    +0.195 C 
ENDROOT
BRANCH   1   8
ATOM      2  C   UNL     1      -8.074   5.320  -6.948  0.00  0.00    +0.001 A 
ATOM      3  C   UNL     1      -9.034   6.283  -6.669  0.00  0.00    +0.002 A 
ATOM      4  C   UNL     1      -9.405   6.550  -5.370  0.00  0.00    +0.026 A 
ATOM      5  C   UNL     1      -8.804   5.857  -4.323  0.00  0.00    +0.047 A 
ATOM      6  C   UNL     1      -7.830   4.884  -4.611  0.00  0.00    +0.005 A 
ATOM      7  C   UNL     1      -7.474   4.625  -5.936  0.00  0.00    +0.010 A 
ATOM      8  C   UNL     1      -7.402   4.345  -3.318  0.00  0.00    +0.007 A 
ATOM      9  C   UNL     1      -8.100   4.994  -2.372  0.00  0.00    +0.089 A 
ATOM     10  N   UNL     1      -8.942   5.901  -2.954  0.00  0.00    -0.360 N 
ATOM     11  H   UNL     1      -9.547   6.488  -2.474  0.00  0.00    +0.165 HD
ENDBRANCH   1   8
BRANCH   1  12
ATOM     12  C   UNL     1      -6.990   1.919  -3.341  0.00  0.00    +0.242 C 
ATOM     13  O   UNL     1      -7.072   1.113  -2.438  0.00  0.00    -0.273 OA
ATOM     14  N   UNL     1      -7.454   1.606  -4.568  0.00  0.00    -0.284 N 
ATOM     15  H   UNL     1      -7.331   2.224  -5.305  0.00  0.00    +0.155 HD
BRANCH  14  16
ATOM     16  C   UNL     1      -8.113   0.388  -4.778  0.00  0.00    +0.037 A 
ATOM     17  C   UNL     1      -7.775  -0.725  -4.019  0.00  0.00    +0.027 A 
ATOM     18  C   UNL     1      -8.428  -1.926  -4.222  0.00  0.00    +0.051 A 
ATOM     19  C   UNL     1      -9.414  -2.026  -5.189  0.00  0.00    +0.166 A 
ATOM     20  C   UNL     1      -9.752  -0.913  -5.956  0.00  0.00    +0.168 A 
ATOM     21  C   UNL     1      -9.101   0.291  -5.748  0.00  0.00    +0.072 A 
ATOM     22  O   UNL     1     -10.740  -1.268  -6.829  0.00  0.00    -0.453 OA
ATOM     23  C   UNL     1     -10.718  -2.707  -6.870  0.00  0.00    +0.466 C 
ATOM     24  O   UNL     1     -10.192  -3.078  -5.582  0.00  0.00    -0.453 OA
ENDBRANCH  14  16
ENDBRANCH   1  12
BRANCH   1  25
ATOM     25  N   UNL     1      -5.889   3.338  -1.710  0.00  0.00    -0.280 N 
ATOM     26  C   UNL     1      -4.569   3.457  -1.462  0.00  0.00    +0.238 C 
ATOM     27  O   UNL     1      -3.787   3.564  -2.382  0.00  0.00    -0.274 OA
BRANCH  25  28
ATOM     28  C   UNL     1      -6.841   3.277  -0.598  0.00  0.00    +0.145 C 
BRANCH  28  29
ATOM     29  C   UNL     1      -6.414   2.204   0.370  0.00  0.00    -0.012 A 
ATOM     30  C   UNL     1      -6.728   0.875   0.128  0.00  0.00    +0.008 A 
ATOM     31  C   UNL     1      -6.312  -0.079   1.044  0.00  0.00    +0.020 A 
ATOM     32  C   UNL     1      -5.611   0.324   2.164  0.00  0.00    +0.111 A 
ATOM     33  N   UNL     1      -5.334   1.598   2.365  0.00  0.00    -0.263 NA
ATOM     34  C   UNL     1      -5.711   2.532   1.513  0.00  0.00    +0.115 A 
ENDBRANCH  28  29
ENDBRANCH  25  28
BRANCH  26  35
ATOM     35  C   UNL     1      -4.067   3.457  -0.041  0.00  0.00    +0.241 C 
BRANCH  35  36
ATOM     36  N   UNL     1      -2.644   3.805  -0.026  0.00  0.00    -0.235 N 
ATOM     37  C   UNL     1      -1.584   2.934  -0.110  0.00  0.00    +0.090 A 
ATOM     38  C   UNL     1      -1.474   1.553  -0.231  0.00  0.00    +0.029 A 
ATOM     39  C   UNL     1      -0.239   0.972  -0.287  0.00  0.00    +0.002 A 
ATOM     40  C   UNL     1       0.911   1.749  -0.234  0.00  0.00    +0.002 A 
ATOM     41  C   UNL     1       0.831   3.106  -0.119  0.00  0.00    +0.032 A 
ATOM     42  C   UNL     1      -0.424   3.727  -0.055  0.00  0.00    +0.113 A 
ATOM     43  N   UNL     1      -0.812   5.013   0.057  0.00  0.00    -0.129 NA
ATOM     44  N   UNL     1      -2.096   5.092   0.076  0.00  0.00    -0.064 NA
ENDBRANCH  35  36
ENDBRANCH  26  35
ENDBRANCH   1  25
TORSDOF 8
