REMARK  Name = ZINC06593730
REMARK  8 active torsions:
REMARK  status: ('A' for Active; 'I' for Inactive)
REMARK    1  A    between atoms: C_1  and  C_2
REMARK    2  A    between atoms: C_2  and  C_3
REMARK    3  A    between atoms: C_3  and  C_4
REMARK    4  A    between atoms: C_5  and  C_23
REMARK    5  A    between atoms: C_6  and  C_20
REMARK    6  A    between atoms: C_7  and  C_19
REMARK    7  A    between atoms: N_8  and  C_9
REMARK    8  A    between atoms: C_9  and  C_10
REMARK                            x       y       z     vdW  Elec       q    Type
REMARK                         _______ _______ _______ _____ _____    ______ ____
ROOT
ATOM      1  C   UNL     1      -3.719   1.543   2.141  0.00  0.00    +0.028 A 
ATOM      2  C   UNL     1      -3.894   0.990   3.368  0.00  0.00    +0.017 A 
ATOM      3  C   UNL     1      -3.138  -0.275   3.357  0.00  0.00    +0.065 A 
ATOM      4  C   UNL     1      -2.579  -0.370   2.114  0.00  0.00    +0.029 A 
ATOM      5  N   UNL     1      -2.926   0.719   1.400  0.00  0.00    -0.342 N 
ATOM      6  C   UNL     1      -1.714  -1.502   1.624  0.00  0.00    +0.064 C 
ENDROOT
BRANCH   2   7
ATOM      7  C   UNL     1      -4.686   1.546   4.492  0.00  0.00    +0.003 A 
ATOM      8  C   UNL     1      -6.037   1.228   4.620  0.00  0.00    +0.010 A 
ATOM      9  C   UNL     1      -6.769   1.748   5.668  0.00  0.00    +0.001 A 
ATOM     10  C   UNL     1      -6.165   2.585   6.590  0.00  0.00    +0.001 A 
ATOM     11  C   UNL     1      -4.825   2.904   6.468  0.00  0.00    +0.020 A 
ATOM     12  C   UNL     1      -4.081   2.386   5.427  0.00  0.00    +0.049 A 
ATOM     13 CL   UNL     1      -2.397   2.782   5.279  0.00  0.00    -0.083 Cl
ENDBRANCH   2   7
BRANCH   3  14
ATOM     14  C   UNL     1      -3.016  -1.242   4.459  0.00  0.00    +0.244 C 
ATOM     15  O   UNL     1      -3.820  -2.149   4.564  0.00  0.00    -0.270 OA
ATOM     16  N   UNL     1      -2.014  -1.123   5.352  0.00  0.00    -0.325 N 
ATOM     17  H   UNL     1      -1.373  -0.400   5.268  0.00  0.00    +0.145 HD
ATOM     18  H   UNL     1      -1.933  -1.761   6.078  0.00  0.00    +0.145 HD
ENDBRANCH   3  14
BRANCH   1  19
ATOM     19  C   UNL     1      -4.304   2.851   1.674  0.00  0.00    +0.054 C 
BRANCH  19  21
ATOM     20  C   UNL     1      -6.265   3.928   0.562  0.00  0.00    +0.004 C 
ATOM     21  C   UNL     1      -5.671   2.600   1.036  0.00  0.00    +0.003 C 
ENDBRANCH  19  21
ENDBRANCH   1  19
BRANCH   5  22
ATOM     22  C   UNL     1      -2.513   0.977   0.019  0.00  0.00    +0.157 C 
BRANCH  22  23
ATOM     23  C   UNL     1      -1.219   1.750   0.017  0.00  0.00    -0.024 A 
ATOM     24  C   UNL     1      -1.242   3.133   0.033  0.00  0.00    +0.009 A 
ATOM     25  C   UNL     1      -0.058   3.846   0.024  0.00  0.00    +0.050 A 
ATOM     26  C   UNL     1       1.155   3.177   0.008  0.00  0.00    +0.166 A 
ATOM     27  C   UNL     1       1.178   1.784   0.000  0.00  0.00    +0.167 A 
ATOM     28  C   UNL     1      -0.013   1.076   0.008  0.00  0.00    +0.055 A 
ATOM     29  O   UNL     1       2.478   1.369  -0.015  0.00  0.00    -0.453 OA
ATOM     30  C   UNL     1       3.243   2.517  -0.428  0.00  0.00    +0.466 C 
ATOM     31  O   UNL     1       2.441   3.634  -0.002  0.00  0.00    -0.453 OA
ENDBRANCH  22  23
ENDBRANCH   5  22
TORSDOF 6
