REMARK  Name = ZINC08644237
REMARK  9 active torsions:
REMARK  status: ('A' for Active; 'I' for Inactive)
REMARK    1  A    between atoms: C_1  and  C_2
REMARK    2  A    between atoms: C_2  and  C_3
REMARK    3  A    between atoms: C_3  and  C_28
REMARK    4  A    between atoms: N_6  and  C_10
REMARK    5  A    between atoms: C_10  and  C_11
REMARK    6  A    between atoms: N_13  and  C_14
REMARK    7  A    between atoms: C_15  and  C_24
REMARK    8  A    between atoms: C_24  and  O_26
REMARK    9  A    between atoms: O_26  and  C_27
REMARK                            x       y       z     vdW  Elec       q    Type
REMARK                         _______ _______ _______ _____ _____    ______ ____
ROOT
ATOM      1  C   UNL     1       6.607  -2.402   1.591  0.00  0.00    +0.236 C 
ATOM      2  O   UNL     1       6.904  -1.600   0.731  0.00  0.00    -0.274 OA
ATOM      3  N   UNL     1       5.329  -2.502   2.007  0.00  0.00    -0.278 N 
ATOM      4  H   UNL     1       5.092  -3.143   2.695  0.00  0.00    +0.155 HD
ENDROOT
BRANCH   3   5
ATOM      5  C   UNL     1       4.354  -1.688   1.453  0.00  0.00    +0.086 A 
ATOM      6  C   UNL     1       2.999  -1.642   1.746  0.00  0.00    +0.091 A 
ATOM      7  C   UNL     1       2.179  -0.684   1.016  0.00  0.00    -0.021 A 
ATOM      8  C   UNL     1       2.846   0.061   0.110  0.00  0.00    -0.004 A 
ATOM      9  S   UNL     1       4.530  -0.479   0.225  0.00  0.00    -0.077 S 
ATOM     10  C   UNL     1       2.288   1.105  -0.807  0.00  0.00    +0.043 C 
ATOM     11  C   UNL     1       1.406   2.067  -0.000  0.00  0.00    +0.005 C 
ATOM     12  C   UNL     1      -0.019   1.523   0.010  0.00  0.00    +0.001 C 
ATOM     13  C   UNL     1       0.002  -0.004   0.002  0.00  0.00    +0.005 C 
ATOM     14  C   UNL     1       0.683  -0.534   1.259  0.00  0.00    +0.037 C 
BRANCH   6  15
ATOM     15  C   UNL     1       2.413  -2.527   2.755  0.00  0.00    +0.342 C 
ATOM     16  O   UNL     1       1.984  -3.618   2.432  0.00  0.00    -0.245 OA
BRANCH  15  17
ATOM     17  O   UNL     1       2.348  -2.131   4.043  0.00  0.00    -0.464 OA
ATOM     18  C   UNL     1       1.754  -3.059   4.989  0.00  0.00    +0.280 C 
ENDBRANCH  15  17
ENDBRANCH   6  15
ENDBRANCH   3   5
BRANCH   1  19
ATOM     19  C   UNL     1       7.667  -3.287   2.194  0.00  0.00    +0.214 C 
BRANCH  19  23
ATOM     20  C   UNL     1      10.791  -2.977   0.208  0.00  0.00    +0.138 C 
ATOM     21  C   UNL     1       9.438  -3.605   0.477  0.00  0.00    +0.251 C 
ATOM     22  O   UNL     1       8.896  -4.479  -0.164  0.00  0.00    -0.272 OA
ATOM     23  N   UNL     1       8.962  -2.988   1.577  0.00  0.00    -0.215 N 
ATOM     24  C   UNL     1       9.820  -2.071   2.039  0.00  0.00    +0.310 C 
ATOM     25  O   UNL     1       9.615  -1.388   3.023  0.00  0.00    -0.252 OA
ATOM     26  N   UNL     1      10.937  -1.991   1.293  0.00  0.00    -0.281 N 
ATOM     27  H   UNL     1      11.691  -1.399   1.440  0.00  0.00    +0.152 HD
BRANCH  20  28
ATOM     28  C   UNL     1      10.804  -2.293  -1.135  0.00  0.00    -0.015 A 
ATOM     29  C   UNL     1      11.284  -2.962  -2.246  0.00  0.00    +0.006 A 
ATOM     30  C   UNL     1      11.292  -2.336  -3.479  0.00  0.00    +0.000 A 
ATOM     31  C   UNL     1      10.830  -1.039  -3.599  0.00  0.00    +0.000 A 
ATOM     32  C   UNL     1      10.355  -0.369  -2.487  0.00  0.00    +0.000 A 
ATOM     33  C   UNL     1      10.343  -0.996  -1.255  0.00  0.00    +0.006 A 
ENDBRANCH  20  28
BRANCH  20  35
ATOM     34  C   UNL     1      11.828  -4.745   1.636  0.00  0.00    +0.007 C 
ATOM     35  C   UNL     1      11.897  -4.030   0.285  0.00  0.00    +0.037 C 
ENDBRANCH  20  35
ENDBRANCH  19  23
ENDBRANCH   1  19
TORSDOF 7
