REMARK  Name = ZINC37295061
REMARK  5 active torsions:
REMARK  status: ('A' for Active; 'I' for Inactive)
REMARK    1  A    between atoms: C_1  and  C_2
REMARK    2  A    between atoms: C_5  and  C_20
REMARK    3  A    between atoms: C_6  and  N_8
REMARK    4  A    between atoms: C_9  and  N_19
REMARK    5  A    between atoms: C_11  and  C_13
REMARK                            x       y       z     vdW  Elec       q    Type
REMARK                         _______ _______ _______ _____ _____    ______ ____
ROOT
ATOM      1  N   UNL     1       0.262  -3.111   2.174  0.00  0.00    -0.218 N 
ATOM      2  C   UNL     1       0.281  -2.750   3.488  0.00  0.00    +0.120 A 
ATOM      3  C   UNL     1       0.365  -3.886   4.228  0.00  0.00    +0.076 A 
ATOM      4  C   UNL     1       0.399  -4.979   3.337  0.00  0.00    +0.130 A 
ATOM      5  N   UNL     1       0.331  -4.508   2.107  0.00  0.00    -0.162 NA
ENDROOT
BRANCH   1  11
ATOM      6  C   UNL     1       1.841   0.930  -0.141  0.00  0.00    +0.044 C 
ATOM      7  C   UNL     1       0.934  -0.272  -0.065  0.00  0.00    -0.048 A 
ATOM      8  C   UNL     1       0.022  -0.513  -1.075  0.00  0.00    +0.004 A 
ATOM      9  C   UNL     1      -0.812  -1.615  -1.010  0.00  0.00    +0.006 A 
ATOM     10  C   UNL     1      -0.735  -2.477   0.066  0.00  0.00    -0.025 A 
ATOM     11  C   UNL     1       0.181  -2.238   1.082  0.00  0.00    +0.071 A 
ATOM     12  C   UNL     1       1.020  -1.133   1.011  0.00  0.00    +0.031 A 
ATOM     13  C   UNL     1      -1.644  -3.677   0.138  0.00  0.00    +0.046 C 
ENDBRANCH   1  11
BRANCH   4  14
ATOM     14  C   UNL     1       0.489  -6.404   3.716  0.00  0.00    +0.156 A 
ATOM     15  C   UNL     1       0.527  -7.457   2.858  0.00  0.00    +0.052 A 
ATOM     16  C   UNL     1       0.613  -8.622   3.646  0.00  0.00    +0.057 A 
ATOM     17  C   UNL     1       0.623  -8.226   4.935  0.00  0.00    +0.171 A 
ATOM     18  O   UNL     1       0.554  -6.886   4.973  0.00  0.00    -0.447 OA
ATOM     19 BR   UNL     1       0.726  -9.369   6.439  0.00  0.00    -0.008 Br
ENDBRANCH   4  14
BRANCH   2  20
ATOM     20  N   UNL     1       0.225  -1.450   3.983  0.00  0.00    -0.343 N 
ATOM     21  H   UNL     1       0.073  -0.707   3.378  0.00  0.00    +0.144 HD
ATOM     22  H   UNL     1       0.337  -1.288   4.932  0.00  0.00    +0.144 HD
ENDBRANCH   2  20
TORSDOF 3
