REMARK  Name = ZINC36552919
REMARK  10 active torsions:
REMARK  status: ('A' for Active; 'I' for Inactive)
REMARK    1  A    between atoms: C_1  and  C_2
REMARK    2  A    between atoms: C_2  and  C_3
REMARK    3  A    between atoms: C_2  and  C_4
REMARK    4  A    between atoms: C_2  and  N_5
REMARK    5  A    between atoms: C_6  and  C_8
REMARK    6  A    between atoms: C_8  and  C_10
REMARK    7  A    between atoms: C_8  and  N_20
REMARK    8  A    between atoms: C_12  and  N_17
REMARK    9  A    between atoms: N_20  and  C_21
REMARK   10  A    between atoms: C_28  and  C_30
REMARK                            x       y       z     vdW  Elec       q    Type
REMARK                         _______ _______ _______ _____ _____    ______ ____
ROOT
ATOM      1  C   UNL     1       2.895  -0.852  -2.134  0.00  0.00    +0.199 C 
ENDROOT
BRANCH   1   2
ATOM      2  C   UNL     1       1.650  -0.349  -2.818  0.00  0.00    +0.003 A 
ATOM      3  C   UNL     1       0.927   0.690  -2.261  0.00  0.00    +0.040 A 
ATOM      4  C   UNL     1      -0.215   1.151  -2.888  0.00  0.00    +0.127 A 
ATOM      5  C   UNL     1      -0.635   0.574  -4.072  0.00  0.00    +0.034 A 
ATOM      6  C   UNL     1       0.086  -0.465  -4.629  0.00  0.00    +0.022 A 
ATOM      7  C   UNL     1       1.233  -0.923  -4.005  0.00  0.00    +0.047 A 
ATOM      8 CL   UNL     1       2.144  -2.223  -4.708  0.00  0.00    -0.083 Cl
BRANCH   4   9
ATOM      9  N   UNL     1      -0.988   2.264  -2.292  0.00  0.00    +0.056 N 
ATOM     10  O   UNL     1      -0.621   2.768  -1.257  0.00  0.00    -0.126 OA
ATOM     11  O   UNL     1      -1.987   2.667  -2.840  0.00  0.00    -0.126 OA
ENDBRANCH   4   9
ENDBRANCH   1   2
BRANCH   1  13
ATOM     12  N   UNL     1       2.050  -1.013   0.185  0.00  0.00    -0.309 N 
ATOM     13  C   UNL     1       2.885  -0.419  -0.690  0.00  0.00    +0.239 C 
ATOM     14  O   UNL     1       3.628   0.463  -0.316  0.00  0.00    -0.273 OA
ATOM     15  H   UNL     1       1.406  -1.668  -0.126  0.00  0.00    +0.149 HD
BRANCH  12  17
ATOM     16  C   UNL     1       1.835   0.824   1.785  0.00  0.00    +0.031 C 
ATOM     17  C   UNL     1       2.115  -0.669   1.608  0.00  0.00    +0.026 C 
ATOM     18  C   UNL     1       3.509  -0.994   2.148  0.00  0.00    +0.031 C 
ATOM     19  C   UNL     1       1.069  -1.479   2.377  0.00  0.00    +0.031 C 
ENDBRANCH  12  17
ENDBRANCH   1  13
BRANCH   1  20
ATOM     20  N   UNL     1       4.076  -0.299  -2.801  0.00  0.00    -0.254 N 
ATOM     21  C   UNL     1       5.035  -1.124  -3.267  0.00  0.00    +0.241 C 
ATOM     22  O   UNL     1       4.879  -2.325  -3.216  0.00  0.00    -0.273 OA
BRANCH  20  23
ATOM     23  C   UNL     1       4.209   1.085  -2.955  0.00  0.00    +0.039 A 
ATOM     24  C   UNL     1       5.136   1.785  -2.193  0.00  0.00    +0.023 A 
ATOM     25  C   UNL     1       5.265   3.151  -2.347  0.00  0.00    +0.003 A 
ATOM     26  C   UNL     1       4.472   3.824  -3.258  0.00  0.00    +0.020 A 
ATOM     27  C   UNL     1       3.546   3.131  -4.018  0.00  0.00    +0.043 A 
ATOM     28  C   UNL     1       3.417   1.762  -3.873  0.00  0.00    +0.043 A 
ATOM     29 CL   UNL     1       2.551   3.980  -5.160  0.00  0.00    -0.083 Cl
ENDBRANCH  20  23
BRANCH  21  30
ATOM     30  C   UNL     1       6.301  -0.553  -3.850  0.00  0.00    +0.160 C 
ATOM     31  C   UNL     1       6.074  -0.141  -5.322  0.00  0.00    +0.041 C 
ATOM     32  C   UNL     1       6.532  -1.409  -6.079  0.00  0.00    +0.098 C 
ATOM     33  C   UNL     1       7.497  -2.080  -5.127  0.00  0.00    +0.214 C 
ATOM     34  O   UNL     1       8.289  -2.946  -5.437  0.00  0.00    -0.276 OA
ATOM     35  N   UNL     1       7.351  -1.578  -3.887  0.00  0.00    -0.304 N 
ATOM     36  H   UNL     1       7.871  -1.856  -3.117  0.00  0.00    +0.149 HD
ENDBRANCH  21  30
ENDBRANCH   1  20
TORSDOF 7
