REMARK  Name = ZINC03003530
REMARK  7 active torsions:
REMARK  status: ('A' for Active; 'I' for Inactive)
REMARK    1  A    between atoms: C_4  and  O_7
REMARK    2  A    between atoms: O_7  and  C_8
REMARK    3  A    between atoms: C_12  and  C_14
REMARK    4  A    between atoms: C_14  and  C_16
REMARK    5  A    between atoms: C_14  and  N_27
REMARK    6  A    between atoms: C_25  and  O_26
REMARK    7  A    between atoms: N_27  and  C_28
REMARK                            x       y       z     vdW  Elec       q    Type
REMARK                         _______ _______ _______ _____ _____    ______ ____
ROOT
ATOM      1  C   UNL     1      -2.468  -0.517   0.044  0.00  0.00    +0.136 C 
ENDROOT
BRANCH   1   2
ATOM      2  C   UNL     1      -1.736  -1.143  -1.116  0.00  0.00    +0.021 A 
ATOM      3  C   UNL     1      -0.663  -0.470  -1.693  0.00  0.00    +0.010 A 
ATOM      4  C   UNL     1       0.019  -1.008  -2.742  0.00  0.00    +0.010 A 
ATOM      5  C   UNL     1      -0.363  -2.260  -3.252  0.00  0.00    +0.004 A 
ATOM      6  C   UNL     1       0.317  -2.848  -4.335  0.00  0.00    +0.011 A 
ATOM      7  C   UNL     1      -0.110  -4.067  -4.779  0.00  0.00    +0.020 A 
ATOM      8  C   UNL     1      -1.191  -4.691  -4.161  0.00  0.00    +0.111 A 
ATOM      9  N   UNL     1      -1.822  -4.141  -3.153  0.00  0.00    -0.251 NA
ATOM     10  C   UNL     1      -1.454  -2.950  -2.671  0.00  0.00    +0.113 A 
ATOM     11  C   UNL     1      -2.134  -2.364  -1.582  0.00  0.00    +0.148 A 
BRANCH  11  12
ATOM     12  O   UNL     1      -3.180  -3.008  -1.003  0.00  0.00    -0.504 OA
ATOM     13  H   UNL     1      -4.038  -2.800  -1.398  0.00  0.00    +0.292 HD
ENDBRANCH  11  12
ENDBRANCH   1   2
BRANCH   1  18
ATOM     14  C   UNL     1      -2.080  -2.431   3.279  0.00  0.00    +0.129 A 
ATOM     15  C   UNL     1      -0.839  -1.987   3.713  0.00  0.00    +0.046 A 
ATOM     16  C   UNL     1      -0.132  -1.071   2.959  0.00  0.00    +0.004 A 
ATOM     17  C   UNL     1      -0.659  -0.597   1.772  0.00  0.00    +0.006 A 
ATOM     18  C   UNL     1      -1.896  -1.037   1.337  0.00  0.00    -0.019 A 
ATOM     19  C   UNL     1      -2.609  -1.949   2.091  0.00  0.00    +0.052 A 
BRANCH  14  20
ATOM     20  O   UNL     1      -2.778  -3.331   4.020  0.00  0.00    -0.456 OA
BRANCH  20  24
ATOM     21  C   UNL     1      -1.222  -4.460   7.670  0.00  0.00    +0.000 A 
ATOM     22  C   UNL     1      -1.842  -3.231   7.534  0.00  0.00    +0.004 A 
ATOM     23  C   UNL     1      -2.363  -2.851   6.313  0.00  0.00    +0.046 A 
ATOM     24  C   UNL     1      -2.265  -3.703   5.222  0.00  0.00    +0.128 A 
ATOM     25  C   UNL     1      -1.647  -4.937   5.362  0.00  0.00    +0.046 A 
ATOM     26  C   UNL     1      -1.123  -5.311   6.585  0.00  0.00    +0.004 A 
ENDBRANCH  20  24
ENDBRANCH  14  20
ENDBRANCH   1  18
BRANCH   1  27
ATOM     27  N   UNL     1      -2.312   0.938  -0.009  0.00  0.00    -0.320 N 
ATOM     28  H   UNL     1      -1.588   1.367   0.474  0.00  0.00    +0.148 HD
BRANCH  27  29
ATOM     29  C   UNL     1      -3.202   1.706  -0.751  0.00  0.00    +0.097 A 
ATOM     30  C   UNL     1      -4.162   1.079  -1.541  0.00  0.00    +0.041 A 
ATOM     31  C   UNL     1      -5.044   1.855  -2.270  0.00  0.00    +0.005 A 
ATOM     32  C   UNL     1      -4.935   3.237  -2.189  0.00  0.00    +0.018 A 
ATOM     33  C   UNL     1      -3.956   3.792  -1.390  0.00  0.00    +0.084 A 
ATOM     34  N   UNL     1      -3.071   3.061  -0.660  0.00  0.00    -0.350 N 
ATOM     35  H   UNL     1      -2.350   3.501  -0.077  0.00  0.00    +0.166 HD
ENDBRANCH  27  29
ENDBRANCH   1  27
TORSDOF 7
