REMARK  Name = ZINC21177319
REMARK  4 active torsions:
REMARK  status: ('A' for Active; 'I' for Inactive)
REMARK    1  A    between atoms: C_1  and  C_2
REMARK    2  A    between atoms: C_20  and  C_22
REMARK    3  A    between atoms: C_26  and  O_28
REMARK    4  A    between atoms: O_28  and  C_29
REMARK                            x       y       z     vdW  Elec       q    Type
REMARK                         _______ _______ _______ _____ _____    ______ ____
ROOT
ATOM      1  C   UNL     1       7.497   5.999  -0.042  0.00  0.00    +0.068 C 
ATOM      2  C   UNL     1       6.615   4.777  -0.038  0.00  0.00    +0.066 A 
ATOM      3  C   UNL     1       7.052   3.459  -0.053  0.00  0.00    +0.023 A 
ATOM      4  C   UNL     1       5.949   2.648  -0.033  0.00  0.00    +0.135 A 
ATOM      5  N   UNL     1       4.857   3.444  -0.024  0.00  0.00    -0.193 N 
ATOM      6  N   UNL     1       5.303   4.776  -0.020  0.00  0.00    -0.168 NA
ATOM      7  C   UNL     1       3.533   3.022  -0.015  0.00  0.00    +0.196 A 
ATOM      8  N   UNL     1       2.439   3.745  -0.001  0.00  0.00    -0.221 NA
ATOM      9  C   UNL     1       1.206   3.196   0.008  0.00  0.00    +0.081 A 
ATOM     10  C   UNL     1      -0.045   3.857   0.023  0.00  0.00    +0.029 A 
ATOM     11  C   UNL     1      -1.214   3.143   0.030  0.00  0.00    +0.002 A 
ATOM     12  C   UNL     1      -1.217   1.755   0.017  0.00  0.00    +0.001 A 
ATOM     13  C   UNL     1      -0.013   1.076   0.008  0.00  0.00    +0.017 A 
ATOM     14  C   UNL     1       1.164   1.783   0.001  0.00  0.00    +0.041 A 
ATOM     15  S   UNL     1       2.889   1.355  -0.018  0.00  0.00    -0.048 S 
ATOM     16  N   UNL     1       6.058   1.259  -0.054  0.00  0.00    -0.270 N 
ATOM     17  C   UNL     1       7.276   0.715   0.152  0.00  0.00    +0.219 C 
ATOM     18  O   UNL     1       7.426  -0.475  -0.028  0.00  0.00    -0.275 OA
ATOM     19  C   UNL     1       8.452   1.538   0.596  0.00  0.00    +0.109 C 
ATOM     20  C   UNL     1       8.456   2.911  -0.085  0.00  0.00    +0.063 C 
ATOM     21  H   UNL     1       5.166   0.640  -0.234  0.00  0.00    +0.156 HD
ENDROOT
BRANCH  20  22
ATOM     22  C   UNL     1       9.382   3.842   0.654  0.00  0.00    -0.036 A 
ATOM     23  C   UNL     1       9.163   4.115   1.992  0.00  0.00    +0.004 A 
ATOM     24  C   UNL     1      10.011   4.968   2.674  0.00  0.00    +0.004 A 
ATOM     25  C   UNL     1      11.079   5.551   2.019  0.00  0.00    +0.045 A 
ATOM     26  C   UNL     1      11.300   5.279   0.677  0.00  0.00    +0.120 A 
ATOM     27  C   UNL     1      10.451   4.418  -0.003  0.00  0.00    +0.050 A 
BRANCH  26  28
ATOM     28  O   UNL     1      12.350   5.850   0.030  0.00  0.00    -0.495 OA
ATOM     29  C   UNL     1      13.186   6.722   0.795  0.00  0.00    +0.277 C 
ENDBRANCH  26  28
ENDBRANCH  20  22
TORSDOF 2
