REMARK  Name = ZINC06772741
REMARK  7 active torsions:
REMARK  status: ('A' for Active; 'I' for Inactive)
REMARK    1  A    between atoms: C_1  and  C_2
REMARK    2  A    between atoms: C_4  and  C_18
REMARK    3  A    between atoms: C_6  and  C_17
REMARK    4  A    between atoms: N_8  and  C_11
REMARK    5  A    between atoms: N_20  and  C_21
REMARK    6  A    between atoms: C_21  and  C_22
REMARK    7  A    between atoms: C_27  and  N_62
REMARK                            x       y       z     vdW  Elec       q    Type
REMARK                         _______ _______ _______ _____ _____    ______ ____
ROOT
ATOM      1  C   UNL     1      -2.756   5.253  -1.049  0.00  0.00    +0.065 C 
ATOM      2  C   UNL     1      -2.647   3.856  -0.496  0.00  0.00    +0.041 A 
ATOM      3  C   UNL     1      -1.420   3.209  -0.531  0.00  0.00    +0.037 A 
ATOM      4  C   UNL     1      -1.314   1.917  -0.021  0.00  0.00    +0.051 A 
ATOM      5  C   UNL     1      -2.480   1.320   0.509  0.00  0.00    +0.054 A 
ATOM      6  C   UNL     1      -2.756   0.070   1.102  0.00  0.00    +0.070 A 
ATOM      7  N   UNL     1      -4.017   0.033   1.429  0.00  0.00    -0.169 NA
ATOM      8  N   UNL     1      -4.631   1.242   1.080  0.00  0.00    -0.214 N 
ATOM      9  C   UNL     1      -3.683   2.054   0.508  0.00  0.00    +0.164 A 
ATOM     10  N   UNL     1      -3.716   3.280   0.007  0.00  0.00    -0.232 NA
ATOM     11  C   UNL     1      -1.760  -1.041   1.317  0.00  0.00    +0.068 C 
ENDROOT
BRANCH   8  12
ATOM     12  C   UNL     1      -5.979   1.565   1.278  0.00  0.00    +0.068 A 
ATOM     13  C   UNL     1      -6.343   2.867   1.598  0.00  0.00    +0.028 A 
ATOM     14  C   UNL     1      -7.674   3.184   1.787  0.00  0.00    +0.002 A 
ATOM     15  C   UNL     1      -8.643   2.205   1.670  0.00  0.00    +0.000 A 
ATOM     16  C   UNL     1      -8.284   0.906   1.358  0.00  0.00    +0.002 A 
ATOM     17  C   UNL     1      -6.955   0.584   1.161  0.00  0.00    +0.028 A 
ENDBRANCH   8  12
BRANCH   4  18
ATOM     18  C   UNL     1      -0.026   1.192  -0.040  0.00  0.00    +0.245 C 
ATOM     19  O   UNL     1      -0.003  -0.002  -0.271  0.00  0.00    -0.270 OA
ATOM     20  N   UNL     1       1.124   1.855   0.195  0.00  0.00    -0.311 N 
ATOM     21  H   UNL     1       1.106   2.807   0.379  0.00  0.00    +0.149 HD
BRANCH  20  22
ATOM     22  C   UNL     1       2.401   1.137   0.170  0.00  0.00    +0.106 C 
BRANCH  22  23
ATOM     23  C   UNL     1       3.541   2.115   0.465  0.00  0.00    -0.012 C 
ATOM     24  C   UNL     1       3.521   2.547   1.955  0.00  0.00    -0.015 C 
ATOM     25  C   UNL     1       5.007   2.913   2.194  0.00  0.00    -0.078 C 
ATOM     26  C   UNL     1       4.909   1.416   0.324  0.00  0.00    -0.074 C 
ATOM     27  N   UNL     1       5.761   1.909   1.421  0.00  0.00    +0.382 N 
ATOM     28  H   UNL     1       6.013   1.126   2.035  0.00  0.00    -0.081 HD
BRANCH  27  29
ATOM     29  C   UNL     1       7.003   2.511   0.870  0.00  0.00    -0.069 C 
ATOM     30  C   UNL     1       7.886   1.413   0.243  0.00  0.00    -0.015 C 
ATOM     31  C   UNL     1       9.332   1.839   0.596  0.00  0.00    -0.002 C 
ATOM     32  C   UNL     1       9.181   2.403   2.031  0.00  0.00    -0.002 C 
ATOM     33  C   UNL     1       7.827   3.141   2.007  0.00  0.00    -0.015 C 
ENDBRANCH  27  29
ENDBRANCH  22  23
ENDBRANCH  20  22
ENDBRANCH   4  18
TORSDOF 5
