REMARK  Name = ZINC63308323
REMARK  6 active torsions:
REMARK  status: ('A' for Active; 'I' for Inactive)
REMARK    1  A    between atoms: C_1  and  C_2
REMARK    2  A    between atoms: C_4  and  C_33
REMARK    3  A    between atoms: N_13  and  C_14
REMARK    4  A    between atoms: N_20  and  C_21
REMARK    5  A    between atoms: C_21  and  C_22
REMARK    6  A    between atoms: C_22  and  C_23
REMARK                            x       y       z     vdW  Elec       q    Type
REMARK                         _______ _______ _______ _____ _____    ______ ____
ROOT
ATOM      1  C   UNL     1      -2.283  -5.104   6.145  0.00  0.00    +0.066 C 
ATOM      2  C   UNL     1      -2.265  -4.479   4.773  0.00  0.00    +0.044 A 
ATOM      3  C   UNL     1      -2.823  -5.144   3.692  0.00  0.00    +0.046 A 
ATOM      4  C   UNL     1      -2.785  -4.534   2.449  0.00  0.00    +0.044 A 
ATOM      5  N   UNL     1      -2.223  -3.342   2.331  0.00  0.00    -0.217 NA
ATOM      6  C   UNL     1      -1.699  -2.734   3.384  0.00  0.00    +0.231 A 
ATOM      7  N   UNL     1      -1.722  -3.288   4.587  0.00  0.00    -0.217 NA
ATOM      8  N   UNL     1      -1.116  -1.484   3.225  0.00  0.00    -0.298 N 
ATOM      9  C   UNL     1      -0.460  -0.897   4.271  0.00  0.00    +0.177 C 
ATOM     10  N   UNL     1      -0.277  -1.567   5.397  0.00  0.00    -0.242 N 
ATOM     11  C   UNL     1       0.181  -0.934   6.487  0.00  0.00    +0.306 C 
ATOM     12  O   UNL     1       0.271   0.281   6.493  0.00  0.00    -0.252 OA
ATOM     13  N   UNL     1       0.542  -1.642   7.575  0.00  0.00    -0.296 N 
ATOM     14  N   UNL     1       0.006   0.380   4.154  0.00  0.00    -0.358 N 
ATOM     15  C   UNL     1      -3.379  -5.219   1.244  0.00  0.00    +0.066 C 
ATOM     16  H   UNL     1      -1.174  -1.028   2.371  0.00  0.00    +0.171 HD
ATOM     17  H   UNL     1       0.471  -2.609   7.570  0.00  0.00    +0.151 HD
ATOM     18  H   UNL     1       0.580   0.752   4.842  0.00  0.00    +0.162 HD
ATOM     19  H   UNL     1      -0.475  -2.515   5.434  0.00  0.00    +0.159 HD
ENDROOT
BRANCH  13  20
ATOM     20  C   UNL     1       1.043  -0.951   8.766  0.00  0.00    +0.074 C 
ATOM     21  C   UNL     1      -0.137  -0.503   9.630  0.00  0.00    +0.022 C 
ATOM     22  C   UNL     1       0.386   0.219  10.873  0.00  0.00    +0.002 C 
ATOM     23  C   UNL     1       1.275  -0.731  11.678  0.00  0.00    +0.000 C 
ATOM     24  C   UNL     1       2.456  -1.179  10.814  0.00  0.00    +0.002 C 
ATOM     25  C   UNL     1       1.933  -1.901   9.570  0.00  0.00    +0.022 C 
ENDBRANCH  13  20
BRANCH  14  26
ATOM     26  C   UNL     1      -0.361   1.190   2.990  0.00  0.00    +0.120 C 
BRANCH  26  27
ATOM     27  C   UNL     1       0.378   2.528   3.046  0.00  0.00    +0.054 C 
BRANCH  27  28
ATOM     28  C   UNL     1      -0.089   3.408   1.915  0.00  0.00    -0.040 C 
ATOM     29  C   UNL     1      -1.196   4.185   1.894  0.00  0.00    +0.000 A 
ATOM     30  C   UNL     1      -2.255   4.435   2.879  0.00  0.00    +0.030 A 
ATOM     31  C   UNL     1      -3.258   5.286   2.562  0.00  0.00    +0.042 A 
ATOM     32  C   UNL     1      -3.312   5.933   1.319  0.00  0.00    +0.022 A 
ATOM     33  C   UNL     1      -2.375   5.754   0.363  0.00  0.00    +0.027 A 
ATOM     34  C   UNL     1      -1.275   4.881   0.589  0.00  0.00    +0.043 A 
ATOM     35  N   UNL     1      -0.257   4.546  -0.166  0.00  0.00    -0.380 N 
ATOM     36  C   UNL     1       0.587   3.604   0.577  0.00  0.00    +0.144 C 
ATOM     37 CL   UNL     1      -4.513   5.583   3.725  0.00  0.00    -0.084 Cl
ATOM     38  H   UNL     1      -0.089   4.870  -1.065  0.00  0.00    +0.160 HD
ENDBRANCH  27  28
ENDBRANCH  26  27
ENDBRANCH  14  26
TORSDOF 4
