REMARK  Name = ZINC39729374
REMARK  4 active torsions:
REMARK  status: ('A' for Active; 'I' for Inactive)
REMARK    1  A    between atoms: C_1  and  C_2
REMARK    2  A    between atoms: C_11  and  C_13
REMARK    3  A    between atoms: C_13  and  N_14
REMARK    4  A    between atoms: C_17  and  N_20
REMARK                            x       y       z     vdW  Elec       q    Type
REMARK                         _______ _______ _______ _____ _____    ______ ____
ROOT
ATOM      1  N   UNL     1       2.151  -3.592   4.751  0.00  0.00    -0.297 NA
ATOM      2  C   UNL     1       2.457  -4.474   3.618  0.00  0.00    +0.087 C 
ATOM      3  C   UNL     1       1.757  -5.821   3.815  0.00  0.00    +0.040 C 
ATOM      4  C   UNL     1       2.238  -6.454   5.123  0.00  0.00    +0.095 C 
ATOM      5  C   UNL     1       1.952  -5.494   6.281  0.00  0.00    +0.040 C 
ATOM      6  C   UNL     1       2.646  -4.157   6.013  0.00  0.00    +0.087 C 
ENDROOT
BRANCH   4   7
ATOM      7  N   UNL     1       1.528  -7.716   5.347  0.00  0.00    -0.289 N 
ATOM      8  C   UNL     1       2.117  -8.972   5.469  0.00  0.00    +0.070 A 
ATOM      9  C   UNL     1       3.430  -9.415   5.427  0.00  0.00    +0.028 A 
ATOM     10  C   UNL     1       3.707 -10.759   5.585  0.00  0.00    +0.002 A 
ATOM     11  C   UNL     1       2.680 -11.665   5.785  0.00  0.00    +0.002 A 
ATOM     12  C   UNL     1       1.369 -11.233   5.828  0.00  0.00    +0.028 A 
ATOM     13  C   UNL     1       1.080  -9.886   5.671  0.00  0.00    +0.067 A 
ATOM     14  N   UNL     1      -0.106  -9.156   5.665  0.00  0.00    -0.306 N 
ATOM     15  H   UNL     1      -0.997  -9.521   5.783  0.00  0.00    +0.170 HD
ATOM     16  C   UNL     1       0.195  -7.858   5.475  0.00  0.00    +0.328 A 
ATOM     17  O   UNL     1      -0.615  -6.951   5.422  0.00  0.00    -0.247 OA
ENDBRANCH   4   7
BRANCH   1  18
ATOM     18  C   UNL     1       2.693  -2.244   4.529  0.00  0.00    +0.140 C 
BRANCH  18  28
ATOM     19  C   UNL     1      -0.019   1.526   0.010  0.00  0.00    +0.032 C 
ATOM     20  C   UNL     1       0.002  -0.004   0.002  0.00  0.00    +0.100 C 
ATOM     21  C   UNL     1       0.715  -0.489  -1.282  0.00  0.00    +0.102 C 
ATOM     22  S   UNL     1       1.501  -2.015  -0.612  0.00  0.00    -0.086 S 
ATOM     23  C   UNL     1       1.488  -1.567   1.114  0.00  0.00    +0.172 A 
ATOM     24  N   UNL     1       0.672  -0.478   1.218  0.00  0.00    -0.284 N 
ATOM     25  C   UNL     1       0.544   0.076   2.462  0.00  0.00    +0.255 A 
ATOM     26  O   UNL     1      -0.146   1.070   2.619  0.00  0.00    -0.268 OA
ATOM     27  C   UNL     1       1.205  -0.496   3.554  0.00  0.00    +0.095 A 
ATOM     28  C   UNL     1       1.982  -1.602   3.366  0.00  0.00    +0.063 A 
ATOM     29  N   UNL     1       2.099  -2.105   2.144  0.00  0.00    -0.227 NA
ENDBRANCH  18  28
ENDBRANCH   1  18
TORSDOF 3
