REMARK  Name = ZINC65318897
REMARK  8 active torsions:
REMARK  status: ('A' for Active; 'I' for Inactive)
REMARK    1  A    between atoms: C_1  and  C_2
REMARK    2  A    between atoms: C_7  and  C_12
REMARK    3  A    between atoms: C_12  and  N_13
REMARK    4  A    between atoms: N_13  and  S_14
REMARK    5  A    between atoms: S_14  and  C_17
REMARK    6  A    between atoms: C_19  and  C_24
REMARK    7  A    between atoms: C_22  and  C_23
REMARK    8  A    between atoms: C_27  and  C_31
REMARK                            x       y       z     vdW  Elec       q    Type
REMARK                         _______ _______ _______ _____ _____    ______ ____
ROOT
ATOM      1  C   UNL     1      -4.161  -5.402   3.158  0.00  0.00    +0.108 A 
ATOM      2  C   UNL     1      -5.299  -4.907   3.766  0.00  0.00    +0.035 A 
ATOM      3  C   UNL     1      -5.540  -5.170   5.101  0.00  0.00    -0.012 A 
ATOM      4  C   UNL     1      -4.642  -5.929   5.829  0.00  0.00    +0.007 A 
ATOM      5  C   UNL     1      -3.504  -6.425   5.221  0.00  0.00    +0.005 A 
ATOM      6  C   UNL     1      -3.266  -6.165   3.884  0.00  0.00    -0.024 A 
ATOM      7  C   UNL     1      -2.028  -6.711   3.220  0.00  0.00    +0.046 C 
ENDROOT
BRANCH   3   8
ATOM      8  C   UNL     1      -6.781  -4.629   5.764  0.00  0.00    +0.180 C 
ATOM      9  N   UNL     1      -6.521  -4.331   7.192  0.00  0.00    -0.262 NA
ATOM     10  C   UNL     1      -7.246  -3.080   7.493  0.00  0.00    +0.298 C 
ATOM     11  O   UNL     1      -7.917  -2.676   6.286  0.00  0.00    -0.270 OA
ATOM     12  N   UNL     1      -7.147  -3.307   5.189  0.00  0.00    -0.177 NA
ATOM     13  H   UNL     1      -6.839  -5.085   7.783  0.00  0.00    +0.127 HD
ATOM     14  H   UNL     1      -6.324  -2.767   4.969  0.00  0.00    +0.156 HD
BRANCH  10  15
ATOM     15  C   UNL     1      -8.253  -3.322   8.588  0.00  0.00    +0.261 C 
ATOM     16  O   UNL     1      -8.079  -2.844   9.689  0.00  0.00    -0.271 OA
ATOM     17  N   UNL     1      -9.348  -4.070   8.343  0.00  0.00    -0.298 N 
ATOM     18  C   UNL     1      -9.678  -4.712   7.063  0.00  0.00    +0.108 C 
ATOM     19  C   UNL     1     -11.028  -5.435   7.248  0.00  0.00    +0.020 C 
ATOM     20  C   UNL     1     -11.660  -4.690   8.453  0.00  0.00    +0.020 C 
ATOM     21  C   UNL     1     -10.408  -4.385   9.318  0.00  0.00    +0.108 C 
ENDBRANCH  10  15
ENDBRANCH   3   8
BRANCH   1  22
ATOM     22  S   UNL     1      -3.854  -5.067   1.456  0.00  0.00    +0.059 S 
ATOM     23  O   UNL     1      -2.512  -4.608   1.367  0.00  0.00    -0.153 OA
ATOM     24  O   UNL     1      -4.955  -4.299   0.988  0.00  0.00    -0.153 OA
BRANCH  22  25
ATOM     25  N   UNL     1      -3.913  -6.515   0.653  0.00  0.00    -0.186 NA
ATOM     26  H   UNL     1      -3.118  -6.860   0.217  0.00  0.00    +0.148 HD
BRANCH  25  27
ATOM     27  C   UNL     1      -5.164  -7.274   0.602  0.00  0.00    +0.152 C 
BRANCH  27  34
ATOM     28  C   UNL     1       0.117 -10.142  -2.995  0.00  0.00    +0.044 C 
ATOM     29  C   UNL     1      -1.200  -9.474  -2.698  0.00  0.00    -0.048 A 
ATOM     30  C   UNL     1      -1.719  -8.559  -3.631  0.00  0.00    +0.005 A 
ATOM     31  C   UNL     1      -2.889  -7.916  -3.446  0.00  0.00    +0.027 A 
ATOM     32  C   UNL     1      -3.670  -8.168  -2.227  0.00  0.00    +0.060 A 
ATOM     33  N   UNL     1      -4.805  -7.704  -1.791  0.00  0.00    -0.362 N 
ATOM     34  C   UNL     1      -5.071  -8.338  -0.493  0.00  0.00    +0.190 C 
ATOM     35  N   UNL     1      -3.939  -9.235  -0.231  0.00  0.00    -0.362 N 
ATOM     36  C   UNL     1      -3.121  -9.138  -1.239  0.00  0.00    +0.060 A 
ATOM     37  C   UNL     1      -1.838  -9.782  -1.551  0.00  0.00    +0.030 A 
ATOM     38  H   UNL     1      -5.371  -7.057  -2.240  0.00  0.00    +0.162 HD
ATOM     39  H   UNL     1      -3.821  -9.797   0.551  0.00  0.00    +0.162 HD
ENDBRANCH  27  34
ENDBRANCH  25  27
ENDBRANCH  22  25
ENDBRANCH   1  22
TORSDOF 6
