REMARK  Name = ZINC39624156
REMARK  8 active torsions:
REMARK  status: ('A' for Active; 'I' for Inactive)
REMARK    1  A    between atoms: C_1  and  C_2
REMARK    2  A    between atoms: C_2  and  C_3
REMARK    3  A    between atoms: C_3  and  C_4
REMARK    4  A    between atoms: C_4  and  N_5
REMARK    5  A    between atoms: C_6  and  C_8
REMARK    6  A    between atoms: C_19  and  C_21
REMARK    7  A    between atoms: C_28  and  C_32
REMARK    8  A    between atoms: N_30  and  C_31
REMARK                            x       y       z     vdW  Elec       q    Type
REMARK                         _______ _______ _______ _____ _____    ______ ____
ROOT
ATOM      1  C   UNL     1      -4.830  -4.543  -0.447  0.00  0.00    +0.100 C 
ATOM      2  C   UNL     1      -5.307  -4.128   0.963  0.00  0.00    +0.121 C 
ATOM      3  N   UNL     1      -6.044  -5.309   1.471  0.00  0.00    -0.296 N 
ATOM      4  C   UNL     1      -5.247  -6.470   1.006  0.00  0.00    +0.115 C 
ATOM      5  C   UNL     1      -4.791  -6.080  -0.415  0.00  0.00    -0.004 C 
ATOM      6  C   UNL     1      -5.750  -6.655  -1.452  0.00  0.00    -0.010 C 
ATOM      7  C   UNL     1      -5.652  -8.183  -1.440  0.00  0.00    -0.082 C 
ATOM      8  N   UNL     1      -4.274  -8.589  -1.740  0.00  0.00    +0.379 N 
ATOM      9  C   UNL     1      -3.370  -8.111  -0.688  0.00  0.00    -0.082 C 
ATOM     10  C   UNL     1      -3.372  -6.579  -0.668  0.00  0.00    -0.010 C 
ATOM     11  C   UNL     1      -7.181  -5.325   2.194  0.00  0.00    +0.250 C 
ATOM     12  O   UNL     1      -7.616  -6.377   2.620  0.00  0.00    -0.270 OA
ATOM     13  H   UNL     1      -4.225  -9.596  -1.792  0.00  0.00    -0.086 HD
ATOM     14  H   UNL     1      -3.994  -8.196  -2.626  0.00  0.00    -0.086 HD
ENDROOT
BRANCH  11  15
ATOM     15  C   UNL     1      -7.899  -4.065   2.467  0.00  0.00    +0.074 A 
ATOM     16  C   UNL     1      -7.189  -2.875   2.681  0.00  0.00    +0.127 A 
ATOM     17  N   UNL     1      -7.808  -1.745   2.925  0.00  0.00    -0.235 NA
ATOM     18  C   UNL     1      -9.134  -1.668   2.982  0.00  0.00    +0.160 A 
ATOM     19  C   UNL     1      -9.921  -2.819   2.778  0.00  0.00    +0.060 A 
ATOM     20  C   UNL     1      -9.296  -4.041   2.510  0.00  0.00    +0.067 A 
ATOM     21 CL   UNL     1     -10.224  -5.484   2.245  0.00  0.00    -0.082 Cl
ATOM     22  C   UNL     1     -11.313  -2.397   2.905  0.00  0.00    +0.071 A 
ATOM     23  N   UNL     1     -11.315  -1.120   3.159  0.00  0.00    -0.174 NA
ATOM     24  N   UNL     1     -10.003  -0.639   3.214  0.00  0.00    -0.249 N 
ATOM     25  C   UNL     1      -9.621   0.750   3.479  0.00  0.00    +0.174 C 
ATOM     26  C   UNL     1     -12.527  -3.279   2.767  0.00  0.00    +0.068 C 
ENDBRANCH  11  15
BRANCH   1  28
ATOM     27  N   UNL     1      -3.081  -3.707  -1.984  0.00  0.00    -0.315 N 
ATOM     28  C   UNL     1      -3.455  -3.990  -0.720  0.00  0.00    +0.218 C 
ATOM     29  O   UNL     1      -2.685  -3.798   0.198  0.00  0.00    -0.275 OA
ATOM     30  H   UNL     1      -3.696  -3.860  -2.717  0.00  0.00    +0.149 HD
BRANCH  27  31
ATOM     31  C   UNL     1      -1.744  -3.169  -2.249  0.00  0.00    +0.104 C 
BRANCH  31  32
ATOM     32  C   UNL     1      -1.576  -2.938  -3.752  0.00  0.00    +0.018 C 
BRANCH  32  34
ATOM     33  C   UNL     1      -0.013  -2.145  -5.532  0.00  0.00    +0.004 C 
ATOM     34  C   UNL     1      -0.180  -2.376  -4.029  0.00  0.00    -0.002 C 
ENDBRANCH  32  34
ENDBRANCH  31  32
ENDBRANCH  27  31
ENDBRANCH   1  28
TORSDOF 5
