REMARK  Name = ZINC15735671
REMARK  5 active torsions:
REMARK  status: ('A' for Active; 'I' for Inactive)
REMARK    1  A    between atoms: C_1  and  C_2
REMARK    2  A    between atoms: C_2  and  C_3
REMARK    3  A    between atoms: N_23  and  C_24
REMARK    4  A    between atoms: C_24  and  C_25
REMARK    5  A    between atoms: C_24  and  C_26
REMARK                            x       y       z     vdW  Elec       q    Type
REMARK                         _______ _______ _______ _____ _____    ______ ____
ROOT
ATOM      1  C   UNL     1       2.040   0.670   1.905  0.00  0.00    +0.125 C 
ATOM      2  C   UNL     1       2.175  -0.430   0.895  0.00  0.00    +0.045 A 
ATOM      3  C   UNL     1       3.202  -1.265   0.677  0.00  0.00    +0.025 A 
ATOM      4  C   UNL     1       2.801  -2.176  -0.324  0.00  0.00    +0.020 A 
ATOM      5  C   UNL     1       1.540  -1.850  -0.690  0.00  0.00    +0.092 A 
ATOM      6  N   UNL     1       1.162  -0.769   0.029  0.00  0.00    -0.312 N 
ATOM      7  C   UNL     1       0.002  -0.004   0.002  0.00  0.00    +0.090 A 
ATOM      8  C   UNL     1      -0.016   1.356   0.009  0.00  0.00    +0.005 A 
ATOM      9  C   UNL     1      -1.283   1.975   0.017  0.00  0.00    -0.030 A 
ATOM     10  C   UNL     1      -2.378   1.172  -0.011  0.00  0.00    -0.005 A 
ATOM     11  S   UNL     1      -1.701  -0.469  -0.037  0.00  0.00    -0.075 S 
ATOM     12  C   UNL     1      -3.814   1.585  -0.018  0.00  0.00    +0.043 C 
ATOM     13  C   UNL     1      -3.891   3.062   0.398  0.00  0.00    +0.005 C 
ATOM     14  C   UNL     1      -2.855   3.853  -0.406  0.00  0.00    +0.005 C 
ATOM     15  C   UNL     1      -1.443   3.493   0.057  0.00  0.00    +0.036 C 
ATOM     16  C   UNL     1       1.282   2.134   0.001  0.00  0.00    +0.148 C 
ATOM     17  N   UNL     1       2.029   2.007   1.265  0.00  0.00    -0.273 N 
ATOM     18  C   UNL     1       2.672   3.057   1.814  0.00  0.00    +0.303 C 
ATOM     19  O   UNL     1       3.279   2.921   2.858  0.00  0.00    -0.253 OA
ATOM     20  N   UNL     1       2.641   4.259   1.205  0.00  0.00    -0.297 N 
ATOM     21  H   UNL     1       2.156   4.369   0.372  0.00  0.00    +0.150 HD
ENDROOT
BRANCH  20  22
ATOM     22  C   UNL     1       3.339   5.401   1.801  0.00  0.00    +0.068 C 
ATOM     23  C   UNL     1       3.691   6.411   0.707  0.00  0.00    +0.027 C 
ATOM     24  C   UNL     1       2.434   6.067   2.839  0.00  0.00    +0.027 C 
ENDBRANCH  20  22
BRANCH   1  26
ATOM     25  C   UNL     1       0.645   1.521   3.795  0.00  0.00    +0.006 C 
ATOM     26  C   UNL     1       0.735   0.478   2.680  0.00  0.00    +0.025 C 
ENDBRANCH   1  26
TORSDOF 2
