REMARK  Name = ZINC08790332
REMARK  5 active torsions:
REMARK  status: ('A' for Active; 'I' for Inactive)
REMARK    1  A    between atoms: C_6  and  C_7
REMARK    2  A    between atoms: C_7  and  N_8
REMARK    3  A    between atoms: C_13  and  C_30
REMARK    4  A    between atoms: C_30  and  C_31
REMARK    5  A    between atoms: C_31  and  C_32
REMARK                            x       y       z     vdW  Elec       q    Type
REMARK                         _______ _______ _______ _____ _____    ______ ____
ROOT
ATOM      1  N   UNL     1      -5.051   0.741  -2.207  0.00  0.00    -0.237 N 
ATOM      2  C   UNL     1      -5.270  -0.316  -1.391  0.00  0.00    +0.224 C 
ATOM      3  O   UNL     1      -6.314  -0.921  -1.269  0.00  0.00    -0.275 OA
ATOM      4  C   UNL     1      -3.990  -0.623  -0.646  0.00  0.00    +0.073 C 
ATOM      5  C   UNL     1      -4.177  -0.271   0.846  0.00  0.00    -0.057 C 
ATOM      6  C   UNL     1      -2.649   1.301   0.038  0.00  0.00    +0.050 C 
ATOM      7  C   UNL     1      -2.983   0.433  -1.181  0.00  0.00    +0.088 C 
ATOM      8  C   UNL     1      -3.806   1.231  -2.167  0.00  0.00    +0.225 C 
ATOM      9  O   UNL     1      -3.402   2.169  -2.820  0.00  0.00    -0.275 OA
ATOM     10  C   UNL     1      -1.215   1.748   0.017  0.00  0.00    -0.026 A 
ATOM     11  C   UNL     1      -0.013   1.076   0.008  0.00  0.00    +0.024 A 
ATOM     12  C   UNL     1       1.177   1.784   0.000  0.00  0.00    +0.041 A 
ATOM     13  C   UNL     1       1.154   3.168   0.007  0.00  0.00    +0.022 A 
ATOM     14  C   UNL     1      -0.048   3.844   0.020  0.00  0.00    +0.025 A 
ATOM     15  C   UNL     1      -1.249   3.139   0.027  0.00  0.00    +0.036 A 
ATOM     16  N   UNL     1      -2.571   3.590   0.038  0.00  0.00    -0.286 N 
ATOM     17  C   UNL     1      -3.454   2.572   0.045  0.00  0.00    +0.211 C 
ATOM     18  O   UNL     1      -4.664   2.663   0.056  0.00  0.00    -0.277 OA
ATOM     19 CL   UNL     1       2.693   0.939  -0.017  0.00  0.00    -0.084 Cl
ATOM     20  H   UNL     1      -2.825   4.526   0.041  0.00  0.00    +0.155 HD
ATOM     21  N   UNL     1      -2.963   0.472   1.189  0.00  0.00    +0.394 N 
ATOM     22  H   UNL     1      -2.191  -0.178   1.379  0.00  0.00    -0.083 HD
ATOM     23  H   UNL     1      -3.127   1.060   2.015  0.00  0.00    -0.083 HD
ENDROOT
BRANCH   1  24
ATOM     24  C   UNL     1      -6.095   1.299  -3.070  0.00  0.00    +0.151 C 
BRANCH  24  30
ATOM     25  C   UNL     1      -5.285   1.098  -5.429  0.00  0.00    +0.009 A 
ATOM     26  C   UNL     1      -5.255   0.458  -6.654  0.00  0.00    +0.050 A 
ATOM     27  C   UNL     1      -6.017  -0.680  -6.861  0.00  0.00    +0.166 A 
ATOM     28  C   UNL     1      -6.811  -1.179  -5.831  0.00  0.00    +0.167 A 
ATOM     29  C   UNL     1      -6.833  -0.535  -4.605  0.00  0.00    +0.054 A 
ATOM     30  C   UNL     1      -6.069   0.600  -4.405  0.00  0.00    -0.026 A 
ATOM     31  O   UNL     1      -7.458  -2.293  -6.280  0.00  0.00    -0.453 OA
ATOM     32  C   UNL     1      -6.742  -2.705  -7.459  0.00  0.00    +0.466 C 
ATOM     33  O   UNL     1      -6.168  -1.482  -7.955  0.00  0.00    -0.453 OA
ENDBRANCH  24  30
ENDBRANCH   1  24
BRANCH   5  34
ATOM     34  C   UNL     1      -4.308  -1.544   1.683  0.00  0.00    -0.006 C 
BRANCH  34  35
ATOM     35  C   UNL     1      -4.541  -1.170   3.148  0.00  0.00    +0.094 C 
BRANCH  35  36
ATOM     36  C   UNL     1      -4.670  -2.424   3.973  0.00  0.00    +0.210 C 
ATOM     37  O   UNL     1      -4.584  -3.511   3.442  0.00  0.00    -0.276 OA
ATOM     38  N   UNL     1      -4.880  -2.338   5.302  0.00  0.00    -0.329 N 
ATOM     39  H   UNL     1      -4.949  -1.469   5.727  0.00  0.00    +0.145 HD
ATOM     40  H   UNL     1      -4.963  -3.146   5.833  0.00  0.00    +0.145 HD
ENDBRANCH  35  36
ENDBRANCH  34  35
ENDBRANCH   5  34
TORSDOF 5
