REMARK  Name = ZINC15067361
REMARK  11 active torsions:
REMARK  status: ('A' for Active; 'I' for Inactive)
REMARK    1  A    between atoms: C_1  and  C_2
REMARK    2  A    between atoms: C_4  and  C_33
REMARK    3  A    between atoms: C_6  and  N_8
REMARK    4  A    between atoms: N_8  and  S_9
REMARK    5  A    between atoms: S_9  and  C_12
REMARK    6  A    between atoms: C_13  and  C_29
REMARK    7  A    between atoms: N_18  and  C_21
REMARK    8  A    between atoms: C_21  and  C_22
REMARK    9  A    between atoms: C_27  and  O_28
REMARK   10  A    between atoms: C_29  and  O_31
REMARK   11  A    between atoms: O_31  and  C_32
REMARK                            x       y       z     vdW  Elec       q    Type
REMARK                         _______ _______ _______ _____ _____    ______ ____
ROOT
ATOM      1  C   UNL     1       2.327   2.317   1.212  0.00  0.00    +0.162 A 
ATOM      2  C   UNL     1       1.849   2.161  -0.072  0.00  0.00    +0.096 A 
ATOM      3  C   UNL     1       2.744   2.478  -1.167  0.00  0.00    -0.019 A 
ATOM      4  C   UNL     1       3.980   2.894  -0.800  0.00  0.00    +0.010 A 
ATOM      5  S   UNL     1       3.952   2.868   0.968  0.00  0.00    -0.071 S 
ATOM      6  C   UNL     1       5.096   3.282  -1.717  0.00  0.00    +0.127 C 
ATOM      7  N   UNL     1       4.765   2.803  -3.073  0.00  0.00    -0.293 NA
ATOM      8  C   UNL     1       3.398   3.192  -3.444  0.00  0.00    +0.090 C 
ATOM      9  C   UNL     1       2.381   2.373  -2.643  0.00  0.00    +0.052 C 
ENDROOT
BRANCH   1  10
ATOM     10  S   UNL     1       1.488   2.025   2.734  0.00  0.00    +0.099 S 
ATOM     11  O   UNL     1       2.039   2.929   3.682  0.00  0.00    -0.148 OA
ATOM     12  O   UNL     1       0.100   1.990   2.432  0.00  0.00    -0.148 OA
BRANCH  10  13
ATOM     13  N   UNL     1       1.902   0.502   3.236  0.00  0.00    -0.097 NA
BRANCH  13  19
ATOM     14  C   UNL     1      -1.650  -1.931   0.867  0.00  0.00    +0.044 C 
ATOM     15  C   UNL     1      -0.223  -1.818   1.338  0.00  0.00    -0.048 A 
ATOM     16  C   UNL     1       0.683  -2.819   1.040  0.00  0.00    +0.006 A 
ATOM     17  C   UNL     1       1.994  -2.719   1.470  0.00  0.00    -0.048 A 
ATOM     18  C   UNL     1       2.401  -1.619   2.198  0.00  0.00    +0.030 A 
ATOM     19  C   UNL     1       1.493  -0.612   2.499  0.00  0.00    +0.075 A 
ATOM     20  C   UNL     1       0.176  -0.718   2.070  0.00  0.00    +0.030 A 
ATOM     21  C   UNL     1       2.979  -3.812   1.142  0.00  0.00    +0.044 C 
ENDBRANCH  13  19
ENDBRANCH  10  13
ENDBRANCH   1  10
BRANCH   2  22
ATOM     22  C   UNL     1       0.477   1.696  -0.322  0.00  0.00    +0.342 C 
ATOM     23  O   UNL     1       0.251   0.507  -0.436  0.00  0.00    -0.245 OA
BRANCH  22  24
ATOM     24  O   UNL     1      -0.528   2.587  -0.431  0.00  0.00    -0.464 OA
ATOM     25  C   UNL     1      -1.855   2.056  -0.684  0.00  0.00    +0.280 C 
ENDBRANCH  22  24
ENDBRANCH   2  22
BRANCH   7  26
ATOM     26  C   UNL     1       5.738   3.295  -4.057  0.00  0.00    +0.123 C 
BRANCH  26  27
ATOM     27  C   UNL     1       7.087   2.683  -3.780  0.00  0.00    +0.008 A 
ATOM     28  C   UNL     1       8.049   3.408  -3.103  0.00  0.00    +0.008 A 
ATOM     29  C   UNL     1       9.286   2.847  -2.847  0.00  0.00    +0.001 A 
ATOM     30  C   UNL     1       9.565   1.560  -3.268  0.00  0.00    +0.004 A 
ATOM     31  C   UNL     1       8.607   0.831  -3.945  0.00  0.00    +0.046 A 
ATOM     32  C   UNL     1       7.362   1.390  -4.198  0.00  0.00    +0.121 A 
BRANCH  32  33
ATOM     33  O   UNL     1       6.416   0.672  -4.859  0.00  0.00    -0.506 OA
ATOM     34  H   UNL     1       6.635  -0.353  -5.191  0.00  0.00    +0.292 HD
ENDBRANCH  32  33
ENDBRANCH  26  27
ENDBRANCH   7  26
TORSDOF 8
