REMARK  Name = ZINC62265962
REMARK  5 active torsions:
REMARK  status: ('A' for Active; 'I' for Inactive)
REMARK    1  A    between atoms: C_1  and  C_2
REMARK    2  A    between atoms: C_2  and  C_26
REMARK    3  A    between atoms: C_10  and  C_12
REMARK    4  A    between atoms: C_19  and  S_21
REMARK    5  A    between atoms: S_21  and  C_22
REMARK                            x       y       z     vdW  Elec       q    Type
REMARK                         _______ _______ _______ _____ _____    ______ ____
ROOT
ATOM      1  C   UNL     1      -0.019   1.526   0.010  0.00  0.00    +0.011 C 
ATOM      2  C   UNL     1       0.002  -0.004   0.002  0.00  0.00    -0.022 C 
ATOM      3  C   UNL     1       0.686  -0.490  -1.279  0.00  0.00    +0.063 C 
ATOM      4  C   UNL     1       2.128  -0.008  -1.258  0.00  0.00    +0.062 A 
ATOM      5  C   UNL     1       2.754   0.210  -0.024  0.00  0.00    +0.079 A 
ATOM      6  S   UNL     1       4.364   0.751  -0.509  0.00  0.00    -0.049 S 
ATOM      7  C   UNL     1       4.136   0.659  -2.177  0.00  0.00    +0.166 A 
ATOM      8  N   UNL     1       2.886   0.238  -2.299  0.00  0.00    -0.229 NA
ATOM      9  N   UNL     1       5.038   0.954  -3.180  0.00  0.00    -0.259 N 
ATOM     10  C   UNL     1       6.279   1.374  -2.867  0.00  0.00    +0.270 C 
ATOM     11  O   UNL     1       6.606   1.494  -1.699  0.00  0.00    -0.268 OA
ATOM     12  C   UNL     1       2.169   0.016   1.222  0.00  0.00    +0.172 C 
ATOM     13  O   UNL     1       2.773   0.252   2.249  0.00  0.00    -0.291 OA
ATOM     14  C   UNL     1       0.743  -0.503   1.243  0.00  0.00    +0.087 C 
ATOM     15  C   UNL     1      -1.436  -0.526   0.032  0.00  0.00    +0.011 C 
ATOM     16  H   UNL     1       4.778   0.858  -4.109  0.00  0.00    +0.157 HD
ENDROOT
BRANCH  10  17
ATOM     17  C   UNL     1       7.205   1.676  -3.895  0.00  0.00    +0.152 A 
ATOM     18  C   UNL     1       8.524   2.115  -3.726  0.00  0.00    +0.079 A 
ATOM     19  C   UNL     1       9.314   2.384  -2.598  0.00  0.00    +0.028 A 
ATOM     20  C   UNL     1      10.597   2.809  -2.771  0.00  0.00    +0.004 A 
ATOM     21  C   UNL     1      11.106   2.971  -4.070  0.00  0.00    +0.018 A 
ATOM     22  C   UNL     1      10.334   2.709  -5.146  0.00  0.00    +0.094 A 
ATOM     23  N   UNL     1       9.045   2.281  -4.988  0.00  0.00    -0.294 N 
ATOM     24  C   UNL     1       8.063   1.950  -5.880  0.00  0.00    +0.174 A 
ATOM     25  N   UNL     1       6.984   1.589  -5.233  0.00  0.00    -0.216 NA
BRANCH  24  26
ATOM     26  S   UNL     1       8.227   1.996  -7.633  0.00  0.00    -0.091 S 
ATOM     27  C   UNL     1       6.606   1.454  -8.241  0.00  0.00    +0.093 C 
ENDBRANCH  24  26
ENDBRANCH  10  17
TORSDOF 2
