REMARK  Name = ZINC64976584
REMARK  5 active torsions:
REMARK  status: ('A' for Active; 'I' for Inactive)
REMARK    1  A    between atoms: C_1  and  C_2
REMARK    2  A    between atoms: C_6  and  N_8
REMARK    3  A    between atoms: N_11  and  S_16
REMARK    4  A    between atoms: C_13  and  C_15
REMARK    5  A    between atoms: S_16  and  C_19
REMARK                            x       y       z     vdW  Elec       q    Type
REMARK                         _______ _______ _______ _____ _____    ______ ____
ROOT
ATOM      1  S   UNL     1       1.131  -5.113   5.857  0.00  0.00    +0.062 S 
ATOM      2  O   UNL     1       1.575  -6.418   5.514  0.00  0.00    -0.153 OA
ATOM      3  O   UNL     1       1.752  -4.340   6.875  0.00  0.00    -0.153 OA
ENDROOT
BRANCH   1   4
ATOM      4  C   UNL     1      -0.568  -5.260   6.302  0.00  0.00    +0.126 A 
ATOM      5  C   UNL     1      -1.172  -6.465   6.218  0.00  0.00    +0.055 A 
ATOM      6  C   UNL     1      -2.584  -6.579   6.590  0.00  0.00    +0.058 A 
ATOM      7  N   UNL     1      -3.449  -7.559   6.626  0.00  0.00    -0.267 N 
ATOM      8  C   UNL     1      -4.654  -7.060   7.069  0.00  0.00    +0.308 C 
ATOM      9  O   UNL     1      -5.667  -7.711   7.216  0.00  0.00    -0.252 OA
ATOM     10  N   UNL     1      -4.537  -5.717   7.319  0.00  0.00    -0.267 N 
ATOM     11  C   UNL     1      -3.305  -5.350   7.050  0.00  0.00    +0.058 A 
ATOM     12  C   UNL     1      -2.599  -4.128   7.110  0.00  0.00    +0.047 A 
ATOM     13  C   UNL     1      -1.293  -4.077   6.760  0.00  0.00    +0.069 A 
ATOM     14 CL   UNL     1      -0.455  -2.559   6.851  0.00  0.00    -0.081 Cl
ATOM     15  H   UNL     1      -3.273  -8.481   6.382  0.00  0.00    +0.156 HD
ATOM     16  H   UNL     1      -5.245  -5.136   7.639  0.00  0.00    +0.156 HD
ENDBRANCH   1   4
BRANCH   1  20
ATOM     17  N   UNL     1       0.126  -2.656   2.494  0.00  0.00    -0.325 N 
ATOM     18  C   UNL     1       0.335  -2.027   3.805  0.00  0.00    +0.122 C 
ATOM     19  C   UNL     1       1.467  -2.767   4.529  0.00  0.00    +0.128 C 
ATOM     20  N   UNL     1       1.197  -4.211   4.470  0.00  0.00    -0.173 NA
ATOM     21  C   UNL     1       0.989  -4.839   3.158  0.00  0.00    +0.131 C 
ATOM     22  C   UNL     1      -0.149  -4.098   2.435  0.00  0.00    +0.086 C 
ATOM     23  C   UNL     1      -0.213  -4.550   0.975  0.00  0.00    +0.029 C 
BRANCH  17  29
ATOM     24  C   UNL     1       2.757  -0.033  -0.724  0.00  0.00    +0.044 C 
ATOM     25  C   UNL     1       1.444  -0.611  -0.260  0.00  0.00    -0.049 A 
ATOM     26  C   UNL     1       0.293  -0.387  -0.994  0.00  0.00    +0.003 A 
ATOM     27  C   UNL     1      -0.913  -0.915  -0.572  0.00  0.00    +0.002 A 
ATOM     28  C   UNL     1      -0.972  -1.668   0.585  0.00  0.00    +0.023 A 
ATOM     29  C   UNL     1       0.182  -1.895   1.324  0.00  0.00    +0.030 A 
ATOM     30  C   UNL     1       1.393  -1.367   0.894  0.00  0.00    +0.026 A 
ENDBRANCH  17  29
ENDBRANCH   1  20
TORSDOF 3
