REMARK  Name = ZINC34792859
REMARK  7 active torsions:
REMARK  status: ('A' for Active; 'I' for Inactive)
REMARK    1  A    between atoms: C_1  and  N_2
REMARK    2  A    between atoms: C_5  and  C_10
REMARK    3  A    between atoms: N_19  and  C_21
REMARK    4  A    between atoms: C_21  and  C_22
REMARK    5  A    between atoms: N_24  and  C_25
REMARK    6  A    between atoms: N_28  and  C_31
REMARK    7  A    between atoms: C_31  and  C_32
REMARK                            x       y       z     vdW  Elec       q    Type
REMARK                         _______ _______ _______ _____ _____    ______ ____
ROOT
ATOM      1  C   UNL     1      -0.492   1.424   0.029  0.00  0.00    +0.139 C 
ATOM      2  N   UNL     1      -0.308  -0.029   0.015  0.00  0.00    -0.260 N 
ATOM      3  C   UNL     1      -1.416  -0.821   0.113  0.00  0.00    +0.042 C 
ATOM      4  C   UNL     1      -1.317  -2.166   0.106  0.00  0.00    +0.058 C 
ATOM      5  C   UNL     1       0.068  -2.769  -0.014  0.00  0.00    +0.143 C 
ATOM      6  N   UNL     1       1.198  -1.830  -0.114  0.00  0.00    -0.288 N 
ATOM      7  C   UNL     1       0.938  -0.508  -0.098  0.00  0.00    +0.307 C 
ATOM      8  O   UNL     1       1.863   0.275  -0.184  0.00  0.00    -0.252 OA
ATOM      9  C   UNL     1      -2.594  -2.753   0.218  0.00  0.00    +0.247 C 
ATOM     10  O   UNL     1      -2.801  -3.952   0.238  0.00  0.00    -0.270 OA
ATOM     11  N   UNL     1      -3.554  -1.814   0.301  0.00  0.00    -0.283 N 
ATOM     12  C   UNL     1      -2.889  -0.504   0.241  0.00  0.00    +0.160 C 
ATOM     13  H   UNL     1       2.108  -2.156  -0.193  0.00  0.00    +0.151 HD
ENDROOT
BRANCH   5  14
ATOM     14  C   UNL     1       0.087  -3.650  -1.237  0.00  0.00    -0.004 A 
ATOM     15  C   UNL     1      -0.886  -3.505  -2.209  0.00  0.00    +0.007 A 
ATOM     16  C   UNL     1      -0.868  -4.312  -3.331  0.00  0.00    +0.000 A 
ATOM     17  C   UNL     1       0.122  -5.265  -3.482  0.00  0.00    +0.001 A 
ATOM     18  C   UNL     1       1.095  -5.411  -2.512  0.00  0.00    +0.020 A 
ATOM     19  C   UNL     1       1.081  -4.599  -1.391  0.00  0.00    +0.046 A 
ATOM     20 CL   UNL     1       2.307  -4.777  -0.175  0.00  0.00    -0.083 Cl
ENDBRANCH   5  14
BRANCH  11  21
ATOM     21  C   UNL     1      -4.994  -2.053   0.426  0.00  0.00    +0.204 C 
BRANCH  21  22
ATOM     22  C   UNL     1      -5.365  -2.133   1.885  0.00  0.00    +0.231 C 
ATOM     23  O   UNL     1      -4.510  -2.003   2.736  0.00  0.00    -0.274 OA
ATOM     24  N   UNL     1      -6.646  -2.349   2.244  0.00  0.00    -0.311 N 
ATOM     25  H   UNL     1      -7.329  -2.452   1.564  0.00  0.00    +0.149 HD
BRANCH  24  26
ATOM     26  C   UNL     1      -7.006  -2.426   3.662  0.00  0.00    +0.069 C 
ATOM     27  C   UNL     1      -6.787  -3.855   4.168  0.00  0.00    +0.003 C 
ATOM     28  C   UNL     1      -7.240  -3.948   5.627  0.00  0.00    -0.077 C 
ATOM     29  N   UNL     1      -8.664  -3.606   5.724  0.00  0.00    +0.382 N 
ATOM     30  C   UNL     1      -8.871  -2.213   5.308  0.00  0.00    -0.077 C 
ATOM     31  C   UNL     1      -8.481  -2.053   3.837  0.00  0.00    +0.003 C 
ATOM     32  H   UNL     1      -9.198  -4.217   5.125  0.00  0.00    -0.081 HD
BRANCH  29  33
ATOM     33  C   UNL     1      -9.113  -3.772   7.113  0.00  0.00    -0.043 C 
BRANCH  33  34
ATOM     34  C   UNL     1     -10.599  -3.539   7.192  0.00  0.00    -0.064 A 
ATOM     35  C   UNL     1     -11.089  -2.268   7.424  0.00  0.00    +0.002 A 
ATOM     36  C   UNL     1     -12.453  -2.055   7.496  0.00  0.00    +0.000 A 
ATOM     37  C   UNL     1     -13.327  -3.114   7.336  0.00  0.00    +0.000 A 
ATOM     38  C   UNL     1     -12.838  -4.385   7.103  0.00  0.00    +0.000 A 
ATOM     39  C   UNL     1     -11.474  -4.597   7.027  0.00  0.00    +0.002 A 
ENDBRANCH  33  34
ENDBRANCH  29  33
ENDBRANCH  24  26
ENDBRANCH  21  22
ENDBRANCH  11  21
TORSDOF 6
