REMARK  Name = ZINC13400296
REMARK  12 active torsions:
REMARK  status: ('A' for Active; 'I' for Inactive)
REMARK    1  A    between atoms: C_1  and  O_2
REMARK    2  A    between atoms: O_2  and  C_3
REMARK    3  A    between atoms: C_5  and  C_13
REMARK    4  A    between atoms: C_7  and  O_11
REMARK    5  A    between atoms: C_8  and  O_9
REMARK    6  A    between atoms: O_9  and  C_10
REMARK    7  A    between atoms: O_11  and  C_12
REMARK    8  A    between atoms: C_13  and  C_14
REMARK    9  A    between atoms: C_14  and  C_15
REMARK   10  A    between atoms: N_20  and  S_23
REMARK   11  A    between atoms: S_23  and  C_26
REMARK   12  A    between atoms: C_28  and  C_31
REMARK                            x       y       z     vdW  Elec       q    Type
REMARK                         _______ _______ _______ _____ _____    ______ ____
ROOT
ATOM      1  C   UNL     1      -1.161   0.717  -2.122  0.00  0.00    +0.216 C 
ATOM      2  O   UNL     1      -0.959  -0.473  -1.998  0.00  0.00    -0.276 OA
ATOM      3  N   UNL     1      -0.730   1.576  -1.177  0.00  0.00    -0.299 N 
ATOM      4  C   UNL     1      -0.013   1.086   0.008  0.00  0.00    +0.125 C 
ATOM      5  C   UNL     1      -0.738   1.584   1.265  0.00  0.00    +0.128 C 
ATOM      6  N   UNL     1      -0.979   3.028   1.125  0.00  0.00    -0.173 NA
ATOM      7  C   UNL     1      -1.697   3.518  -0.060  0.00  0.00    +0.128 C 
ATOM      8  C   UNL     1      -0.968   3.020  -1.315  0.00  0.00    +0.125 C 
ENDROOT
BRANCH   6   9
ATOM      9  S   UNL     1      -0.449   4.083   2.285  0.00  0.00    +0.067 S 
ATOM     10  O   UNL     1       0.630   3.444   2.953  0.00  0.00    -0.152 OA
ATOM     11  O   UNL     1      -0.310   5.347   1.651  0.00  0.00    -0.152 OA
BRANCH   9  12
ATOM     12  C   UNL     1      -1.744   4.252   3.468  0.00  0.00    +0.143 A 
ATOM     13  C   UNL     1      -1.964   3.522   4.579  0.00  0.00    +0.051 A 
ATOM     14  C   UNL     1      -3.108   3.878   5.381  0.00  0.00    +0.072 A 
ATOM     15  C   UNL     1      -3.884   4.930   4.936  0.00  0.00    +0.062 A 
ATOM     16  S   UNL     1      -3.085   5.424   3.481  0.00  0.00    -0.076 S 
BRANCH  14  17
ATOM     17  C   UNL     1      -3.437   3.150   6.615  0.00  0.00    +0.387 C 
ATOM     18  O   UNL     1      -2.735   2.228   6.982  0.00  0.00    -0.241 OA
ATOM     19  O   UNL     1      -4.517   3.505   7.340  0.00  0.00    -0.241 OA
ENDBRANCH  14  17
ENDBRANCH   9  12
ENDBRANCH   6   9
BRANCH   1  20
ATOM     20  C   UNL     1      -1.896   1.234  -3.332  0.00  0.00    +0.100 C 
BRANCH  20  21
ATOM     21  C   UNL     1      -2.272   0.061  -4.240  0.00  0.00    +0.044 C 
BRANCH  21  24
ATOM     22  C   UNL     1      -2.973   1.408  -7.701  0.00  0.00    +0.165 A 
ATOM     23  C   UNL     1      -2.301   0.932  -6.586  0.00  0.00    +0.053 A 
ATOM     24  C   UNL     1      -3.006   0.579  -5.450  0.00  0.00    -0.040 A 
ATOM     25  C   UNL     1      -4.383   0.693  -5.424  0.00  0.00    +0.053 A 
ATOM     26  C   UNL     1      -5.062   1.174  -6.534  0.00  0.00    +0.165 A 
ATOM     27  C   UNL     1      -4.357   1.530  -7.677  0.00  0.00    +0.204 A 
BRANCH  22  29
ATOM     28  C   UNL     1      -0.858   1.602  -8.772  0.00  0.00    +0.277 C 
ATOM     29  O   UNL     1      -2.278   1.754  -8.818  0.00  0.00    -0.491 OA
ENDBRANCH  22  29
BRANCH  27  30
ATOM     30  O   UNL     1      -5.020   1.997  -8.770  0.00  0.00    -0.488 OA
ATOM     31  C   UNL     1      -5.448   1.030  -9.731  0.00  0.00    +0.277 C 
ENDBRANCH  27  30
BRANCH  26  32
ATOM     32  O   UNL     1      -6.417   1.292  -6.505  0.00  0.00    -0.491 OA
ATOM     33  C   UNL     1      -7.076   0.907  -5.296  0.00  0.00    +0.277 C 
ENDBRANCH  26  32
ENDBRANCH  21  24
ENDBRANCH  20  21
ENDBRANCH   1  20
TORSDOF 9
