REMARK  Name = ZINC40052918
REMARK  7 active torsions:
REMARK  status: ('A' for Active; 'I' for Inactive)
REMARK    1  A    between atoms: C_6  and  C_7
REMARK    2  A    between atoms: C_9  and  C_19
REMARK    3  A    between atoms: N_13  and  C_14
REMARK    4  A    between atoms: C_14  and  C_15
REMARK    5  A    between atoms: C_15  and  C_16
REMARK    6  A    between atoms: C_16  and  O_17
REMARK    7  A    between atoms: C_19  and  C_21
REMARK                            x       y       z     vdW  Elec       q    Type
REMARK                         _______ _______ _______ _____ _____    ______ ____
ROOT
ATOM      1  C   UNL     1      -1.258  -0.756   0.015  0.00  0.00    +0.145 C 
ATOM      2  C   UNL     1      -1.504  -1.400   1.359  0.00  0.00    +0.076 C 
ATOM      3  C   UNL     1      -1.575  -2.735   1.146  0.00  0.00    +0.249 C 
ATOM      4  C   UNL     1      -1.384  -3.007  -0.294  0.00  0.00    +0.288 C 
ATOM      5  O   UNL     1      -1.394  -4.111  -0.802  0.00  0.00    -0.266 OA
ATOM      6  N   UNL     1      -1.199  -1.852  -0.960  0.00  0.00    -0.283 N 
ATOM      7  O   UNL     1      -1.786  -3.671   2.100  0.00  0.00    -0.282 OA
ENDROOT
BRANCH   1  13
ATOM      8  C   UNL     1       0.054   1.375  -0.036  0.00  0.00    +0.008 A 
ATOM      9  C   UNL     1       1.252   2.063  -0.021  0.00  0.00    +0.038 A 
ATOM     10  C   UNL     1       2.447   1.370   0.061  0.00  0.00    +0.123 A 
ATOM     11  C   UNL     1       2.441  -0.013   0.128  0.00  0.00    +0.038 A 
ATOM     12  C   UNL     1       1.242  -0.700   0.113  0.00  0.00    +0.008 A 
ATOM     13  C   UNL     1       0.049  -0.006   0.031  0.00  0.00    -0.022 A 
ATOM     14  F   UNL     1       3.619   2.042   0.075  0.00  0.00    -0.205 F 
ENDBRANCH   1  13
BRANCH   2  15
ATOM     15  C   UNL     1      -1.640  -0.712   2.647  0.00  0.00    +0.195 C 
ATOM     16  O   UNL     1      -0.804  -0.877   3.516  0.00  0.00    -0.287 OA
BRANCH  15  17
ATOM     17  C   UNL     1      -2.791   0.181   2.889  0.00  0.00    +0.026 A 
ATOM     18  C   UNL     1      -3.814   0.278   1.941  0.00  0.00    +0.015 A 
ATOM     19  C   UNL     1      -4.885   1.112   2.170  0.00  0.00    +0.050 A 
ATOM     20  C   UNL     1      -4.955   1.860   3.340  0.00  0.00    +0.162 A 
ATOM     21  C   UNL     1      -3.939   1.766   4.289  0.00  0.00    +0.163 A 
ATOM     22  C   UNL     1      -2.862   0.927   4.068  0.00  0.00    +0.061 A 
ATOM     23  O   UNL     1      -3.996   2.486   5.443  0.00  0.00    -0.485 OA
ATOM     24  C   UNL     1      -4.905   3.592   5.467  0.00  0.00    +0.270 C 
ATOM     25  C   UNL     1      -6.245   3.124   4.884  0.00  0.00    +0.270 C 
ATOM     26  O   UNL     1      -6.020   2.680   3.542  0.00  0.00    -0.485 OA
ENDBRANCH  15  17
ENDBRANCH   2  15
BRANCH   6  27
ATOM     27  C   UNL     1      -0.978  -1.712  -2.402  0.00  0.00    +0.111 C 
BRANCH  27  28
ATOM     28  C   UNL     1       0.523  -1.772  -2.695  0.00  0.00    +0.047 C 
BRANCH  28  29
ATOM     29  C   UNL     1       0.754  -1.626  -4.201  0.00  0.00    +0.157 C 
BRANCH  29  30
ATOM     30  O   UNL     1       2.155  -1.682  -4.475  0.00  0.00    -0.395 OA
ATOM     31  H   UNL     1       2.377  -1.596  -5.412  0.00  0.00    +0.209 HD
ENDBRANCH  29  30
ENDBRANCH  28  29
ENDBRANCH  27  28
ENDBRANCH   6  27
TORSDOF 7
