REMARK  Name = ZINC00662430
REMARK  4 active torsions:
REMARK  status: ('A' for Active; 'I' for Inactive)
REMARK    1  A    between atoms: C_4  and  C_7
REMARK    2  A    between atoms: C_7  and  C_9
REMARK    3  A    between atoms: C_18  and  C_21
REMARK    4  A    between atoms: C_24  and  O_27
REMARK                            x       y       z     vdW  Elec       q    Type
REMARK                         _______ _______ _______ _____ _____    ______ ____
ROOT
ATOM      1  C   UNL     1       1.446   5.162   3.284  0.00  0.00    +0.024 A 
ATOM      2  C   UNL     1       0.378   5.172   4.188  0.00  0.00    +0.013 A 
ATOM      3  C   UNL     1      -0.687   4.315   4.014  0.00  0.00    +0.025 A 
ATOM      4  C   UNL     1      -0.696   3.441   2.933  0.00  0.00    +0.049 A 
ATOM      5  C   UNL     1       0.381   3.401   2.054  0.00  0.00    +0.053 A 
ATOM      6  C   UNL     1       1.444   4.265   2.208  0.00  0.00    +0.036 A 
ATOM      7  N   UNL     1       0.336   2.454   1.036  0.00  0.00    -0.316 N 
ATOM      8  C   UNL     1      -0.566   2.448   0.022  0.00  0.00    +0.017 C 
ATOM      9  C   UNL     1      -1.888   2.619   0.177  0.00  0.00    +0.036 C 
ATOM     10  C   UNL     1      -2.603   2.860   1.485  0.00  0.00    +0.136 C 
ATOM     11  N   UNL     1      -1.798   2.643   2.661  0.00  0.00    -0.331 N 
ATOM     12  C   UNL     1      -2.745   2.593  -0.948  0.00  0.00    +0.163 C 
ATOM     13  O   UNL     1      -3.942   2.723  -0.777  0.00  0.00    -0.292 OA
ATOM     14  C   UNL     1      -2.230   2.410  -2.344  0.00  0.00    +0.080 C 
ATOM     15  C   UNL     1      -0.797   2.952  -2.410  0.00  0.00    +0.014 C 
ATOM     16  C   UNL     1       0.027   2.213  -1.357  0.00  0.00    +0.051 C 
ATOM     17  H   UNL     1       0.999   1.746   1.052  0.00  0.00    +0.152 HD
ATOM     18  H   UNL     1      -2.030   1.927   3.272  0.00  0.00    +0.147 HD
ENDROOT
BRANCH  10  19
ATOM     19  C   UNL     1      -3.096   4.284   1.504  0.00  0.00    -0.023 A 
ATOM     20  C   UNL     1      -2.192   5.329   1.467  0.00  0.00    +0.009 A 
ATOM     21  C   UNL     1      -2.642   6.635   1.478  0.00  0.00    +0.046 A 
ATOM     22  C   UNL     1      -4.003   6.897   1.538  0.00  0.00    +0.117 A 
ATOM     23  C   UNL     1      -4.908   5.847   1.580  0.00  0.00    +0.046 A 
ATOM     24  C   UNL     1      -4.453   4.543   1.563  0.00  0.00    +0.009 A 
BRANCH  22  25
ATOM     25  O   UNL     1      -4.448   8.181   1.555  0.00  0.00    -0.507 OA
ATOM     26  H   UNL     1      -4.537   8.554   2.443  0.00  0.00    +0.292 HD
ENDBRANCH  22  25
ENDBRANCH  10  19
BRANCH   1  27
ATOM     27  C   UNL     1       2.572   6.096   3.463  0.00  0.00    +0.193 C 
ATOM     28  O   UNL     1       2.369   7.222   3.873  0.00  0.00    -0.287 OA
BRANCH  27  32
ATOM     29  C   UNL     1       6.529   4.851   2.549  0.00  0.00    +0.000 A 
ATOM     30  C   UNL     1       6.279   6.175   2.865  0.00  0.00    +0.001 A 
ATOM     31  C   UNL     1       4.997   6.586   3.163  0.00  0.00    +0.012 A 
ATOM     32  C   UNL     1       3.949   5.663   3.145  0.00  0.00    +0.022 A 
ATOM     33  C   UNL     1       4.209   4.327   2.830  0.00  0.00    +0.012 A 
ATOM     34  C   UNL     1       5.495   3.931   2.529  0.00  0.00    +0.001 A 
ENDBRANCH  27  32
ENDBRANCH   1  27
TORSDOF 4
