REMARK  Name = ZINC35400899
REMARK  6 active torsions:
REMARK  status: ('A' for Active; 'I' for Inactive)
REMARK    1  A    between atoms: C_1  and  C_2
REMARK    2  A    between atoms: C_5  and  C_29
REMARK    3  A    between atoms: C_6  and  N_8
REMARK    4  A    between atoms: C_9  and  C_11
REMARK    5  A    between atoms: C_11  and  N_12
REMARK    6  A    between atoms: C_20  and  C_24
REMARK                            x       y       z     vdW  Elec       q    Type
REMARK                         _______ _______ _______ _____ _____    ______ ____
ROOT
ATOM      1  N   UNL     1       0.370  -1.959   5.972  0.00  0.00    -0.257 N 
ATOM      2  C   UNL     1      -0.840  -1.670   6.624  0.00  0.00    +0.058 A 
ATOM      3  C   UNL     1      -1.902  -2.354   6.057  0.00  0.00    +0.025 A 
ATOM      4  C   UNL     1      -3.178  -2.194   6.569  0.00  0.00    +0.002 A 
ATOM      5  C   UNL     1      -3.396  -1.352   7.643  0.00  0.00    +0.002 A 
ATOM      6  C   UNL     1      -2.339  -0.665   8.214  0.00  0.00    +0.025 A 
ATOM      7  C   UNL     1      -1.060  -0.821   7.708  0.00  0.00    +0.053 A 
ATOM      8  N   UNL     1      -0.124  -0.048   8.413  0.00  0.00    -0.312 N 
ATOM      9  C   UNL     1       1.238   0.051   8.195  0.00  0.00    +0.050 C 
ATOM     10  C   UNL     1       2.003  -0.581   7.237  0.00  0.00    +0.092 C 
ATOM     11  C   UNL     1       1.603  -1.489   6.244  0.00  0.00    +0.246 C 
ATOM     12  O   UNL     1       2.494  -1.905   5.524  0.00  0.00    -0.270 OA
ATOM     13  H   UNL     1      -0.477   0.483   9.144  0.00  0.00    +0.152 HD
ENDROOT
BRANCH   9  14
ATOM     14  C   UNL     1       1.963   0.946   9.100  0.00  0.00    +0.033 A 
ATOM     15  C   UNL     1       3.316   1.254   9.127  0.00  0.00    +0.017 A 
ATOM     16  C   UNL     1       3.706   2.138  10.105  0.00  0.00    +0.008 A 
ATOM     17  C   UNL     1       2.774   2.638  10.953  0.00  0.00    +0.046 A 
ATOM     18  S   UNL     1       1.336   1.931  10.447  0.00  0.00    -0.095 S 
ENDBRANCH   9  14
BRANCH   1  19
ATOM     19  C   UNL     1       0.280  -2.900   4.854  0.00  0.00    +0.210 C 
BRANCH  19  21
ATOM     20  N   UNL     1      -0.307  -2.833   2.451  0.00  0.00    -0.284 N 
ATOM     21  C   UNL     1      -0.156  -2.165   3.612  0.00  0.00    +0.235 C 
ATOM     22  O   UNL     1      -0.370  -0.972   3.658  0.00  0.00    -0.274 OA
ATOM     23  H   UNL     1      -0.213  -3.799   2.432  0.00  0.00    +0.155 HD
BRANCH  20  29
ATOM     24  C   UNL     1      -0.163   1.345  -0.136  0.00  0.00    +0.044 C 
ATOM     25  C   UNL     1      -0.541  -0.108  -0.006  0.00  0.00    -0.049 A 
ATOM     26  C   UNL     1      -1.179  -0.753  -1.051  0.00  0.00    +0.004 A 
ATOM     27  C   UNL     1      -1.527  -2.086  -0.936  0.00  0.00    +0.005 A 
ATOM     28  C   UNL     1      -1.239  -2.778   0.224  0.00  0.00    -0.029 A 
ATOM     29  C   UNL     1      -0.599  -2.135   1.275  0.00  0.00    +0.037 A 
ATOM     30  C   UNL     1      -0.246  -0.797   1.154  0.00  0.00    +0.027 A 
ATOM     31  C   UNL     1      -1.619  -4.231   0.349  0.00  0.00    +0.045 C 
ENDBRANCH  20  29
ENDBRANCH  19  21
ENDBRANCH   1  19
TORSDOF 4
