REMARK  Name = ZINC01010331
REMARK  12 active torsions:
REMARK  status: ('A' for Active; 'I' for Inactive)
REMARK    1  A    between atoms: C_1  and  C_2
REMARK    2  A    between atoms: C_2  and  C_30
REMARK    3  A    between atoms: C_6  and  C_17
REMARK    4  A    between atoms: C_8  and  C_15
REMARK    5  A    between atoms: C_9  and  N_14
REMARK    6  A    between atoms: N_10  and  N_11
REMARK    7  A    between atoms: N_11  and  C_12
REMARK    8  A    between atoms: N_11  and  C_13
REMARK    9  A    between atoms: C_21  and  O_25
REMARK   10  A    between atoms: C_22  and  O_23
REMARK   11  A    between atoms: O_23  and  C_24
REMARK   12  A    between atoms: O_25  and  C_26
REMARK                            x       y       z     vdW  Elec       q    Type
REMARK                         _______ _______ _______ _____ _____    ______ ____
ROOT
ATOM      1  C   UNL     1       2.053   3.576   2.705  0.00  0.00    +0.011 C 
ATOM      2  C   UNL     1       1.531   2.609   3.769  0.00  0.00    -0.023 C 
ATOM      3  C   UNL     1       0.649   1.546   3.110  0.00  0.00    +0.059 C 
ATOM      4  C   UNL     1       1.466   0.756   2.116  0.00  0.00    +0.037 C 
ATOM      5  C   UNL     1       2.787   0.553   2.308  0.00  0.00    +0.026 C 
ATOM      6  C   UNL     1       3.599  -0.247   1.321  0.00  0.00    +0.101 C 
ATOM      7  C   UNL     1       2.889  -0.362   0.003  0.00  0.00    +0.078 C 
ATOM      8  C   UNL     1       1.557  -0.116  -0.100  0.00  0.00    +0.117 C 
ATOM      9  N   UNL     1       0.835   0.252   1.011  0.00  0.00    -0.223 N 
ATOM     10  C   UNL     1       3.446   1.084   3.430  0.00  0.00    +0.162 C 
ATOM     11  O   UNL     1       4.634   0.873   3.578  0.00  0.00    -0.292 OA
ATOM     12  C   UNL     1       2.710   1.907   4.451  0.00  0.00    +0.086 C 
ATOM     13  C   UNL     1       0.719   3.381   4.812  0.00  0.00    +0.011 C 
ENDROOT
BRANCH   6  14
ATOM     14  C   UNL     1       3.831  -1.629   1.877  0.00  0.00    +0.011 A 
ATOM     15  C   UNL     1       2.756  -2.406   2.269  0.00  0.00    +0.008 A 
ATOM     16  C   UNL     1       2.966  -3.673   2.779  0.00  0.00    +0.004 A 
ATOM     17  C   UNL     1       4.251  -4.169   2.901  0.00  0.00    +0.049 A 
ATOM     18  C   UNL     1       5.332  -3.396   2.510  0.00  0.00    +0.162 A 
ATOM     19  C   UNL     1       5.120  -2.122   1.990  0.00  0.00    +0.166 A 
BRANCH  19  20
ATOM     20  O   UNL     1       6.178  -1.361   1.600  0.00  0.00    -0.491 OA
ATOM     21  C   UNL     1       6.941  -0.732   2.632  0.00  0.00    +0.277 C 
ENDBRANCH  19  20
BRANCH  18  22
ATOM     22  O   UNL     1       6.596  -3.882   2.629  0.00  0.00    -0.491 OA
ATOM     23  C   UNL     1       6.737  -5.199   3.165  0.00  0.00    +0.277 C 
ENDBRANCH  18  22
ENDBRANCH   6  14
BRANCH   9  24
ATOM     24  N   UNL     1      -0.523   0.111   1.012  0.00  0.00    -0.227 NA
ATOM     25  C   UNL     1      -1.154   1.085   0.111  0.00  0.00    +0.128 C 
ATOM     26  C   UNL     1      -0.911  -1.261   0.659  0.00  0.00    +0.128 C 
ENDBRANCH   9  24
BRANCH   8  27
ATOM     27  N   UNL     1       0.930  -0.234  -1.316  0.00  0.00    -0.344 N 
ATOM     28  H   UNL     1       1.423  -0.064  -2.134  0.00  0.00    +0.144 HD
ATOM     29  H   UNL     1      -0.006  -0.486  -1.357  0.00  0.00    +0.144 HD
ENDBRANCH   8  27
BRANCH   7  30
ATOM     30  C   UNL     1       3.628  -0.735  -1.165  0.00  0.00    +0.099 C 
ATOM     31  N   UNL     1       4.215  -1.032  -2.091  0.00  0.00    -0.191 NA
ENDBRANCH   7  30
TORSDOF 6
