REMARK  Name = ZINC38664625
REMARK  14 active torsions:
REMARK  status: ('A' for Active; 'I' for Inactive)
REMARK    1  A    between atoms: C_1  and  C_2
REMARK    2  A    between atoms: C_2  and  N_3
REMARK    3  A    between atoms: N_3  and  C_4
REMARK    4  A    between atoms: N_3  and  C_6
REMARK    5  A    between atoms: C_4  and  C_5
REMARK    6  A    between atoms: C_6  and  C_7
REMARK    7  A    between atoms: C_7  and  O_9
REMARK    8  A    between atoms: O_9  and  C_10
REMARK    9  A    between atoms: C_10  and  C_11
REMARK   10  A    between atoms: C_11  and  C_13
REMARK   11  A    between atoms: C_13  and  O_38
REMARK   12  A    between atoms: C_18  and  C_37
REMARK   13  A    between atoms: C_20  and  O_36
REMARK   14  A    between atoms: C_34  and  C_35
REMARK                            x       y       z     vdW  Elec       q    Type
REMARK                         _______ _______ _______ _____ _____    ______ ____
ROOT
ATOM      1  C   UNL     1      -3.838  -6.886  -2.885  0.00  0.00    +0.133 C 
ATOM      2  C   UNL     1      -4.547  -7.228  -1.558  0.00  0.00    +0.043 C 
ATOM      3  C   UNL     1      -4.679  -8.766  -1.517  0.00  0.00    +0.008 C 
ATOM      4  C   UNL     1      -3.533  -9.264  -2.448  0.00  0.00    +0.002 C 
ATOM      5  C   UNL     1      -3.586  -8.228  -3.584  0.00  0.00    +0.009 C 
ATOM      6  C   UNL     1      -2.332  -8.218  -4.428  0.00  0.00    +0.041 C 
ATOM      7  C   UNL     1      -1.090  -8.031  -3.558  0.00  0.00    +0.119 C 
ATOM      8  C   UNL     1      -1.014  -9.190  -2.556  0.00  0.00    +0.031 C 
ATOM      9  C   UNL     1      -2.237  -9.152  -1.639  0.00  0.00    -0.001 C 
ATOM     10  C   UNL     1      -2.188 -10.318  -0.644  0.00  0.00    +0.008 C 
ATOM     11  C   UNL     1      -0.977 -10.151   0.275  0.00  0.00    +0.032 C 
ATOM     12  C   UNL     1       0.269 -10.030  -0.584  0.00  0.00    -0.060 C 
ATOM     13  C   UNL     1       1.312 -10.801  -0.277  0.00  0.00    +0.046 C 
ATOM     14  C   UNL     1       2.547 -10.712  -1.065  0.00  0.00    +0.156 C 
ATOM     15  O   UNL     1       3.357 -11.614  -1.087  0.00  0.00    -0.293 OA
ATOM     16  C   UNL     1       2.756  -9.431  -1.850  0.00  0.00    +0.080 C 
ATOM     17  C   UNL     1       1.472  -9.159  -2.632  0.00  0.00    +0.019 C 
ATOM     18  C   UNL     1       0.268  -9.022  -1.729  0.00  0.00    -0.005 C 
ATOM     19  C   UNL     1       0.268  -7.608  -1.144  0.00  0.00    +0.016 C 
ATOM     20  C   UNL     1      -4.775  -8.547  -4.492  0.00  0.00    +0.015 C 
ENDROOT
BRANCH   1  21
ATOM     21  C   UNL     1      -2.531  -6.188  -2.611  0.00  0.00    +0.202 C 
ATOM     22  O   UNL     1      -1.984  -6.329  -1.544  0.00  0.00    -0.291 OA
BRANCH  21  23
ATOM     23  C   UNL     1      -1.907  -5.315  -3.668  0.00  0.00    +0.309 C 
BRANCH  23  24
ATOM     24  O   UNL     1      -0.682  -4.770  -3.174  0.00  0.00    -0.458 OA
BRANCH  24  25
ATOM     25  C   UNL     1       0.003  -3.963  -4.000  0.00  0.00    +0.291 C 
ATOM     26  O   UNL     1      -0.422  -3.728  -5.106  0.00  0.00    -0.253 OA
BRANCH  25  27
ATOM     27  C   UNL     1       1.304  -3.351  -3.547  0.00  0.00    +0.044 C 
BRANCH  27  28
ATOM     28  N   UNL     1       1.853  -2.516  -4.624  0.00  0.00    +0.386 N 
ATOM     29  H   UNL     1       1.938  -3.066  -5.466  0.00  0.00    -0.081 HD
BRANCH  28  31
ATOM     30  C   UNL     1       1.452  -0.589  -6.081  0.00  0.00    -0.017 C 
ATOM     31  C   UNL     1       0.954  -1.381  -4.870  0.00  0.00    -0.082 C 
ENDBRANCH  28  31
BRANCH  28  32
ATOM     32  C   UNL     1       3.177  -2.016  -4.229  0.00  0.00    -0.082 C 
ATOM     33  C   UNL     1       4.149  -3.191  -4.105  0.00  0.00    -0.017 C 
ENDBRANCH  28  32
ENDBRANCH  27  28
ENDBRANCH  25  27
ENDBRANCH  24  25
ENDBRANCH  23  24
ENDBRANCH  21  23
ENDBRANCH   1  21
BRANCH   7  34
ATOM     34  O   UNL     1       0.077  -8.029  -4.383  0.00  0.00    -0.391 OA
ATOM     35  H   UNL     1       0.087  -7.327  -5.048  0.00  0.00    +0.210 HD
ENDBRANCH   7  34
BRANCH   1  36
ATOM     36  O   UNL     1      -4.677  -6.059  -3.694  0.00  0.00    -0.380 OA
ATOM     37  H   UNL     1      -4.886  -5.202  -3.297  0.00  0.00    +0.211 HD
ENDBRANCH   1  36
TORSDOF 10
