REMARK  Name = ZINC14035816
REMARK  6 active torsions:
REMARK  status: ('A' for Active; 'I' for Inactive)
REMARK    1  A    between atoms: C_1  and  C_2
REMARK    2  A    between atoms: C_2  and  C_3
REMARK    3  A    between atoms: C_4  and  C_27
REMARK    4  A    between atoms: C_10  and  C_14
REMARK    5  A    between atoms: C_14  and  C_15
REMARK    6  A    between atoms: N_17  and  C_18
REMARK                            x       y       z     vdW  Elec       q    Type
REMARK                         _______ _______ _______ _____ _____    ______ ____
ROOT
ATOM      1  C   UNL     1       2.640   0.424   1.225  0.00  0.00    +0.122 C 
ENDROOT
BRANCH   1   9
ATOM      2  C   UNL     1      -1.173   2.131   0.145  0.00  0.00    +0.038 A 
ATOM      3  C   UNL     1      -1.106   3.494   0.182  0.00  0.00    +0.049 A 
ATOM      4  N   UNL     1       0.087   4.081   0.156  0.00  0.00    -0.228 NA
ATOM      5  C   UNL     1       1.202   3.381   0.102  0.00  0.00    +0.172 A 
ATOM      6  N   UNL     1       1.222   2.021   0.069  0.00  0.00    -0.283 N 
ATOM      7  C   UNL     1       0.008   1.385   0.094  0.00  0.00    +0.258 A 
ATOM      8  O   UNL     1      -0.042   0.166   0.066  0.00  0.00    -0.267 OA
ATOM      9  C   UNL     1       2.518   1.346   0.010  0.00  0.00    +0.112 C 
ATOM     10  C   UNL     1       3.727   2.292  -0.007  0.00  0.00    +0.103 C 
ATOM     11  S   UNL     1       2.896   3.923   0.059  0.00  0.00    -0.086 S 
ATOM     12  C   UNL     1      -2.364   4.321   0.244  0.00  0.00    +0.066 C 
BRANCH   2  14
ATOM     13  C   UNL     1      -2.945   1.123  -1.267  0.00  0.00    +0.009 C 
ATOM     14  C   UNL     1      -2.510   1.436   0.166  0.00  0.00    +0.039 C 
ENDBRANCH   2  14
ENDBRANCH   1   9
BRANCH   1  15
ATOM     15  C   UNL     1       3.898  -0.398   1.107  0.00  0.00    +0.219 C 
ATOM     16  O   UNL     1       4.660  -0.211   0.182  0.00  0.00    -0.275 OA
ATOM     17  N   UNL     1       4.177  -1.340   2.030  0.00  0.00    -0.285 N 
ATOM     18  H   UNL     1       3.534  -1.540   2.728  0.00  0.00    +0.155 HD
BRANCH  17  19
ATOM     19  C   UNL     1       5.395  -2.030   1.981  0.00  0.00    +0.037 A 
ATOM     20  C   UNL     1       6.031  -2.400   3.158  0.00  0.00    +0.027 A 
ATOM     21  C   UNL     1       7.232  -3.081   3.111  0.00  0.00    +0.051 A 
ATOM     22  C   UNL     1       7.806  -3.396   1.890  0.00  0.00    +0.166 A 
ATOM     23  C   UNL     1       7.170  -3.026   0.707  0.00  0.00    +0.168 A 
ATOM     24  C   UNL     1       5.963  -2.348   0.755  0.00  0.00    +0.072 A 
ATOM     25  O   UNL     1       7.929  -3.447  -0.346  0.00  0.00    -0.453 OA
ATOM     26  C   UNL     1       9.233  -3.716   0.202  0.00  0.00    +0.466 C 
ATOM     27  O   UNL     1       8.964  -4.049   1.576  0.00  0.00    -0.453 OA
ENDBRANCH  17  19
ENDBRANCH   1  15
TORSDOF 4
