REMARK  Name = ZINC19655370
REMARK  6 active torsions:
REMARK  status: ('A' for Active; 'I' for Inactive)
REMARK    1  A    between atoms: C_1  and  C_2
REMARK    2  A    between atoms: C_9  and  C_12
REMARK    3  A    between atoms: N_10  and  C_11
REMARK    4  A    between atoms: C_23  and  C_25
REMARK    5  A    between atoms: C_28  and  O_31
REMARK    6  A    between atoms: O_31  and  C_32
REMARK                            x       y       z     vdW  Elec       q    Type
REMARK                         _______ _______ _______ _____ _____    ______ ____
ROOT
ATOM      1  C   UNL     1      -1.414   3.447   7.001  0.00  0.00    +0.264 C 
ATOM      2  O   UNL     1      -0.359   3.446   7.605  0.00  0.00    -0.268 OA
ATOM      3  N   UNL     1      -2.553   3.793   7.633  0.00  0.00    -0.283 N 
ATOM      4  C   UNL     1      -3.856   3.668   6.962  0.00  0.00    +0.115 C 
ATOM      5  C   UNL     1      -4.472   5.056   6.788  0.00  0.00    +0.074 C 
ATOM      6  C   UNL     1      -4.316   5.822   8.076  0.00  0.00    +0.042 A 
ATOM      7  C   UNL     1      -3.454   5.501   9.064  0.00  0.00    +0.087 A 
ATOM      8  N   UNL     1      -3.588   6.401  10.041  0.00  0.00    -0.238 NA
ATOM      9  C   UNL     1      -4.505   7.269   9.700  0.00  0.00    +0.197 A 
ATOM     10  N   UNL     1      -4.983   6.939   8.478  0.00  0.00    -0.348 N 
ATOM     11  H   UNL     1      -5.748   7.387   7.827  0.00  0.00    +0.166 HD
ATOM     12  C   UNL     1      -2.523   4.313   9.012  0.00  0.00    +0.157 C 
ENDROOT
BRANCH   1  21
ATOM     13  C   UNL     1      -2.751   2.279  -0.230  0.00  0.00    +0.044 C 
ATOM     14  C   UNL     1      -2.100   2.240   1.128  0.00  0.00    -0.050 A 
ATOM     15  C   UNL     1      -0.925   1.521   1.307  0.00  0.00    +0.005 A 
ATOM     16  C   UNL     1      -0.311   1.476   2.538  0.00  0.00    +0.026 A 
ATOM     17  C   UNL     1      -0.876   2.147   3.619  0.00  0.00    +0.049 A 
ATOM     18  C   UNL     1      -2.071   2.871   3.436  0.00  0.00    +0.001 A 
ATOM     19  C   UNL     1      -2.673   2.906   2.172  0.00  0.00    +0.013 A 
ATOM     20  C   UNL     1      -2.405   3.440   4.689  0.00  0.00    +0.041 A 
ATOM     21  C   UNL     1      -1.448   3.070   5.580  0.00  0.00    +0.105 A 
ATOM     22  N   UNL     1      -0.512   2.282   4.938  0.00  0.00    -0.339 N 
ATOM     23  C   UNL     1       0.673   1.687   5.561  0.00  0.00    +0.149 C 
ENDBRANCH   1  21
BRANCH  12  24
ATOM     24  C   UNL     1      -2.992   3.249   9.971  0.00  0.00    -0.021 A 
ATOM     25  C   UNL     1      -4.285   2.768   9.889  0.00  0.00    +0.009 A 
ATOM     26  C   UNL     1      -4.716   1.789  10.763  0.00  0.00    +0.046 A 
ATOM     27  C   UNL     1      -3.853   1.297  11.732  0.00  0.00    +0.120 A 
ATOM     28  C   UNL     1      -2.558   1.786  11.816  0.00  0.00    +0.046 A 
ATOM     29  C   UNL     1      -2.130   2.761  10.935  0.00  0.00    +0.009 A 
BRANCH  27  30
ATOM     30  O   UNL     1      -4.276   0.339  12.598  0.00  0.00    -0.495 OA
ATOM     31  C   UNL     1      -5.623  -0.118  12.452  0.00  0.00    +0.277 C 
ENDBRANCH  27  30
ENDBRANCH  12  24
TORSDOF 3
