REMARK  Name = ZINC12882604
REMARK  8 active torsions:
REMARK  status: ('A' for Active; 'I' for Inactive)
REMARK    1  A    between atoms: C_1  and  C_2
REMARK    2  A    between atoms: C_2  and  C_3
REMARK    3  A    between atoms: C_3  and  C_31
REMARK    4  A    between atoms: N_6  and  C_10
REMARK    5  A    between atoms: C_10  and  C_11
REMARK    6  A    between atoms: N_13  and  C_14
REMARK    7  A    between atoms: C_17  and  S_20
REMARK    8  A    between atoms: S_20  and  N_23
REMARK                            x       y       z     vdW  Elec       q    Type
REMARK                         _______ _______ _______ _____ _____    ______ ____
ROOT
ATOM      1  C   UNL     1       1.102   0.478   5.559  0.00  0.00    +0.235 C 
ATOM      2  O   UNL     1       1.533  -0.630   5.319  0.00  0.00    -0.274 OA
ATOM      3  N   UNL     1       0.963   0.885   6.836  0.00  0.00    -0.284 N 
ATOM      4  H   UNL     1       0.683   1.793   7.027  0.00  0.00    +0.155 HD
ENDROOT
BRANCH   3   5
ATOM      5  C   UNL     1       1.224  -0.003   7.885  0.00  0.00    +0.034 A 
ATOM      6  C   UNL     1       0.466   0.052   9.048  0.00  0.00    +0.025 A 
ATOM      7  C   UNL     1       0.725  -0.825  10.082  0.00  0.00    +0.031 A 
ATOM      8  C   UNL     1       1.738  -1.759   9.961  0.00  0.00    +0.113 A 
ATOM      9  C   UNL     1       2.495  -1.817   8.805  0.00  0.00    +0.031 A 
ATOM     10  C   UNL     1       2.236  -0.946   7.764  0.00  0.00    +0.025 A 
BRANCH   8  11
ATOM     11  S   UNL     1       2.066  -2.877  11.283  0.00  0.00    +0.100 S 
ATOM     12  O   UNL     1       3.418  -3.291  11.139  0.00  0.00    -0.146 OA
ATOM     13  O   UNL     1       1.580  -2.260  12.467  0.00  0.00    -0.146 OA
BRANCH  11  14
ATOM     14  N   UNL     1       1.131  -4.221  11.031  0.00  0.00    -0.118 NA
ATOM     15  C   UNL     1       1.179  -5.208  11.864  0.00  0.00    +0.117 C 
ATOM     16  C   UNL     1       2.094  -5.135  13.085  0.00  0.00    +0.073 C 
ATOM     17  C   UNL     1       1.206  -5.017  14.305  0.00  0.00    +0.008 C 
ATOM     18  C   UNL     1       0.780  -6.369  14.881  0.00  0.00    +0.002 C 
ATOM     19  C   UNL     1       0.375  -7.378  13.806  0.00  0.00    +0.019 C 
ATOM     20  C   UNL     1      -0.481  -6.775  12.713  0.00  0.00    +0.102 C 
ATOM     21  N   UNL     1       0.436  -6.278  11.666  0.00  0.00    -0.331 N 
ATOM     22  H   UNL     1       0.490  -6.749  10.819  0.00  0.00    +0.147 HD
ENDBRANCH  11  14
ENDBRANCH   8  11
ENDBRANCH   3   5
BRANCH   1  23
ATOM     23  C   UNL     1       0.723   1.399   4.428  0.00  0.00    +0.214 C 
BRANCH  23  27
ATOM     24  C   UNL     1       0.738  -0.507   1.241  0.00  0.00    +0.138 C 
ATOM     25  C   UNL     1       0.052  -0.025   2.504  0.00  0.00    +0.251 C 
ATOM     26  O   UNL     1      -1.081  -0.268   2.861  0.00  0.00    -0.272 OA
ATOM     27  N   UNL     1       0.965   0.729   3.149  0.00  0.00    -0.215 N 
ATOM     28  C   UNL     1       2.119   0.789   2.475  0.00  0.00    +0.310 C 
ATOM     29  O   UNL     1       3.093   1.409   2.857  0.00  0.00    -0.252 OA
ATOM     30  N   UNL     1       2.083   0.087   1.328  0.00  0.00    -0.281 N 
ATOM     31  H   UNL     1       2.802  -0.010   0.685  0.00  0.00    +0.152 HD
BRANCH  24  32
ATOM     32  C   UNL     1       0.822  -2.011   1.221  0.00  0.00    -0.015 A 
ATOM     33  C   UNL     1      -0.166  -2.751   0.599  0.00  0.00    +0.006 A 
ATOM     34  C   UNL     1      -0.088  -4.131   0.580  0.00  0.00    +0.000 A 
ATOM     35  C   UNL     1       0.978  -4.772   1.183  0.00  0.00    +0.000 A 
ATOM     36  C   UNL     1       1.967  -4.032   1.805  0.00  0.00    +0.000 A 
ATOM     37  C   UNL     1       1.891  -2.652   1.819  0.00  0.00    +0.006 A 
ENDBRANCH  24  32
BRANCH  24  39
ATOM     38  C   UNL     1      -0.007   1.536   0.010  0.00  0.00    +0.007 C 
ATOM     39  C   UNL     1       0.003   0.006   0.001  0.00  0.00    +0.037 C 
ENDBRANCH  24  39
ENDBRANCH  23  27
ENDBRANCH   1  23
TORSDOF 7
