REMARK  Name = ZINC59037900
REMARK  12 active torsions:
REMARK  status: ('A' for Active; 'I' for Inactive)
REMARK    1  A    between atoms: C_1  and  C_2
REMARK    2  A    between atoms: C_2  and  N_3
REMARK    3  A    between atoms: N_3  and  C_4
REMARK    4  A    between atoms: N_3  and  C_6
REMARK    5  A    between atoms: C_4  and  C_5
REMARK    6  A    between atoms: C_6  and  C_7
REMARK    7  A    between atoms: C_12  and  C_13
REMARK    8  A    between atoms: C_13  and  N_14
REMARK    9  A    between atoms: N_17  and  C_18
REMARK   10  A    between atoms: C_18  and  C_19
REMARK   11  A    between atoms: C_19  and  C_21
REMARK   12  A    between atoms: C_19  and  N_26
REMARK                            x       y       z     vdW  Elec       q    Type
REMARK                         _______ _______ _______ _____ _____    ______ ____
ROOT
ATOM      1  N   UNL     1      -0.636  -2.555  -4.763  0.00  0.00    -0.295 N 
ATOM      2  C   UNL     1       0.225  -2.329  -5.775  0.00  0.00    +0.300 C 
ATOM      3  O   UNL     1       0.513  -1.190  -6.085  0.00  0.00    -0.253 OA
ATOM      4  N   UNL     1       0.767  -3.367  -6.443  0.00  0.00    -0.301 N 
ATOM      5  H   UNL     1      -0.866  -3.465  -4.516  0.00  0.00    +0.151 HD
ATOM      6  H   UNL     1       0.537  -4.276  -6.196  0.00  0.00    +0.150 HD
ENDROOT
BRANCH   1   7
ATOM      7  C   UNL     1      -1.226  -1.427  -4.037  0.00  0.00    +0.141 C 
BRANCH   7  13
ATOM      8  C   UNL     1      -1.625  -2.401  -1.766  0.00  0.00    -0.059 A 
ATOM      9  C   UNL     1      -2.470  -2.873  -0.779  0.00  0.00    +0.002 A 
ATOM     10  C   UNL     1      -3.836  -2.896  -0.991  0.00  0.00    +0.000 A 
ATOM     11  C   UNL     1      -4.357  -2.447  -2.190  0.00  0.00    +0.000 A 
ATOM     12  C   UNL     1      -3.512  -1.974  -3.177  0.00  0.00    +0.005 A 
ATOM     13  C   UNL     1      -2.146  -1.947  -2.963  0.00  0.00    -0.029 A 
BRANCH   8  14
ATOM     14  C   UNL     1      -0.136  -2.376  -1.535  0.00  0.00    -0.043 C 
BRANCH  14  15
ATOM     15  N   UNL     1       0.278  -1.018  -1.159  0.00  0.00    +0.382 N 
ATOM     16  H   UNL     1      -0.031  -0.364  -1.863  0.00  0.00    -0.081 HD
BRANCH  15  18
ATOM     17  C   UNL     1      -0.003   0.796   0.462  0.00  0.00    -0.017 C 
ATOM     18  C   UNL     1      -0.322  -0.664   0.134  0.00  0.00    -0.082 C 
ENDBRANCH  15  18
BRANCH  15  19
ATOM     19  C   UNL     1       1.742  -0.965  -1.050  0.00  0.00    -0.082 C 
ATOM     20  C   UNL     1       2.364  -1.184  -2.431  0.00  0.00    -0.017 C 
ENDBRANCH  15  19
ENDBRANCH  14  15
ENDBRANCH   8  14
ENDBRANCH   7  13
ENDBRANCH   1   7
BRANCH   4  21
ATOM     21  C   UNL     1       1.703  -3.121  -7.543  0.00  0.00    +0.095 C 
BRANCH  21  22
ATOM     22  C   UNL     1       2.082  -4.452  -8.197  0.00  0.00    -0.013 C 
BRANCH  22  23
ATOM     23  N   UNL     1       2.915  -4.196  -9.380  0.00  0.00    +0.386 N 
ATOM     24  C   UNL     1       3.229  -5.473 -10.070  0.00  0.00    -0.078 C 
ATOM     25  C   UNL     1       3.582  -5.020 -11.509  0.00  0.00    -0.020 C 
ATOM     26  C   UNL     1       2.586  -3.864 -11.762  0.00  0.00    -0.020 C 
ATOM     27  C   UNL     1       2.170  -3.379 -10.361  0.00  0.00    -0.078 C 
ATOM     28  H   UNL     1       3.767  -3.727  -9.111  0.00  0.00    -0.081 HD
ENDBRANCH  22  23
BRANCH  22  29
ATOM     29  C   UNL     1       2.852  -5.294  -7.212  0.00  0.00    -0.022 A 
ATOM     30  C   UNL     1       2.417  -6.325  -6.448  0.00  0.00    +0.009 A 
ATOM     31  C   UNL     1       3.312  -6.960  -5.606  0.00  0.00    +0.008 A 
ATOM     32  C   UNL     1       4.597  -6.532  -5.571  0.00  0.00    +0.045 A 
ATOM     33  S   UNL     1       4.575  -5.197  -6.757  0.00  0.00    -0.103 S 
ENDBRANCH  22  29
ENDBRANCH  21  22
ENDBRANCH   4  21
TORSDOF 10
