REMARK  Name = ZINC09090675
REMARK  4 active torsions:
REMARK  status: ('A' for Active; 'I' for Inactive)
REMARK    1  A    between atoms: C_4  and  C_7
REMARK    2  A    between atoms: C_8  and  C_24
REMARK    3  A    between atoms: C_9  and  C_15
REMARK    4  A    between atoms: C_19  and  N_21
REMARK                            x       y       z     vdW  Elec       q    Type
REMARK                         _______ _______ _______ _____ _____    ______ ____
ROOT
ATOM      1  C   UNL     1      -1.368   3.372   0.128  0.00  0.00    +0.049 C 
ATOM      2  C   UNL     1      -1.310   2.017   0.096  0.00  0.00    +0.024 C 
ATOM      3  C   UNL     1      -2.615   1.257  -0.025  0.00  0.00    +0.139 C 
ATOM      4  N   UNL     1      -3.851   2.053  -0.087  0.00  0.00    -0.288 N 
ATOM      5  C   UNL     1      -3.760   3.396  -0.044  0.00  0.00    +0.305 C 
ATOM      6  O   UNL     1      -4.779   4.056  -0.099  0.00  0.00    -0.252 OA
ATOM      7  N   UNL     1      -2.584   4.030   0.058  0.00  0.00    -0.269 N 
ATOM      8  H   UNL     1      -4.715   1.619  -0.161  0.00  0.00    +0.151 HD
ATOM      9  H   UNL     1      -2.585   4.999   0.084  0.00  0.00    +0.156 HD
ENDROOT
BRANCH   2  10
ATOM     10  C   UNL     1      -0.025   1.311   0.170  0.00  0.00    +0.072 A 
ATOM     11  C   UNL     1       0.371   0.485  -0.901  0.00  0.00    +0.029 A 
ATOM     12  C   UNL     1       1.557  -0.178  -0.841  0.00  0.00    +0.012 A 
ATOM     13  C   UNL     1       2.361  -0.013   0.307  0.00  0.00    +0.000 A 
ATOM     14  C   UNL     1       3.594  -0.671   0.431  0.00  0.00    +0.010 A 
ATOM     15  C   UNL     1       4.345  -0.489   1.553  0.00  0.00    +0.001 A 
ATOM     16  C   UNL     1       3.905   0.341   2.582  0.00  0.00    +0.002 A 
ATOM     17  C   UNL     1       2.713   0.993   2.495  0.00  0.00    +0.028 A 
ATOM     18  C   UNL     1       1.910   0.831   1.352  0.00  0.00    +0.072 A 
ATOM     19  N   UNL     1       0.736   1.460   1.243  0.00  0.00    -0.247 NA
ENDBRANCH   2  10
BRANCH   1  23
ATOM     20  C   UNL     1       2.219   5.622   0.447  0.00  0.00    +0.000 A 
ATOM     21  C   UNL     1       2.122   4.610  -0.492  0.00  0.00    +0.001 A 
ATOM     22  C   UNL     1       0.960   3.875  -0.601  0.00  0.00    +0.010 A 
ATOM     23  C   UNL     1      -0.120   4.154   0.239  0.00  0.00    -0.003 A 
ATOM     24  C   UNL     1      -0.017   5.180   1.181  0.00  0.00    +0.010 A 
ATOM     25  C   UNL     1       1.153   5.904   1.283  0.00  0.00    +0.001 A 
ENDBRANCH   1  23
BRANCH   3  26
ATOM     26  C   UNL     1      -2.724   0.332   1.160  0.00  0.00    -0.020 A 
ATOM     27  C   UNL     1      -3.134   0.823   2.385  0.00  0.00    +0.006 A 
ATOM     28  C   UNL     1      -3.238  -0.027   3.470  0.00  0.00    +0.003 A 
ATOM     29  C   UNL     1      -2.922  -1.366   3.333  0.00  0.00    +0.033 A 
ATOM     30  C   UNL     1      -2.507  -1.856   2.109  0.00  0.00    +0.127 A 
ATOM     31  C   UNL     1      -2.408  -1.007   1.022  0.00  0.00    +0.038 A 
BRANCH  30  32
ATOM     32  N   UNL     1      -2.169  -3.289   1.961  0.00  0.00    +0.056 N 
ATOM     33  O   UNL     1      -1.803  -3.721   0.883  0.00  0.00    -0.126 OA
ATOM     34  O   UNL     1      -2.257  -4.037   2.918  0.00  0.00    -0.126 OA
ENDBRANCH  30  32
ENDBRANCH   3  26
TORSDOF 4
