REMARK  Name = ZINC40285734
REMARK  4 active torsions:
REMARK  status: ('A' for Active; 'I' for Inactive)
REMARK    1  A    between atoms: C_1  and  C_2
REMARK    2  A    between atoms: C_13  and  C_16
REMARK    3  A    between atoms: C_18  and  O_29
REMARK    4  A    between atoms: C_20  and  C_22
REMARK                            x       y       z     vdW  Elec       q    Type
REMARK                         _______ _______ _______ _____ _____    ______ ____
ROOT
ATOM      1  C   UNL     1      -0.018   1.503   0.010  0.00  0.00    +0.068 C 
ATOM      2  C   UNL     1       0.002  -0.004   0.002  0.00  0.00    +0.066 A 
ATOM      3  C   UNL     1       0.008  -0.806  -1.124  0.00  0.00    +0.027 A 
ATOM      4  C   UNL     1       0.032  -2.129  -0.706  0.00  0.00    +0.165 A 
ATOM      5  N   UNL     1       0.034  -2.119   0.648  0.00  0.00    -0.194 N 
ATOM      6  N   UNL     1       0.023  -0.778   1.064  0.00  0.00    -0.168 NA
ATOM      7  C   UNL     1       0.048  -3.241   1.481  0.00  0.00    +0.177 A 
ATOM      8  C   UNL     1       0.043  -3.069   2.878  0.00  0.00    +0.054 A 
ATOM      9  C   UNL     1       0.057  -4.152   3.699  0.00  0.00    +0.054 A 
ATOM     10  C   UNL     1       0.076  -5.441   3.133  0.00  0.00    +0.178 A 
ATOM     11  N   UNL     1       0.093  -6.664   3.638  0.00  0.00    -0.128 NA
ATOM     12  N   UNL     1       0.107  -7.520   2.677  0.00  0.00    -0.132 NA
ATOM     13  C   UNL     1       0.101  -6.903   1.521  0.00  0.00    +0.152 A 
ATOM     14  N   UNL     1       0.081  -5.575   1.766  0.00  0.00    -0.195 N 
ATOM     15  N   UNL     1       0.061  -4.441   0.952  0.00  0.00    -0.144 NA
ATOM     16  C   UNL     1       0.114  -7.557   0.164  0.00  0.00    +0.090 C 
ATOM     17  N   UNL     1       0.057  -3.160  -1.598  0.00  0.00    -0.197 NA
ATOM     18  C   UNL     1       0.344  -2.913  -2.841  0.00  0.00    +0.190 C 
ATOM     19  C   UNL     1       0.717  -1.552  -3.354  0.00  0.00    +0.108 C 
ATOM     20  C   UNL     1      -0.011  -0.441  -2.587  0.00  0.00    +0.064 C 
ENDROOT
BRANCH  20  21
ATOM     21  C   UNL     1       0.697   0.872  -2.796  0.00  0.00    -0.025 A 
ATOM     22  C   UNL     1       2.029   1.002  -2.447  0.00  0.00    +0.005 A 
ATOM     23  C   UNL     1       2.679   2.207  -2.639  0.00  0.00    +0.000 A 
ATOM     24  C   UNL     1       1.998   3.282  -3.179  0.00  0.00    +0.001 A 
ATOM     25  C   UNL     1       0.667   3.153  -3.528  0.00  0.00    +0.015 A 
ATOM     26  C   UNL     1       0.018   1.946  -3.341  0.00  0.00    +0.022 A 
ATOM     27 BR   UNL     1      -1.802   1.766  -3.825  0.00  0.00    -0.050 Br
ENDBRANCH  20  21
BRANCH  18  28
ATOM     28  O   UNL     1       0.306  -3.936  -3.720  0.00  0.00    -0.495 OA
ATOM     29  H   UNL     1       0.061  -4.784  -3.325  0.00  0.00    +0.293 HD
ENDBRANCH  18  28
TORSDOF 2
