REMARK  Name = ZINC33810624
REMARK  7 active torsions:
REMARK  status: ('A' for Active; 'I' for Inactive)
REMARK    1  A    between atoms: C_1  and  C_2
REMARK    2  A    between atoms: C_5  and  C_8
REMARK    3  A    between atoms: C_8  and  S_9
REMARK    4  A    between atoms: S_9  and  C_10
REMARK    5  A    between atoms: C_17  and  C_29
REMARK    6  A    between atoms: C_23  and  C_27
REMARK    7  A    between atoms: C_23  and  C_28
REMARK                            x       y       z     vdW  Elec       q    Type
REMARK                         _______ _______ _______ _____ _____    ______ ____
ROOT
ATOM      1  C   UNL     1      -0.030  -2.723  -0.002  0.00  0.00    +0.171 A 
ATOM      2  N   UNL     1       1.097  -2.056  -0.378  0.00  0.00    -0.208 NA
ATOM      3  C   UNL     1       1.117  -0.686  -0.374  0.00  0.00    +0.135 A 
ATOM      4  C   UNL     1       0.002  -0.004   0.002  0.00  0.00    +0.069 A 
ATOM      5  C   UNL     1      -1.144  -0.733   0.388  0.00  0.00    +0.258 A 
ATOM      6  O   UNL     1      -2.158  -0.145   0.737  0.00  0.00    -0.267 OA
ATOM      7  N   UNL     1      -1.114  -2.074   0.369  0.00  0.00    -0.302 N 
ATOM      8  C   UNL     1      -0.018   1.496   0.010  0.00  0.00    +0.093 C 
ATOM      9  C   UNL     1       1.379   2.062   0.000  0.00  0.00    +0.024 C 
ATOM     10  C   UNL     1       2.433   1.302  -0.368  0.00  0.00    +0.017 C 
ATOM     11  N   UNL     1       2.254  -0.003  -0.741  0.00  0.00    -0.302 N 
ATOM     12  C   UNL     1       3.833   1.864  -0.374  0.00  0.00    +0.058 C 
ATOM     13  C   UNL     1       3.784   3.362  -0.679  0.00  0.00    -0.023 C 
ATOM     14  C   UNL     1       2.913   4.045   0.380  0.00  0.00    +0.086 C 
ATOM     15  C   UNL     1       1.553   3.403   0.383  0.00  0.00    +0.162 C 
ATOM     16  O   UNL     1       0.586   4.056   0.722  0.00  0.00    -0.292 OA
ATOM     17  C   UNL     1       3.178   3.585  -2.066  0.00  0.00    +0.011 C 
ATOM     18  C   UNL     1       5.198   3.946  -0.636  0.00  0.00    +0.011 C 
ATOM     19  H   UNL     1       3.029  -0.506  -1.338  0.00  0.00    +0.153 HD
ATOM     20  H   UNL     1      -2.013  -2.632   0.670  0.00  0.00    +0.171 HD
ENDROOT
BRANCH   8  21
ATOM     21  C   UNL     1      -0.758   1.986  -1.208  0.00  0.00    -0.032 A 
ATOM     22  C   UNL     1      -0.301   1.659  -2.471  0.00  0.00    +0.008 A 
ATOM     23  C   UNL     1      -0.977   2.107  -3.591  0.00  0.00    +0.050 A 
ATOM     24  C   UNL     1      -2.114   2.885  -3.450  0.00  0.00    +0.166 A 
ATOM     25  C   UNL     1      -2.575   3.214  -2.177  0.00  0.00    +0.167 A 
ATOM     26  C   UNL     1      -1.896   2.757  -1.059  0.00  0.00    +0.054 A 
ATOM     27  O   UNL     1      -3.698   3.979  -2.304  0.00  0.00    -0.453 OA
ATOM     28  C   UNL     1      -3.688   4.454  -3.663  0.00  0.00    +0.466 C 
ATOM     29  O   UNL     1      -2.949   3.443  -4.374  0.00  0.00    -0.453 OA
ENDBRANCH   8  21
BRANCH   1  30
ATOM     30  S   UNL     1      -0.037  -4.485  -0.013  0.00  0.00    -0.083 S 
BRANCH  30  31
ATOM     31  C   UNL     1      -1.727  -4.796   0.556  0.00  0.00    +0.112 C 
BRANCH  31  36
ATOM     32  C   UNL     1      -2.651 -10.494   0.825  0.00  0.00    +0.044 C 
ATOM     33  C   UNL     1      -2.411  -9.008   0.755  0.00  0.00    -0.050 A 
ATOM     34  C   UNL     1      -1.916  -8.335   1.856  0.00  0.00    +0.003 A 
ATOM     35  C   UNL     1      -1.695  -6.972   1.792  0.00  0.00    +0.005 A 
ATOM     36  C   UNL     1      -1.968  -6.282   0.626  0.00  0.00    -0.037 A 
ATOM     37  C   UNL     1      -2.467  -6.954  -0.474  0.00  0.00    +0.005 A 
ATOM     38  C   UNL     1      -2.684  -8.317  -0.412  0.00  0.00    +0.003 A 
ENDBRANCH  31  36
ENDBRANCH  30  31
ENDBRANCH   1  30
TORSDOF 4
