REMARK  Name = ZINC63279527
REMARK  6 active torsions:
REMARK  status: ('A' for Active; 'I' for Inactive)
REMARK    1  A    between atoms: C_1  and  C_2
REMARK    2  A    between atoms: C_2  and  C_4
REMARK    3  A    between atoms: C_2  and  N_14
REMARK    4  A    between atoms: C_4  and  C_5
REMARK    5  A    between atoms: C_15  and  C_17
REMARK    6  A    between atoms: N_22  and  C_24
REMARK                            x       y       z     vdW  Elec       q    Type
REMARK                         _______ _______ _______ _____ _____    ______ ____
ROOT
ATOM      1  N   UNL     1       0.711  -0.489   1.189  0.00  0.00    -0.312 N 
ATOM      2  C   UNL     1       2.054  -0.600   1.174  0.00  0.00    +0.218 C 
ATOM      3  O   UNL     1       2.676  -0.297   0.177  0.00  0.00    -0.275 OA
ATOM      4  H   UNL     1       0.213  -0.731   1.986  0.00  0.00    +0.149 HD
ENDROOT
BRANCH   2   5
ATOM      5  C   UNL     1       2.783  -1.099   2.395  0.00  0.00    +0.089 C 
ATOM      6  C   UNL     1       2.301  -2.512   2.735  0.00  0.00    +0.015 C 
ATOM      7  C   UNL     1       3.089  -3.035   3.940  0.00  0.00    +0.016 C 
ATOM      8  C   UNL     1       4.584  -3.011   3.614  0.00  0.00    +0.087 C 
ATOM      9  N   UNL     1       4.996  -1.638   3.296  0.00  0.00    -0.275 NA
ATOM     10  C   UNL     1       4.287  -1.131   2.114  0.00  0.00    +0.099 C 
BRANCH   9  11
ATOM     11  C   UNL     1       6.451  -1.553   3.114  0.00  0.00    +0.231 C 
ATOM     12  C   UNL     1       7.115  -2.033   4.381  0.00  0.00    +0.126 C 
ATOM     13  N   UNL     1       7.127  -3.110   5.098  0.00  0.00    -0.233 NA
ATOM     14  C   UNL     1       7.942  -2.932   6.155  0.00  0.00    +0.224 C 
ATOM     15  N   UNL     1       8.480  -1.738   6.153  0.00  0.00    -0.215 NA
ATOM     16  C   UNL     1       8.024  -1.069   5.062  0.00  0.00    +0.182 C 
ATOM     17  N   UNL     1       8.196   0.114   4.541  0.00  0.00    -0.197 NA
ATOM     18  C   UNL     1       7.600   0.527   3.416  0.00  0.00    +0.222 C 
ATOM     19  N   UNL     1       6.786  -0.175   2.704  0.00  0.00    -0.229 NA
ATOM     20 CL   UNL     1       7.950   2.139   2.874  0.00  0.00    -0.041 Cl
ENDBRANCH   9  11
ENDBRANCH   2   5
BRANCH   1  22
ATOM     21  C   UNL     1      -0.019   1.526   0.010  0.00  0.00    +0.028 C 
ATOM     22  C   UNL     1       0.002  -0.004   0.002  0.00  0.00    +0.074 C 
BRANCH  22  23
ATOM     23  C   UNL     1      -1.433  -0.534   0.013  0.00  0.00    +0.055 C 
BRANCH  23  24
ATOM     24  C   UNL     1      -1.416  -2.035  -0.119  0.00  0.00    -0.040 C 
ATOM     25  C   UNL     1      -1.463  -2.940   0.885  0.00  0.00    -0.001 A 
ATOM     26  C   UNL     1      -1.541  -2.803   2.344  0.00  0.00    +0.010 A 
ATOM     27  C   UNL     1      -1.574  -3.920   3.107  0.00  0.00    +0.001 A 
ATOM     28  C   UNL     1      -1.535  -5.201   2.540  0.00  0.00    +0.002 A 
ATOM     29  C   UNL     1      -1.463  -5.407   1.208  0.00  0.00    +0.026 A 
ATOM     30  C   UNL     1      -1.424  -4.304   0.311  0.00  0.00    +0.043 A 
ATOM     31  N   UNL     1      -1.355  -4.244  -0.997  0.00  0.00    -0.380 N 
ATOM     32  C   UNL     1      -1.349  -2.834  -1.401  0.00  0.00    +0.144 C 
ATOM     33  H   UNL     1      -1.318  -5.005  -1.597  0.00  0.00    +0.160 HD
ENDBRANCH  23  24
ENDBRANCH  22  23
ENDBRANCH   1  22
TORSDOF 5
