REMARK  Name = ZINC25606122
REMARK  10 active torsions:
REMARK  status: ('A' for Active; 'I' for Inactive)
REMARK    1  A    between atoms: C_4  and  C_7
REMARK    2  A    between atoms: C_7  and  N_8
REMARK    3  A    between atoms: C_11  and  N_14
REMARK    4  A    between atoms: C_15  and  C_17
REMARK    5  A    between atoms: C_17  and  S_18
REMARK    6  A    between atoms: S_18  and  C_19
REMARK    7  A    between atoms: C_22  and  C_25
REMARK    8  A    between atoms: N_23  and  N_24
REMARK    9  A    between atoms: C_28  and  O_31
REMARK   10  A    between atoms: O_31  and  C_32
REMARK                            x       y       z     vdW  Elec       q    Type
REMARK                         _______ _______ _______ _____ _____    ______ ____
ROOT
ATOM      1  S   UNL     1       2.656   7.154   0.421  0.00  0.00    -0.075 S 
ENDROOT
BRANCH   1   2
ATOM      2  C   UNL     1       1.748   5.665   0.175  0.00  0.00    +0.209 A 
ATOM      3  N   UNL     1       0.479   5.571  -0.153  0.00  0.00    -0.121 NA
ATOM      4  N   UNL     1       0.140   4.336  -0.256  0.00  0.00    -0.127 NA
ATOM      5  C   UNL     1       1.168   3.565   0.010  0.00  0.00    +0.182 A 
ATOM      6  N   UNL     1       2.231   4.392   0.290  0.00  0.00    -0.224 N 
BRANCH   5   7
ATOM      7  C   UNL     1       1.184   2.087   0.002  0.00  0.00    +0.021 A 
ATOM      8  C   UNL     1      -0.017   1.374   0.010  0.00  0.00    +0.015 A 
ATOM      9  C   UNL     1       0.002  -0.004   0.002  0.00  0.00    +0.046 A 
ATOM     10  C   UNL     1       1.213  -0.684  -0.013  0.00  0.00    +0.127 A 
ATOM     11  C   UNL     1       2.409   0.021  -0.020  0.00  0.00    +0.046 A 
ATOM     12  C   UNL     1       2.399   1.400  -0.013  0.00  0.00    +0.015 A 
BRANCH  10  13
ATOM     13  O   UNL     1       1.227  -2.042  -0.021  0.00  0.00    -0.434 OA
BRANCH  13  14
ATOM     14  C   UNL     1       2.507  -2.678  -0.036  0.00  0.00    +0.541 C 
ATOM     15  F   UNL     1       3.207  -2.288  -1.183  0.00  0.00    -0.166 F 
ATOM     16  F   UNL     1       3.229  -2.300   1.101  0.00  0.00    -0.166 F 
ENDBRANCH  13  14
ENDBRANCH  10  13
ENDBRANCH   5   7
BRANCH   6  17
ATOM     17  N   UNL     1       3.504   4.019   0.615  0.00  0.00    -0.295 N 
ATOM     18  H   UNL     1       3.767   2.953   0.675  0.00  0.00    +0.163 HD
ATOM     19  H   UNL     1       4.267   4.786   0.818  0.00  0.00    +0.163 HD
ENDBRANCH   6  17
ENDBRANCH   1   2
BRANCH   1  20
ATOM     20  C   UNL     1       1.357   8.372   0.095  0.00  0.00    +0.173 C 
BRANCH  20  22
ATOM     21  N   UNL     1       1.130  10.835   0.055  0.00  0.00    -0.314 N 
ATOM     22  C   UNL     1       1.920   9.761   0.251  0.00  0.00    +0.223 C 
ATOM     23  O   UNL     1       3.085   9.913   0.554  0.00  0.00    -0.275 OA
ATOM     24  H   UNL     1       0.073  10.697  -0.219  0.00  0.00    +0.149 HD
BRANCH  21  28
ATOM     25  N   UNL     1       0.551  14.194  -0.562  0.00  0.00    +0.384 N 
ATOM     26  C   UNL     1       1.147  13.519  -1.743  0.00  0.00    -0.077 C 
ATOM     27  C   UNL     1       2.291  12.669  -1.127  0.00  0.00    +0.002 C 
ATOM     28  C   UNL     1       1.677  12.185   0.207  0.00  0.00    +0.055 C 
ATOM     29  C   UNL     1       0.550  13.187   0.521  0.00  0.00    -0.056 C 
ATOM     30  H   UNL     1       1.117  15.093  -0.276  0.00  0.00    -0.081 HD
BRANCH  25  31
ATOM     31  C   UNL     1      -0.813  14.656  -0.853  0.00  0.00    -0.043 C 
BRANCH  31  35
ATOM     32  C   UNL     1      -0.791  17.009  -4.418  0.00  0.00    +0.000 A 
ATOM     33  C   UNL     1      -0.989  15.643  -4.492  0.00  0.00    +0.000 A 
ATOM     34  C   UNL     1      -0.996  14.882  -3.339  0.00  0.00    +0.002 A 
ATOM     35  C   UNL     1      -0.805  15.486  -2.110  0.00  0.00    -0.064 A 
ATOM     36  C   UNL     1      -0.612  16.853  -2.035  0.00  0.00    +0.002 A 
ATOM     37  C   UNL     1      -0.600  17.614  -3.189  0.00  0.00    +0.000 A 
ENDBRANCH  31  35
ENDBRANCH  25  31
ENDBRANCH  21  28
ENDBRANCH  20  22
ENDBRANCH   1  20
TORSDOF 10
