REMARK  Name = ZINC39676301
REMARK  4 active torsions:
REMARK  status: ('A' for Active; 'I' for Inactive)
REMARK    1  A    between atoms: C_11  and  C_13
REMARK    2  A    between atoms: C_13  and  N_14
REMARK    3  A    between atoms: C_15  and  C_17
REMARK    4  A    between atoms: C_28  and  C_30
REMARK                            x       y       z     vdW  Elec       q    Type
REMARK                         _______ _______ _______ _____ _____    ______ ____
ROOT
ATOM      1  C   UNL     1       8.466  -0.818  -0.099  0.00  0.00    +0.100 C 
ATOM      2  C   UNL     1       8.311   0.072   1.154  0.00  0.00    +0.121 C 
ATOM      3  N   UNL     1       9.225  -0.527   2.155  0.00  0.00    -0.297 N 
ATOM      4  C   UNL     1      10.421  -0.922   1.372  0.00  0.00    +0.115 C 
ATOM      5  C   UNL     1       9.853  -1.466   0.046  0.00  0.00    -0.004 C 
ATOM      6  C   UNL     1      10.751  -1.060  -1.119  0.00  0.00    -0.010 C 
ATOM      7  C   UNL     1      12.104  -1.763  -0.984  0.00  0.00    -0.082 C 
ATOM      8  N   UNL     1      11.904  -3.217  -0.978  0.00  0.00    +0.379 N 
ATOM      9  C   UNL     1      11.118  -3.610   0.198  0.00  0.00    -0.082 C 
ATOM     10  C   UNL     1       9.723  -2.985   0.113  0.00  0.00    -0.010 C 
ATOM     11  C   UNL     1       9.017  -0.678   3.478  0.00  0.00    +0.260 C 
ATOM     12  O   UNL     1       7.941  -0.391   3.959  0.00  0.00    -0.271 OA
ATOM     13  H   UNL     1      11.414  -3.491  -1.816  0.00  0.00    -0.086 HD
ATOM     14  H   UNL     1      12.801  -3.679  -0.950  0.00  0.00    -0.086 HD
ENDROOT
BRANCH  11  15
ATOM     15  C   UNL     1      10.120  -1.205   4.359  0.00  0.00    +0.296 C 
ATOM     16  C   UNL     1      11.243  -0.163   4.460  0.00  0.00    +0.283 C 
ATOM     17  O   UNL     1      12.266  -0.688   5.314  0.00  0.00    -0.484 OA
ATOM     18  C   UNL     1      11.856  -1.255   6.481  0.00  0.00    +0.162 A 
ATOM     19  C   UNL     1      12.775  -1.451   7.502  0.00  0.00    +0.049 A 
ATOM     20  C   UNL     1      12.375  -2.029   8.692  0.00  0.00    +0.004 A 
ATOM     21  C   UNL     1      11.059  -2.413   8.869  0.00  0.00    +0.004 A 
ATOM     22  C   UNL     1      10.138  -2.219   7.857  0.00  0.00    +0.049 A 
ATOM     23  C   UNL     1      10.533  -1.639   6.660  0.00  0.00    +0.163 A 
ATOM     24  O   UNL     1       9.613  -1.448   5.675  0.00  0.00    -0.473 OA
ENDBRANCH  11  15
BRANCH   1  26
ATOM     25  N   UNL     1       6.941  -2.347  -1.306  0.00  0.00    -0.308 N 
ATOM     26  C   UNL     1       7.393  -1.876  -0.127  0.00  0.00    +0.219 C 
ATOM     27  O   UNL     1       6.936  -2.304   0.912  0.00  0.00    -0.275 OA
ATOM     28  H   UNL     1       7.306  -2.005  -2.137  0.00  0.00    +0.149 HD
BRANCH  25  29
ATOM     29  C   UNL     1       5.898  -3.375  -1.333  0.00  0.00    +0.178 C 
BRANCH  29  40
ATOM     30  C   UNL     1       5.443  -3.965  -7.680  0.00  0.00    +0.001 A 
ATOM     31  C   UNL     1       6.400  -3.013  -7.350  0.00  0.00    +0.002 A 
ATOM     32  C   UNL     1       6.673  -2.714  -6.034  0.00  0.00    +0.028 A 
ATOM     33  C   UNL     1       5.981  -3.374  -5.017  0.00  0.00    +0.078 A 
ATOM     34  C   UNL     1       5.008  -4.341  -5.356  0.00  0.00    +0.065 A 
ATOM     35  C   UNL     1       4.747  -4.629  -6.694  0.00  0.00    +0.015 A 
ATOM     36  C   UNL     1       4.297  -5.018  -4.261  0.00  0.00    +0.259 A 
ATOM     37  O   UNL     1       3.447  -5.860  -4.485  0.00  0.00    -0.267 OA
ATOM     38  N   UNL     1       4.623  -4.667  -2.995  0.00  0.00    -0.309 N 
ATOM     39  H   UNL     1       4.175  -5.093  -2.248  0.00  0.00    +0.170 HD
ATOM     40  C   UNL     1       5.574  -3.725  -2.762  0.00  0.00    +0.128 A 
ATOM     41  N   UNL     1       6.218  -3.111  -3.708  0.00  0.00    -0.232 NA
ENDBRANCH  29  40
ENDBRANCH  25  29
ENDBRANCH   1  26
TORSDOF 4
