REMARK  Name = ZINC20693763
REMARK  7 active torsions:
REMARK  status: ('A' for Active; 'I' for Inactive)
REMARK    1  A    between atoms: C_1  and  O_2
REMARK    2  A    between atoms: O_2  and  C_3
REMARK    3  A    between atoms: C_7  and  C_10
REMARK    4  A    between atoms: C_8  and  O_9
REMARK    5  A    between atoms: C_21  and  S_26
REMARK    6  A    between atoms: S_26  and  N_29
REMARK    7  A    between atoms: N_29  and  C_30
REMARK                            x       y       z     vdW  Elec       q    Type
REMARK                         _______ _______ _______ _____ _____    ______ ____
ROOT
ATOM      1  C   UNL     1      -0.708   1.639  -1.256  0.00  0.00    +0.109 C 
ATOM      2  C   UNL     1       0.015   1.070  -0.048  0.00  0.00    +0.029 C 
ATOM      3  C   UNL     1      -0.366   1.608   1.338  0.00  0.00    +0.033 C 
ATOM      4  C   UNL     1       0.944   1.430   2.109  0.00  0.00    -0.030 C 
ATOM      5  C   UNL     1       1.971   1.444   1.268  0.00  0.00    -0.023 C 
ATOM      6  C   UNL     1       1.455   1.663  -0.108  0.00  0.00    +0.049 C 
ATOM      7  C   UNL     1       2.137   1.085  -1.286  0.00  0.00    -0.018 A 
ATOM      8  C   UNL     1       3.484   0.794  -1.292  0.00  0.00    +0.034 A 
ATOM      9  C   UNL     1       4.078   0.268  -2.424  0.00  0.00    +0.106 A 
ATOM     10  C   UNL     1       3.321   0.032  -3.557  0.00  0.00    +0.030 A 
ATOM     11  C   UNL     1       1.970   0.315  -3.558  0.00  0.00    +0.025 A 
ATOM     12  C   UNL     1       1.361   0.836  -2.424  0.00  0.00    +0.031 A 
ATOM     13  N   UNL     1      -0.018   1.079  -2.436  0.00  0.00    -0.336 N 
ATOM     14  H   UNL     1      -0.588   0.845  -3.347  0.00  0.00    +0.147 HD
ENDROOT
BRANCH   1  19
ATOM     15  C   UNL     1      -1.444   5.290  -0.579  0.00  0.00    +0.162 A 
ATOM     16  C   UNL     1      -0.418   5.907  -1.276  0.00  0.00    +0.049 A 
ATOM     17  C   UNL     1       0.508   5.144  -1.962  0.00  0.00    +0.004 A 
ATOM     18  C   UNL     1       0.413   3.765  -1.955  0.00  0.00    +0.009 A 
ATOM     19  C   UNL     1      -0.608   3.143  -1.261  0.00  0.00    +0.018 A 
ATOM     20  C   UNL     1      -1.542   3.902  -0.576  0.00  0.00    +0.163 A 
BRANCH  15  22
ATOM     21  C   UNL     1      -2.197   7.458   0.044  0.00  0.00    +0.277 C 
ATOM     22  O   UNL     1      -2.357   6.039   0.097  0.00  0.00    -0.491 OA
ENDBRANCH  15  22
BRANCH  20  23
ATOM     23  O   UNL     1      -2.551   3.291   0.103  0.00  0.00    -0.503 OA
ATOM     24  H   UNL     1      -2.627   2.194   0.104  0.00  0.00    +0.292 HD
ENDBRANCH  20  23
ENDBRANCH   1  19
BRANCH   9  25
ATOM     25  S   UNL     1       5.801  -0.103  -2.424  0.00  0.00    +0.059 S 
ATOM     26  O   UNL     1       6.223  -0.075  -3.780  0.00  0.00    -0.153 OA
ATOM     27  O   UNL     1       6.392   0.717  -1.425  0.00  0.00    -0.153 OA
BRANCH  25  28
ATOM     28  N   UNL     1       5.965  -1.669  -1.909  0.00  0.00    -0.187 NA
ATOM     29  H   UNL     1       6.329  -1.864  -0.889  0.00  0.00    +0.148 HD
BRANCH  28  30
ATOM     30  C   UNL     1       5.427  -2.765  -2.717  0.00  0.00    +0.077 C 
ATOM     31  C   UNL     1       4.029  -3.131  -2.214  0.00  0.00    +0.020 C 
ATOM     32  C   UNL     1       3.467  -4.277  -3.058  0.00  0.00    +0.002 C 
ATOM     33  C   UNL     1       4.386  -5.495  -2.942  0.00  0.00    +0.000 C 
ATOM     34  C   UNL     1       5.784  -5.129  -3.445  0.00  0.00    +0.002 C 
ATOM     35  C   UNL     1       6.346  -3.983  -2.600  0.00  0.00    +0.020 C 
ENDBRANCH  28  30
ENDBRANCH  25  28
ENDBRANCH   9  25
TORSDOF 6
