REMARK  Name = ZINC65461226
REMARK  7 active torsions:
REMARK  status: ('A' for Active; 'I' for Inactive)
REMARK    1  A    between atoms: C_1  and  C_2
REMARK    2  A    between atoms: C_2  and  C_4
REMARK    3  A    between atoms: C_2  and  N_15
REMARK    4  A    between atoms: C_9  and  N_10
REMARK    5  A    between atoms: N_15  and  C_16
REMARK    6  A    between atoms: C_16  and  C_17
REMARK    7  A    between atoms: C_19  and  C_22
REMARK                            x       y       z     vdW  Elec       q    Type
REMARK                         _______ _______ _______ _____ _____    ______ ____
ROOT
ATOM      1  N   UNL     1       0.690  -0.478  -1.207  0.00  0.00    +0.389 N 
ATOM      2  H   UNL     1       0.632  -1.484  -1.254  0.00  0.00    -0.084 HD
ATOM      3  H   UNL     1       0.251  -0.077  -2.022  0.00  0.00    -0.084 HD
ENDROOT
BRANCH   1   5
ATOM      4  C   UNL     1      -0.019   1.526   0.010  0.00  0.00    -0.009 C 
ATOM      5  C   UNL     1       0.002  -0.004   0.002  0.00  0.00    -0.041 C 
BRANCH   5   6
ATOM      6  C   UNL     1      -1.412  -0.526   0.013  0.00  0.00    -0.036 A 
ATOM      7  C   UNL     1      -1.998  -0.959  -1.161  0.00  0.00    +0.004 A 
ATOM      8  C   UNL     1      -3.295  -1.437  -1.152  0.00  0.00    +0.000 A 
ATOM      9  C   UNL     1      -4.009  -1.484   0.031  0.00  0.00    +0.002 A 
ATOM     10  C   UNL     1      -3.429  -1.052   1.208  0.00  0.00    +0.028 A 
ATOM     11  C   UNL     1      -2.124  -0.577   1.203  0.00  0.00    +0.067 A 
BRANCH  11  12
ATOM     12  N   UNL     1      -1.530  -0.143   2.396  0.00  0.00    -0.240 N 
ATOM     13  C   UNL     1      -2.108  -0.144   3.619  0.00  0.00    +0.114 A 
ATOM     14  C   UNL     1      -1.207   0.348   4.500  0.00  0.00    +0.041 A 
ATOM     15  C   UNL     1      -0.041   0.661   3.794  0.00  0.00    +0.135 A 
ATOM     16  N   UNL     1      -0.231   0.362   2.535  0.00  0.00    -0.175 NA
ENDBRANCH  11  12
ENDBRANCH   5   6
ENDBRANCH   1   5
BRANCH   1  17
ATOM     17  C   UNL     1       2.100  -0.070  -1.159  0.00  0.00    +0.019 C 
BRANCH  17  18
ATOM     18  C   UNL     1       2.806  -0.556  -2.399  0.00  0.00    +0.211 A 
ATOM     19  N   UNL     1       2.922   0.103  -3.515  0.00  0.00    -0.190 NA
ATOM     20  C   UNL     1       3.612  -0.626  -4.412  0.00  0.00    +0.237 A 
ATOM     21  N   UNL     1       3.940  -1.770  -3.857  0.00  0.00    -0.053 NA
ATOM     22  O   UNL     1       3.423  -1.737  -2.535  0.00  0.00    -0.340 OA
BRANCH  20  23
ATOM     23  C   UNL     1       3.943  -0.210  -5.791  0.00  0.00    +0.175 A 
ATOM     24  C   UNL     1       4.635  -0.946  -6.702  0.00  0.00    +0.053 A 
ATOM     25  C   UNL     1       4.717  -0.168  -7.873  0.00  0.00    +0.042 A 
ATOM     26  C   UNL     1       4.078   0.992  -7.622  0.00  0.00    +0.196 A 
ATOM     27  O   UNL     1       3.608   0.961  -6.365  0.00  0.00    -0.460 OA
ENDBRANCH  20  23
ENDBRANCH  17  18
ENDBRANCH   1  17
TORSDOF 6
