REMARK  Name = ZINC21494139
REMARK  10 active torsions:
REMARK  status: ('A' for Active; 'I' for Inactive)
REMARK    1  A    between atoms: C_1  and  C_2
REMARK    2  A    between atoms: C_2  and  C_3
REMARK    3  A    between atoms: C_2  and  N_4
REMARK    4  A    between atoms: N_7  and  C_8
REMARK    5  A    between atoms: C_8  and  C_9
REMARK    6  A    between atoms: C_12  and  C_15
REMARK    7  A    between atoms: C_15  and  O_17
REMARK    8  A    between atoms: O_17  and  C_18
REMARK    9  A    between atoms: C_18  and  C_20
REMARK   10  A    between atoms: C_18  and  C_26
REMARK                            x       y       z     vdW  Elec       q    Type
REMARK                         _______ _______ _______ _____ _____    ______ ____
ROOT
ATOM      1  C   UNL     1      -2.422   0.686   0.017  0.00  0.00    -0.030 A 
ATOM      2  C   UNL     1      -2.948   0.242  -1.183  0.00  0.00    +0.006 A 
ATOM      3  C   UNL     1      -3.981  -0.672  -1.190  0.00  0.00    +0.015 A 
ATOM      4  C   UNL     1      -4.502  -1.142   0.017  0.00  0.00    +0.059 A 
ATOM      5  C   UNL     1      -3.969  -0.685   1.225  0.00  0.00    +0.015 A 
ATOM      6  C   UNL     1      -2.933   0.225   1.217  0.00  0.00    +0.006 A 
ENDROOT
BRANCH   4   7
ATOM      7  C   UNL     1      -5.611  -2.117   0.017  0.00  0.00    +0.340 C 
ATOM      8  O   UNL     1      -6.062  -2.524   1.069  0.00  0.00    -0.245 OA
BRANCH   7   9
ATOM      9  O   UNL     1      -6.123  -2.556  -1.149  0.00  0.00    -0.444 OA
BRANCH   9  10
ATOM     10  C   UNL     1      -7.211  -3.514  -1.073  0.00  0.00    +0.292 C 
BRANCH  10  11
ATOM     11  C   UNL     1      -7.173  -4.414  -2.281  0.00  0.00    +0.002 A 
ATOM     12  C   UNL     1      -6.780  -3.910  -3.507  0.00  0.00    +0.008 A 
ATOM     13  C   UNL     1      -6.741  -4.737  -4.614  0.00  0.00    +0.000 A 
ATOM     14  C   UNL     1      -7.104  -6.066  -4.497  0.00  0.00    +0.000 A 
ATOM     15  C   UNL     1      -7.501  -6.569  -3.272  0.00  0.00    +0.000 A 
ATOM     16  C   UNL     1      -7.536  -5.743  -2.164  0.00  0.00    +0.008 A 
ENDBRANCH  10  11
BRANCH  10  17
ATOM     17  C   UNL     1      -8.526  -2.778  -1.037  0.00  0.00    +0.256 C 
ATOM     18  O   UNL     1      -8.550  -1.572  -1.162  0.00  0.00    -0.272 OA
ATOM     19  N   UNL     1      -9.675  -3.460  -0.864  0.00  0.00    -0.326 N 
ATOM     20  H   UNL     1     -10.635  -2.923  -0.837  0.00  0.00    +0.145 HD
ATOM     21  H   UNL     1      -9.654  -4.554  -0.750  0.00  0.00    +0.145 HD
ENDBRANCH  10  17
ENDBRANCH   9  10
ENDBRANCH   7   9
ENDBRANCH   4   7
BRANCH   1  22
ATOM     22  C   UNL     1      -1.290   1.681   0.017  0.00  0.00    +0.141 C 
BRANCH  22  26
ATOM     23  N   UNL     1       2.323   0.998  -0.015  0.00  0.00    -0.297 N 
ATOM     24  C   UNL     1       1.147   1.655   0.000  0.00  0.00    +0.300 C 
ATOM     25  O   UNL     1       1.130   2.871   0.007  0.00  0.00    -0.253 OA
ATOM     26  N   UNL     1      -0.011   0.966   0.007  0.00  0.00    -0.295 N 
ATOM     27  H   UNL     1       2.338  -0.102  -0.021  0.00  0.00    +0.150 HD
ATOM     28  H   UNL     1       0.004  -0.134   0.006  0.00  0.00    +0.151 HD
BRANCH  23  30
ATOM     29  C   UNL     1       4.694   0.882   0.572  0.00  0.00    +0.027 C 
ATOM     30  C   UNL     1       3.582   1.747  -0.023  0.00  0.00    +0.068 C 
ATOM     31  C   UNL     1       3.942   2.124  -1.461  0.00  0.00    +0.027 C 
ENDBRANCH  23  30
ENDBRANCH  22  26
ENDBRANCH   1  22
TORSDOF 8
