REMARK  Name = ZINC33014947
REMARK  11 active torsions:
REMARK  status: ('A' for Active; 'I' for Inactive)
REMARK    1  A    between atoms: C_4  and  O_7
REMARK    2  A    between atoms: O_7  and  C_8
REMARK    3  A    between atoms: C_11  and  O_14
REMARK    4  A    between atoms: O_14  and  C_15
REMARK    5  A    between atoms: C_15  and  C_16
REMARK    6  A    between atoms: C_16  and  C_18
REMARK    7  A    between atoms: C_16  and  O_32
REMARK    8  A    between atoms: C_18  and  N_19
REMARK    9  A    between atoms: N_28  and  C_29
REMARK   10  A    between atoms: C_29  and  C_30
REMARK   11  A    between atoms: C_30  and  O_31
REMARK                            x       y       z     vdW  Elec       q    Type
REMARK                         _______ _______ _______ _____ _____    ______ ____
ROOT
ATOM      1  C   UNL     1       4.048   3.836  -1.575  0.00  0.00    +0.172 C 
ENDROOT
BRANCH   1   2
ATOM      2  O   UNL     1       3.842   5.067  -2.271  0.00  0.00    -0.387 OA
ATOM      3  H   UNL     1       2.827   5.476  -2.378  0.00  0.00    +0.210 HD
ENDBRANCH   1   2
BRANCH   1   4
ATOM      4  C   UNL     1       5.539   3.495  -1.571  0.00  0.00    +0.262 C 
BRANCH   4   5
ATOM      5  O   UNL     1       5.976   3.250  -2.909  0.00  0.00    -0.489 OA
BRANCH   5   9
ATOM      6  C   UNL     1       9.954   2.283  -3.435  0.00  0.00    +0.129 A 
ATOM      7  C   UNL     1       9.108   2.357  -4.531  0.00  0.00    +0.050 A 
ATOM      8  C   UNL     1       7.777   2.681  -4.356  0.00  0.00    +0.049 A 
ATOM      9  C   UNL     1       7.286   2.932  -3.082  0.00  0.00    +0.121 A 
ATOM     10  C   UNL     1       8.134   2.863  -1.987  0.00  0.00    +0.049 A 
ATOM     11  C   UNL     1       9.464   2.533  -2.162  0.00  0.00    +0.050 A 
BRANCH   6  12
ATOM     12  O   UNL     1      11.264   1.963  -3.608  0.00  0.00    -0.456 OA
BRANCH  12  16
ATOM     13  C   UNL     1      13.672   4.666  -5.588  0.00  0.00    +0.000 A 
ATOM     14  C   UNL     1      14.171   3.425  -5.236  0.00  0.00    +0.004 A 
ATOM     15  C   UNL     1      13.367   2.518  -4.572  0.00  0.00    +0.046 A 
ATOM     16  C   UNL     1      12.057   2.853  -4.260  0.00  0.00    +0.128 A 
ATOM     17  C   UNL     1      11.557   4.096  -4.620  0.00  0.00    +0.046 A 
ATOM     18  C   UNL     1      12.367   5.002  -5.278  0.00  0.00    +0.004 A 
ENDBRANCH  12  16
ENDBRANCH   6  12
ENDBRANCH   5   9
ENDBRANCH   4   5
ENDBRANCH   1   4
BRANCH   1  19
ATOM     19  C   UNL     1       3.552   3.976  -0.135  0.00  0.00    +0.159 C 
BRANCH  19  20
ATOM     20  N   UNL     1       2.102   4.184  -0.135  0.00  0.00    -0.311 N 
ATOM     21  C   UNL     1       1.130   3.198  -0.082  0.00  0.00    +0.068 A 
ATOM     22  C   UNL     1       1.169   1.813  -0.017  0.00  0.00    +0.028 A 
ATOM     23  C   UNL     1      -0.009   1.095   0.024  0.00  0.00    +0.002 A 
ATOM     24  C   UNL     1      -1.232   1.749  -0.004  0.00  0.00    +0.002 A 
ATOM     25  C   UNL     1      -1.288   3.123  -0.063  0.00  0.00    +0.028 A 
ATOM     26  C   UNL     1      -0.105   3.865  -0.106  0.00  0.00    +0.065 A 
ATOM     27  N   UNL     1       0.160   5.197  -0.170  0.00  0.00    -0.327 N 
ATOM     28  C   UNL     1       1.456   5.386  -0.187  0.00  0.00    +0.174 A 
ATOM     29  N   UNL     1       2.076   6.617  -0.249  0.00  0.00    -0.314 N 
ATOM     30  H   UNL     1       3.174   6.679  -0.258  0.00  0.00    +0.149 HD
ATOM     31  H   UNL     1      -0.667   5.921  -0.199  0.00  0.00    +0.169 HD
BRANCH  29  32
ATOM     32  C   UNL     1       1.272   7.840  -0.301  0.00  0.00    +0.132 C 
BRANCH  32  33
ATOM     33  C   UNL     1       2.198   9.056  -0.363  0.00  0.00    +0.174 C 
BRANCH  33  34
ATOM     34  O   UNL     1       2.932   9.034  -1.589  0.00  0.00    -0.393 OA
ATOM     35  H   UNL     1       3.653   9.834  -1.813  0.00  0.00    +0.209 HD
ENDBRANCH  33  34
ENDBRANCH  32  33
ENDBRANCH  29  32
ENDBRANCH  19  20
ENDBRANCH   1  19
TORSDOF 11
