REMARK  Name = ZINC25493914
REMARK  5 active torsions:
REMARK  status: ('A' for Active; 'I' for Inactive)
REMARK    1  A    between atoms: C_4  and  N_7
REMARK    2  A    between atoms: N_7  and  C_8
REMARK    3  A    between atoms: N_16  and  C_17
REMARK    4  A    between atoms: C_17  and  C_19
REMARK    5  A    between atoms: C_17  and  O_23
REMARK                            x       y       z     vdW  Elec       q    Type
REMARK                         _______ _______ _______ _____ _____    ______ ____
ROOT
ATOM      1  N   UNL     1      -0.086   5.213   0.015  0.00  0.00    -0.224 N 
ATOM      2  C   UNL     1       1.117   5.817   0.072  0.00  0.00    +0.313 C 
ATOM      3  O   UNL     1       1.186   7.029   0.143  0.00  0.00    -0.252 OA
ATOM      4  N   UNL     1       2.244   5.078   0.049  0.00  0.00    -0.270 N 
ATOM      5  H   UNL     1       2.182   3.980   0.074  0.00  0.00    +0.153 HD
ENDROOT
BRANCH   1   9
ATOM      6  C   UNL     1      -0.332   1.053   0.017  0.00  0.00    +0.000 A 
ATOM      7  C   UNL     1      -0.820   1.774   1.091  0.00  0.00    +0.002 A 
ATOM      8  C   UNL     1      -0.736   3.152   1.096  0.00  0.00    +0.024 A 
ATOM      9  C   UNL     1      -0.169   3.815   0.015  0.00  0.00    +0.043 A 
ATOM     10  C   UNL     1       0.316   3.089  -1.064  0.00  0.00    +0.024 A 
ATOM     11  C   UNL     1       0.234   1.711  -1.061  0.00  0.00    +0.002 A 
ENDBRANCH   1   9
BRANCH   1  12
ATOM     12  C   UNL     1      -1.254   5.984  -0.045  0.00  0.00    +0.043 A 
ATOM     13  C   UNL     1      -1.530   6.907   0.955  0.00  0.00    +0.024 A 
ATOM     14  C   UNL     1      -2.681   7.669   0.891  0.00  0.00    +0.002 A 
ATOM     15  C   UNL     1      -3.562   7.505  -0.162  0.00  0.00    +0.000 A 
ATOM     16  C   UNL     1      -3.293   6.582  -1.156  0.00  0.00    +0.002 A 
ATOM     17  C   UNL     1      -2.142   5.822  -1.101  0.00  0.00    +0.024 A 
ENDBRANCH   1  12
BRANCH   4  18
ATOM     18  C   UNL     1       3.551   5.737  -0.008  0.00  0.00    +0.255 C 
BRANCH  18  19
ATOM     19  C   UNL     1       4.566   4.928   0.802  0.00  0.00    +0.232 C 
ATOM     20 CL   UNL     1       6.175   5.739   0.731  0.00  0.00    -0.079 Cl
ATOM     21 CL   UNL     1       4.020   4.825   2.518  0.00  0.00    -0.079 Cl
ATOM     22 CL   UNL     1       4.699   3.267   0.114  0.00  0.00    -0.079 Cl
ENDBRANCH  18  19
BRANCH  18  23
ATOM     23  O   UNL     1       3.984   5.818  -1.368  0.00  0.00    -0.370 OA
ATOM     24  H   UNL     1       4.950   6.285  -1.610  0.00  0.00    +0.212 HD
ENDBRANCH  18  23
ENDBRANCH   4  18
TORSDOF 5
