REMARK  Name = ZINC64230939
REMARK  4 active torsions:
REMARK  status: ('A' for Active; 'I' for Inactive)
REMARK    1  A    between atoms: C_4  and  C_7
REMARK    2  A    between atoms: C_9  and  C_17
REMARK    3  A    between atoms: N_18  and  N_19
REMARK    4  A    between atoms: C_20  and  C_22
REMARK                            x       y       z     vdW  Elec       q    Type
REMARK                         _______ _______ _______ _____ _____    ______ ____
ROOT
ATOM      1  C   UNL     1       3.711  -0.707  -0.038  0.00  0.00    +0.142 C 
ATOM      2  C   UNL     1       4.019  -1.190  -1.438  0.00  0.00    +0.008 C 
ATOM      3  C   UNL     1       4.095  -2.578  -1.347  0.00  0.00    +0.005 A 
ATOM      4  C   UNL     1       4.351  -3.585  -2.304  0.00  0.00    +0.010 A 
ATOM      5  C   UNL     1       4.363  -4.887  -1.925  0.00  0.00    +0.001 A 
ATOM      6  C   UNL     1       4.127  -5.266  -0.600  0.00  0.00    +0.002 A 
ATOM      7  C   UNL     1       3.875  -4.356   0.371  0.00  0.00    +0.026 A 
ATOM      8  C   UNL     1       3.846  -2.972   0.051  0.00  0.00    +0.044 A 
ATOM      9  N   UNL     1       3.628  -1.909   0.798  0.00  0.00    -0.373 N 
ATOM     10  H   UNL     1       3.443  -1.919   1.750  0.00  0.00    +0.161 HD
ENDROOT
BRANCH   1  14
ATOM     11  C   UNL     1      -0.017   1.378   0.010  0.00  0.00    +0.000 A 
ATOM     12  C   UNL     1       1.171   2.086   0.002  0.00  0.00    +0.000 A 
ATOM     13  C   UNL     1       2.377   1.411  -0.013  0.00  0.00    +0.006 A 
ATOM     14  C   UNL     1       2.396   0.029  -0.020  0.00  0.00    -0.021 A 
ATOM     15  C   UNL     1       1.208  -0.679  -0.012  0.00  0.00    +0.006 A 
ATOM     16  C   UNL     1       0.002  -0.004   0.002  0.00  0.00    +0.000 A 
ENDBRANCH   1  14
BRANCH   2  17
ATOM     17  C   UNL     1       4.192  -0.405  -2.586  0.00  0.00    +0.137 C 
ATOM     18  N   UNL     1       4.457  -0.975  -3.735  0.00  0.00    -0.188 NA
BRANCH  18  19
ATOM     19  N   UNL     1       4.629  -0.191  -4.883  0.00  0.00    -0.203 N 
ATOM     20  C   UNL     1       4.901  -0.777  -6.065  0.00  0.00    +0.263 C 
ATOM     21  O   UNL     1       4.997  -1.987  -6.136  0.00  0.00    -0.268 OA
ATOM     22  H   UNL     1       4.552   0.775  -4.827  0.00  0.00    +0.178 HD
BRANCH  20  23
ATOM     23  C   UNL     1       5.083   0.049  -7.274  0.00  0.00    +0.042 A 
ATOM     24  C   UNL     1       4.979   1.440  -7.194  0.00  0.00    +0.017 A 
ATOM     25  C   UNL     1       5.149   2.210  -8.323  0.00  0.00    +0.050 A 
ATOM     26  C   UNL     1       5.425   1.608  -9.544  0.00  0.00    +0.166 A 
ATOM     27  C   UNL     1       5.530   0.219  -9.631  0.00  0.00    +0.167 A 
ATOM     28  C   UNL     1       5.365  -0.557  -8.501  0.00  0.00    +0.062 A 
ATOM     29  O   UNL     1       5.803  -0.116 -10.926  0.00  0.00    -0.453 OA
ATOM     30  C   UNL     1       5.459   1.046 -11.704  0.00  0.00    +0.466 C 
ATOM     31  O   UNL     1       5.633   2.138 -10.783  0.00  0.00    -0.453 OA
ENDBRANCH  20  23
ENDBRANCH  18  19
ENDBRANCH   2  17
TORSDOF 4
