REMARK  Name = ZINC39666214
REMARK  10 active torsions:
REMARK  status: ('A' for Active; 'I' for Inactive)
REMARK    1  A    between atoms: C_1  and  C_2
REMARK    2  A    between atoms: C_5  and  O_8
REMARK    3  A    between atoms: O_8  and  C_9
REMARK    4  A    between atoms: C_9  and  C_11
REMARK    5  A    between atoms: C_9  and  C_12
REMARK    6  A    between atoms: C_12  and  N_13
REMARK    7  A    between atoms: C_14  and  C_16
REMARK    8  A    between atoms: C_27  and  C_29
REMARK    9  A    between atoms: C_31  and  C_38
REMARK   10  A    between atoms: C_33  and  C_34
REMARK                            x       y       z     vdW  Elec       q    Type
REMARK                         _______ _______ _______ _____ _____    ______ ____
ROOT
ATOM      1  C   UNL     1       4.608  -6.713   0.036  0.00  0.00    +0.100 C 
ATOM      2  C   UNL     1       5.592  -6.106   1.061  0.00  0.00    +0.121 C 
ATOM      3  N   UNL     1       6.137  -7.274   1.793  0.00  0.00    -0.296 N 
ATOM      4  C   UNL     1       6.321  -8.310   0.749  0.00  0.00    +0.115 C 
ATOM      5  C   UNL     1       5.092  -8.158  -0.169  0.00  0.00    -0.004 C 
ATOM      6  C   UNL     1       5.489  -8.381  -1.625  0.00  0.00    -0.010 C 
ATOM      7  C   UNL     1       5.912  -9.840  -1.817  0.00  0.00    -0.082 C 
ATOM      8  N   UNL     1       4.800 -10.726  -1.451  0.00  0.00    +0.379 N 
ATOM      9  C   UNL     1       4.485 -10.572  -0.026  0.00  0.00    -0.082 C 
ATOM     10  C   UNL     1       4.003  -9.144   0.242  0.00  0.00    -0.010 C 
ATOM     11  C   UNL     1       6.405  -7.371   3.110  0.00  0.00    +0.250 C 
ATOM     12  O   UNL     1       6.195  -6.425   3.845  0.00  0.00    -0.270 OA
ATOM     13  H   UNL     1       3.987 -10.488  -2.001  0.00  0.00    -0.086 HD
ATOM     14  H   UNL     1       5.059 -11.683  -1.636  0.00  0.00    -0.086 HD
ENDROOT
BRANCH  11  15
ATOM     15  C   UNL     1       6.954  -8.624   3.659  0.00  0.00    +0.087 A 
ATOM     16  C   UNL     1       7.449  -9.784   2.904  0.00  0.00    +0.058 A 
ATOM     17  C   UNL     1       7.847 -10.678   3.821  0.00  0.00    +0.103 A 
ATOM     18  O   UNL     1       7.642 -10.172   5.047  0.00  0.00    -0.455 OA
ATOM     19  C   UNL     1       7.114  -8.947   4.975  0.00  0.00    +0.220 A 
ATOM     20  C   UNL     1       8.432 -12.035   3.523  0.00  0.00    +0.086 C 
BRANCH  19  21
ATOM     21  C   UNL     1       6.756  -8.071   6.148  0.00  0.00    +0.451 C 
ATOM     22  F   UNL     1       5.434  -8.322   6.530  0.00  0.00    -0.163 F 
ATOM     23  F   UNL     1       7.612  -8.351   7.218  0.00  0.00    -0.163 F 
ATOM     24  F   UNL     1       6.888  -6.726   5.784  0.00  0.00    -0.163 F 
ENDBRANCH  19  21
ENDBRANCH  11  15
BRANCH   1  26
ATOM     25  N   UNL     1       2.152  -6.781  -0.252  0.00  0.00    -0.312 N 
ATOM     26  C   UNL     1       3.205  -6.703   0.586  0.00  0.00    +0.218 C 
ATOM     27  O   UNL     1       3.023  -6.624   1.782  0.00  0.00    -0.275 OA
ATOM     28  H   UNL     1       2.297  -6.844  -1.209  0.00  0.00    +0.149 HD
BRANCH  25  29
ATOM     29  C   UNL     1       0.788  -6.772   0.283  0.00  0.00    +0.148 C 
BRANCH  29  30
ATOM     30  C   UNL     1      -0.213  -6.871  -0.870  0.00  0.00    +0.187 C 
ATOM     31  C   UNL     1      -1.635  -6.735  -0.324  0.00  0.00    +0.053 C 
BRANCH  30  32
ATOM     32  O   UNL     1      -0.070  -8.137  -1.518  0.00  0.00    -0.488 OA
BRANCH  32  37
ATOM     33  C   UNL     1      -0.968  -8.282  -7.076  0.00  0.00    +0.044 C 
ATOM     34  C   UNL     1      -0.728  -8.243  -5.589  0.00  0.00    -0.050 A 
ATOM     35  C   UNL     1      -0.974  -7.082  -4.880  0.00  0.00    +0.007 A 
ATOM     36  C   UNL     1      -0.754  -7.044  -3.517  0.00  0.00    +0.046 A 
ATOM     37  C   UNL     1      -0.287  -8.172  -2.859  0.00  0.00    +0.121 A 
ATOM     38  C   UNL     1      -0.042  -9.336  -3.572  0.00  0.00    +0.046 A 
ATOM     39  C   UNL     1      -0.268  -9.371  -4.934  0.00  0.00    +0.007 A 
ENDBRANCH  32  37
ENDBRANCH  30  32
ENDBRANCH  29  30
ENDBRANCH  25  29
ENDBRANCH   1  26
TORSDOF 7
