REMARK  Name = ZINC39361489
REMARK  7 active torsions:
REMARK  status: ('A' for Active; 'I' for Inactive)
REMARK    1  A    between atoms: C_1  and  C_2
REMARK    2  A    between atoms: C_11  and  N_34
REMARK    3  A    between atoms: C_12  and  C_30
REMARK    4  A    between atoms: N_20  and  C_23
REMARK    5  A    between atoms: C_23  and  C_24
REMARK    6  A    between atoms: C_30  and  O_32
REMARK    7  A    between atoms: O_32  and  C_33
REMARK                            x       y       z     vdW  Elec       q    Type
REMARK                         _______ _______ _______ _____ _____    ______ ____
ROOT
ATOM      1  C   UNL     1      -0.017   1.563   0.275  0.00  0.00    +0.063 C 
ATOM      2  C   UNL     1       0.042   0.061   0.167  0.00  0.00    +0.034 C 
ATOM      3  N   UNL     1       0.171  -0.497  -1.017  0.00  0.00    -0.185 NA
ATOM      4  C   UNL     1       0.220  -1.810  -1.189  0.00  0.00    +0.248 C 
ATOM      5  O   UNL     1       0.366  -2.243  -2.314  0.00  0.00    -0.273 OA
ATOM      6  C   UNL     1       0.103  -2.784  -0.056  0.00  0.00    +0.167 C 
ATOM      7  C   UNL     1       0.003  -2.058   1.265  0.00  0.00    +0.122 C 
ATOM      8  C   UNL     1      -0.037  -0.715   1.327  0.00  0.00    +0.063 C 
ATOM      9  O   UNL     1      -0.038  -2.811   2.388  0.00  0.00    -0.445 OA
ATOM     10  C   UNL     1       0.776  -3.887   2.434  0.00  0.00    +0.195 C 
ATOM     11  C   UNL     1       1.437  -4.346   1.344  0.00  0.00    +0.114 C 
ATOM     12  C   UNL     1       1.341  -3.679   0.004  0.00  0.00    +0.128 C 
ATOM     13  C   UNL     1       2.581  -2.903  -0.308  0.00  0.00    -0.005 A 
ATOM     14  C   UNL     1       3.168  -1.826   0.321  0.00  0.00    +0.007 A 
ATOM     15  C   UNL     1       4.343  -1.332  -0.237  0.00  0.00    +0.000 A 
ATOM     16  C   UNL     1       4.894  -1.897  -1.369  0.00  0.00    +0.002 A 
ATOM     17  C   UNL     1       4.309  -2.979  -2.008  0.00  0.00    +0.024 A 
ATOM     18  C   UNL     1       3.129  -3.484  -1.458  0.00  0.00    +0.041 A 
ATOM     19  N   UNL     1       2.344  -4.540  -1.884  0.00  0.00    -0.266 N 
ATOM     20  C   UNL     1       1.271  -4.727  -1.087  0.00  0.00    +0.237 C 
ATOM     21  O   UNL     1       0.413  -5.575  -1.220  0.00  0.00    -0.274 OA
ENDROOT
BRANCH  10  22
ATOM     22  N   UNL     1       0.940  -4.538   3.627  0.00  0.00    -0.329 N 
ATOM     23  H   UNL     1       0.542  -4.178   4.435  0.00  0.00    +0.145 HD
ATOM     24  H   UNL     1       1.455  -5.360   3.664  0.00  0.00    +0.145 HD
ENDBRANCH  10  22
BRANCH  11  25
ATOM     25  C   UNL     1       2.246  -5.485   1.476  0.00  0.00    +0.341 C 
ATOM     26  O   UNL     1       3.455  -5.367   1.566  0.00  0.00    -0.245 OA
BRANCH  25  27
ATOM     27  O   UNL     1       1.683  -6.713   1.504  0.00  0.00    -0.465 OA
ATOM     28  C   UNL     1       2.566  -7.828   1.641  0.00  0.00    +0.280 C 
ENDBRANCH  25  27
ENDBRANCH  11  25
BRANCH  19  29
ATOM     29  C   UNL     1       2.642  -5.359  -3.062  0.00  0.00    +0.148 C 
BRANCH  29  30
ATOM     30  C   UNL     1       3.500  -6.529  -2.655  0.00  0.00    -0.030 A 
ATOM     31  C   UNL     1       4.878  -6.413  -2.668  0.00  0.00    +0.005 A 
ATOM     32  C   UNL     1       5.665  -7.487  -2.295  0.00  0.00    +0.000 A 
ATOM     33  C   UNL     1       5.075  -8.676  -1.910  0.00  0.00    +0.000 A 
ATOM     34  C   UNL     1       3.698  -8.792  -1.897  0.00  0.00    +0.000 A 
ATOM     35  C   UNL     1       2.910  -7.717  -2.265  0.00  0.00    +0.005 A 
ENDBRANCH  29  30
ENDBRANCH  19  29
TORSDOF 5
