REMARK  Name = ZINC23215730
REMARK  5 active torsions:
REMARK  status: ('A' for Active; 'I' for Inactive)
REMARK    1  A    between atoms: C_1  and  C_2
REMARK    2  A    between atoms: C_5  and  C_9
REMARK    3  A    between atoms: C_6  and  C_8
REMARK    4  A    between atoms: N_13  and  C_17
REMARK    5  A    between atoms: C_21  and  C_23
REMARK                            x       y       z     vdW  Elec       q    Type
REMARK                         _______ _______ _______ _____ _____    ______ ____
ROOT
ATOM      1  C   UNL     1       2.010   8.300   0.207  0.00  0.00    +0.028 C 
ATOM      2  C   UNL     1       1.016   7.377   0.205  0.00  0.00    +0.078 C 
ATOM      3  C   UNL     1       1.085   5.917  -0.014  0.00  0.00    +0.263 C 
ATOM      4  O   UNL     1       2.141   5.353  -0.234  0.00  0.00    -0.269 OA
ATOM      5  N   UNL     1      -0.058   5.255   0.041  0.00  0.00    -0.224 N 
ATOM      6  C   UNL     1      -1.226   5.885   0.280  0.00  0.00    +0.125 C 
ATOM      7  S   UNL     1      -2.796   5.210   0.381  0.00  0.00    -0.027 S 
ATOM      8  S   UNL     1      -0.740   7.593   0.466  0.00  0.00    -0.061 S 
ENDROOT
BRANCH   1  13
ATOM      9  C   UNL     1       0.739  13.893   0.575  0.00  0.00    +0.044 C 
ATOM     10  C   UNL     1       1.072  12.426   0.478  0.00  0.00    -0.050 A 
ATOM     11  C   UNL     1       0.173  11.553  -0.109  0.00  0.00    +0.004 A 
ATOM     12  C   UNL     1       0.470  10.210  -0.201  0.00  0.00    +0.008 A 
ATOM     13  C   UNL     1       1.685   9.730   0.301  0.00  0.00    -0.021 A 
ATOM     14  C   UNL     1       2.586  10.618   0.898  0.00  0.00    -0.043 A 
ATOM     15  C   UNL     1       2.276  11.960   0.978  0.00  0.00    +0.007 A 
ATOM     16  C   UNL     1       3.894  10.112   1.448  0.00  0.00    +0.044 C 
ENDBRANCH   1  13
BRANCH   5  17
ATOM     17  C   UNL     1      -0.057   3.868  -0.158  0.00  0.00    +0.043 A 
ATOM     18  C   UNL     1      -0.338   3.013   0.902  0.00  0.00    +0.024 A 
ATOM     19  C   UNL     1      -0.338   1.644   0.711  0.00  0.00    +0.003 A 
ATOM     20  C   UNL     1      -0.059   1.116  -0.534  0.00  0.00    +0.015 A 
ATOM     21  C   UNL     1       0.230   1.966  -1.603  0.00  0.00    +0.065 A 
ATOM     22  C   UNL     1       0.224   3.348  -1.411  0.00  0.00    +0.039 A 
BRANCH  21  23
ATOM     23  C   UNL     1       0.535   1.404  -2.935  0.00  0.00    +0.387 C 
ATOM     24  O   UNL     1       0.785   2.145  -3.864  0.00  0.00    -0.241 OA
ATOM     25  O   UNL     1       0.534   0.069  -3.119  0.00  0.00    -0.241 OA
ENDBRANCH  21  23
ENDBRANCH   5  17
TORSDOF 3
