REMARK  Name = ZINC64921579
REMARK  7 active torsions:
REMARK  status: ('A' for Active; 'I' for Inactive)
REMARK    1  A    between atoms: C_1  and  C_2
REMARK    2  A    between atoms: C_5  and  C_8
REMARK    3  A    between atoms: C_8  and  N_9
REMARK    4  A    between atoms: C_10  and  C_12
REMARK    5  A    between atoms: N_15  and  S_18
REMARK    6  A    between atoms: S_18  and  C_21
REMARK    7  A    between atoms: C_30  and  C_33
REMARK                            x       y       z     vdW  Elec       q    Type
REMARK                         _______ _______ _______ _____ _____    ______ ____
ROOT
ATOM      1  C   UNL     1       3.137  -6.551  -0.051  0.00  0.00    +0.077 C 
ATOM      2  C   UNL     1       3.845  -6.024  -1.301  0.00  0.00    +0.030 C 
ATOM      3  C   UNL     1       5.305  -6.489  -1.291  0.00  0.00    +0.110 C 
ATOM      4  N   UNL     1       5.334  -7.951  -1.153  0.00  0.00    -0.177 NA
ATOM      5  C   UNL     1       4.609  -8.570  -0.035  0.00  0.00    +0.110 C 
ATOM      6  C   UNL     1       3.157  -8.082  -0.059  0.00  0.00    +0.030 C 
ENDROOT
BRANCH   1   8
ATOM      7  N   UNL     1       1.447  -4.746  -0.032  0.00  0.00    -0.311 N 
ATOM      8  C   UNL     1       1.710  -6.067  -0.040  0.00  0.00    +0.216 C 
ATOM      9  O   UNL     1       0.799  -6.867  -0.040  0.00  0.00    -0.276 OA
ATOM     10  H   UNL     1       2.176  -4.106  -0.032  0.00  0.00    +0.149 HD
BRANCH   7  11
ATOM     11  C   UNL     1       0.059  -4.275  -0.021  0.00  0.00    +0.139 C 
BRANCH  11  16
ATOM     12  C   UNL     1      -0.018   1.503   0.010  0.00  0.00    +0.044 C 
ATOM     13  C   UNL     1       0.002  -0.004   0.002  0.00  0.00    -0.050 A 
ATOM     14  C   UNL     1       0.006  -0.689  -1.199  0.00  0.00    +0.003 A 
ATOM     15  C   UNL     1       0.025  -2.071  -1.206  0.00  0.00    +0.005 A 
ATOM     16  C   UNL     1       0.040  -2.768  -0.013  0.00  0.00    -0.030 A 
ATOM     17  C   UNL     1       0.037  -2.084   1.188  0.00  0.00    +0.005 A 
ATOM     18  C   UNL     1       0.023  -0.702   1.195  0.00  0.00    +0.003 A 
ENDBRANCH  11  16
ENDBRANCH   7  11
ENDBRANCH   1   8
BRANCH   4  19
ATOM     19  S   UNL     1       6.169  -8.884  -2.236  0.00  0.00    +0.061 S 
ATOM     20  O   UNL     1       5.580 -10.177  -2.198  0.00  0.00    -0.153 OA
ATOM     21  O   UNL     1       6.266  -8.127  -3.435  0.00  0.00    -0.153 OA
BRANCH  19  22
ATOM     22  C   UNL     1       7.810  -9.060  -1.618  0.00  0.00    +0.107 A 
ATOM     23  C   UNL     1       8.780  -8.138  -1.966  0.00  0.00    +0.032 A 
ATOM     24  C   UNL     1      10.070  -8.268  -1.485  0.00  0.00    +0.049 A 
ATOM     25  C   UNL     1      10.391  -9.325  -0.650  0.00  0.00    +0.143 A 
ATOM     26  C   UNL     1       9.413 -10.254  -0.299  0.00  0.00    +0.078 A 
ATOM     27  C   UNL     1       8.122 -10.115  -0.780  0.00  0.00    +0.055 A 
ATOM     28  N   UNL     1       9.752 -11.321   0.545  0.00  0.00    -0.279 N 
ATOM     29  C   UNL     1      10.905 -11.260   1.246  0.00  0.00    +0.258 C 
ATOM     30  O   UNL     1      11.235 -12.185   1.958  0.00  0.00    -0.271 OA
ATOM     31  C   UNL     1      11.782 -10.038   1.139  0.00  0.00    +0.256 C 
ATOM     32  O   UNL     1      11.654  -9.468  -0.167  0.00  0.00    -0.478 OA
ATOM     33  C   UNL     1      13.240 -10.434   1.380  0.00  0.00    +0.062 C 
ATOM     34  H   UNL     1       9.167 -12.091   0.625  0.00  0.00    +0.155 HD
ENDBRANCH  19  22
ENDBRANCH   4  19
TORSDOF 5
