REMARK  Name = ZINC39529820
REMARK  7 active torsions:
REMARK  status: ('A' for Active; 'I' for Inactive)
REMARK    1  A    between atoms: C_4  and  C_7
REMARK    2  A    between atoms: C_9  and  S_27
REMARK    3  A    between atoms: C_12  and  N_13
REMARK    4  A    between atoms: C_17  and  C_20
REMARK    5  A    between atoms: C_25  and  O_26
REMARK    6  A    between atoms: S_27  and  O_30
REMARK    7  A    between atoms: O_30  and  C_31
REMARK                            x       y       z     vdW  Elec       q    Type
REMARK                         _______ _______ _______ _____ _____    ______ ____
ROOT
ATOM      1  C   UNL     1       3.712  -0.664  -0.018  0.00  0.00    +0.005 A 
ATOM      2  C   UNL     1       4.652  -0.392  -1.009  0.00  0.00    +0.041 A 
ATOM      3  C   UNL     1       5.843  -1.089  -1.040  0.00  0.00    +0.129 A 
ATOM      4  C   UNL     1       6.108  -2.059  -0.089  0.00  0.00    +0.032 A 
ATOM      5  C   UNL     1       5.184  -2.339   0.899  0.00  0.00    +0.026 A 
ATOM      6  C   UNL     1       3.985  -1.642   0.946  0.00  0.00    +0.037 A 
ENDROOT
BRANCH   6   7
ATOM      7  N   UNL     1       3.053  -1.919   1.946  0.00  0.00    -0.332 N 
ATOM      8  C   UNL     1       2.986  -1.099   3.166  0.00  0.00    +0.086 C 
ATOM      9  C   UNL     1       3.004  -2.033   4.380  0.00  0.00    -0.063 C 
ATOM     10  N   UNL     1       1.924  -3.020   4.253  0.00  0.00    +0.386 N 
ATOM     11  C   UNL     1       2.168  -3.881   3.089  0.00  0.00    -0.020 C 
ATOM     12  C   UNL     1       2.105  -3.035   1.808  0.00  0.00    +0.094 C 
ATOM     13  H   UNL     1       1.888  -3.587   5.087  0.00  0.00    -0.085 HD
ATOM     14  H   UNL     1       1.044  -2.541   4.137  0.00  0.00    -0.085 HD
BRANCH  11  15
ATOM     15  C   UNL     1       1.115  -4.958   3.031  0.00  0.00    -0.018 A 
ATOM     16  C   UNL     1      -0.121  -4.748   3.613  0.00  0.00    +0.005 A 
ATOM     17  C   UNL     1      -1.087  -5.735   3.560  0.00  0.00    +0.000 A 
ATOM     18  C   UNL     1      -0.820  -6.934   2.925  0.00  0.00    +0.004 A 
ATOM     19  C   UNL     1       0.413  -7.148   2.341  0.00  0.00    +0.045 A 
ATOM     20  C   UNL     1       1.383  -6.157   2.388  0.00  0.00    +0.118 A 
BRANCH  20  21
ATOM     21  O   UNL     1       2.595  -6.363   1.810  0.00  0.00    -0.507 OA
ATOM     22  H   UNL     1       3.250  -6.761   2.400  0.00  0.00    +0.292 HD
ENDBRANCH  20  21
ENDBRANCH  11  15
ENDBRANCH   6   7
BRANCH   1  26
ATOM     23  C   UNL     1       0.040   1.476   0.090  0.00  0.00    +0.000 A 
ATOM     24  C   UNL     1       1.240   2.164   0.121  0.00  0.00    +0.001 A 
ATOM     25  C   UNL     1       2.435   1.475   0.087  0.00  0.00    +0.008 A 
ATOM     26  C   UNL     1       2.431   0.082   0.020  0.00  0.00    -0.016 A 
ATOM     27  C   UNL     1       1.220  -0.606  -0.012  0.00  0.00    +0.008 A 
ATOM     28  C   UNL     1       0.031   0.095   0.023  0.00  0.00    +0.001 A 
ENDBRANCH   1  26
BRANCH   3  29
ATOM     29  S   UNL     1       7.030  -0.742  -2.295  0.00  0.00    +0.151 S 
ATOM     30  O   UNL     1       7.830  -1.909  -2.431  0.00  0.00    -0.131 OA
ATOM     31  O   UNL     1       6.315  -0.177  -3.385  0.00  0.00    -0.131 OA
BRANCH  29  32
ATOM     32  O   UNL     1       7.944   0.351  -1.760  0.00  0.00    -0.342 OA
BRANCH  32  33
ATOM     33  C   UNL     1       8.838  -0.080  -0.832  0.00  0.00    +0.157 A 
ATOM     34  C   UNL     1       8.501  -0.071   0.514  0.00  0.00    +0.048 A 
ATOM     35  C   UNL     1       9.412  -0.510   1.455  0.00  0.00    +0.004 A 
ATOM     36  C   UNL     1      10.658  -0.959   1.057  0.00  0.00    +0.000 A 
ATOM     37  C   UNL     1      10.995  -0.969  -0.283  0.00  0.00    +0.004 A 
ATOM     38  C   UNL     1      10.086  -0.536  -1.229  0.00  0.00    +0.048 A 
ENDBRANCH  32  33
ENDBRANCH  29  32
ENDBRANCH   3  29
TORSDOF 7
