REMARK  Name = ZINC01119572
REMARK  7 active torsions:
REMARK  status: ('A' for Active; 'I' for Inactive)
REMARK    1  A    between atoms: C_1  and  O_2
REMARK    2  A    between atoms: O_2  and  C_3
REMARK    3  A    between atoms: C_5  and  C_11
REMARK    4  A    between atoms: C_8  and  O_9
REMARK    5  A    between atoms: C_13  and  C_25
REMARK    6  A    between atoms: C_14  and  C_19
REMARK    7  A    between atoms: C_25  and  C_27
REMARK                            x       y       z     vdW  Elec       q    Type
REMARK                         _______ _______ _______ _____ _____    ______ ____
ROOT
ATOM      1  C   UNL     1       2.928  -3.198  -0.202  0.00  0.00    +0.140 C 
ATOM      2  C   UNL     1       3.085  -3.467   1.281  0.00  0.00    +0.046 C 
ATOM      3  C   UNL     1       3.945  -2.668   1.983  0.00  0.00    +0.049 C 
ATOM      4  N   UNL     1       4.635  -1.660   1.356  0.00  0.00    -0.296 N 
ATOM      5  C   UNL     1       4.525  -1.389   0.050  0.00  0.00    +0.135 C 
ATOM      6  S   UNL     1       5.444  -0.102  -0.606  0.00  0.00    -0.019 S 
ATOM      7  N   UNL     1       3.718  -2.091  -0.768  0.00  0.00    -0.315 N 
ATOM      8  H   UNL     1       5.235  -1.115   1.889  0.00  0.00    +0.154 HD
ATOM      9  H   UNL     1       3.658  -1.873  -1.711  0.00  0.00    +0.149 HD
ENDROOT
BRANCH   1  12
ATOM     10  C   UNL     1      -0.327  -1.349  -0.709  0.00  0.00    +0.162 A 
ATOM     11  C   UNL     1       1.012  -1.611  -0.468  0.00  0.00    +0.056 A 
ATOM     12  C   UNL     1       1.473  -2.914  -0.471  0.00  0.00    -0.001 A 
ATOM     13  C   UNL     1       0.602  -3.958  -0.726  0.00  0.00    +0.050 A 
ATOM     14  C   UNL     1      -0.736  -3.702  -0.973  0.00  0.00    +0.069 A 
ATOM     15  C   UNL     1      -1.204  -2.398  -0.965  0.00  0.00    +0.160 A 
ATOM     16 CL   UNL     1       1.187  -5.592  -0.736  0.00  0.00    -0.083 Cl
BRANCH  10  18
ATOM     17  C   UNL     1       0.174   0.960  -0.430  0.00  0.00    +0.277 C 
ATOM     18  O   UNL     1      -0.783  -0.067  -0.701  0.00  0.00    -0.491 OA
ENDBRANCH  10  18
BRANCH  15  19
ATOM     19  O   UNL     1      -2.518  -2.145  -1.207  0.00  0.00    -0.503 OA
ATOM     20  H   UNL     1      -2.726  -2.004  -2.141  0.00  0.00    +0.292 HD
ENDBRANCH  15  19
ENDBRANCH   1  12
BRANCH   3  21
ATOM     21  C   UNL     1       4.133  -2.891   3.430  0.00  0.00    -0.003 A 
ATOM     22  C   UNL     1       3.024  -2.997   4.273  0.00  0.00    +0.010 A 
ATOM     23  C   UNL     1       3.207  -3.212   5.623  0.00  0.00    +0.001 A 
ATOM     24  C   UNL     1       4.485  -3.310   6.145  0.00  0.00    +0.000 A 
ATOM     25  C   UNL     1       5.588  -3.200   5.316  0.00  0.00    +0.001 A 
ATOM     26  C   UNL     1       5.420  -2.991   3.963  0.00  0.00    +0.010 A 
ENDBRANCH   3  21
BRANCH   2  27
ATOM     27  C   UNL     1       2.372  -4.503   1.914  0.00  0.00    +0.193 C 
ATOM     28  O   UNL     1       1.199  -4.346   2.206  0.00  0.00    -0.287 OA
BRANCH  27  29
ATOM     29  C   UNL     1       3.047  -5.783   2.225  0.00  0.00    +0.022 A 
ATOM     30  C   UNL     1       4.355  -6.008   1.794  0.00  0.00    +0.012 A 
ATOM     31  C   UNL     1       4.980  -7.201   2.093  0.00  0.00    +0.001 A 
ATOM     32  C   UNL     1       4.309  -8.178   2.807  0.00  0.00    +0.000 A 
ATOM     33  C   UNL     1       3.010  -7.963   3.232  0.00  0.00    +0.001 A 
ATOM     34  C   UNL     1       2.375  -6.772   2.945  0.00  0.00    +0.012 A 
ENDBRANCH  27  29
ENDBRANCH   2  27
TORSDOF 6
