REMARK  Name = ZINC04091840
REMARK  10 active torsions:
REMARK  status: ('A' for Active; 'I' for Inactive)
REMARK    1  A    between atoms: C_1  and  C_2
REMARK    2  A    between atoms: C_2  and  C_3
REMARK    3  A    between atoms: C_3  and  N_4
REMARK    4  A    between atoms: N_4  and  C_5
REMARK    5  A    between atoms: N_4  and  C_8
REMARK    6  A    between atoms: C_5  and  C_6
REMARK    7  A    between atoms: C_6  and  C_7
REMARK    8  A    between atoms: C_11  and  C_14
REMARK    9  A    between atoms: C_25  and  C_26
REMARK   10  A    between atoms: C_25  and  N_68
REMARK                            x       y       z     vdW  Elec       q    Type
REMARK                         _______ _______ _______ _____ _____    ______ ____
ROOT
ATOM      1  C   UNL     1       1.404   6.329   4.934  0.00  0.00    +0.190 C 
ATOM      2  N   UNL     1       0.728   5.511   5.957  0.00  0.00    -0.316 N 
ATOM      3  C   UNL     1      -0.641   5.576   5.992  0.00  0.00    +0.080 A 
ATOM      4  C   UNL     1      -1.367   6.668   5.490  0.00  0.00    +0.068 A 
ATOM      5  C   UNL     1      -2.811   6.575   5.613  0.00  0.00    -0.027 A 
ATOM      6  C   UNL     1      -3.280   5.446   6.191  0.00  0.00    -0.021 A 
ATOM      7  S   UNL     1      -1.834   4.497   6.579  0.00  0.00    -0.080 S 
ATOM      8  C   UNL     1      -4.715   5.102   6.437  0.00  0.00    -0.035 C 
ATOM      9  C   UNL     1      -5.175   7.017   5.026  0.00  0.00    -0.073 C 
ATOM     10  C   UNL     1      -3.784   7.648   5.137  0.00  0.00    +0.018 C 
ATOM     11  C   UNL     1      -0.598   7.783   4.891  0.00  0.00    +0.248 C 
ATOM     12  O   UNL     1      -1.145   8.811   4.536  0.00  0.00    -0.270 OA
ATOM     13  N   UNL     1       0.733   7.612   4.754  0.00  0.00    -0.289 N 
ATOM     14  H   UNL     1       1.227   4.955   6.576  0.00  0.00    +0.149 HD
ATOM     15  H   UNL     1       1.274   8.384   4.523  0.00  0.00    +0.151 HD
ATOM     16  N   UNL     1      -5.511   6.346   6.299  0.00  0.00    +0.386 N 
ATOM     17  H   UNL     1      -5.285   6.975   7.078  0.00  0.00    -0.081 HD
ENDROOT
BRANCH   1  21
ATOM     18  C   UNL     1       1.399   4.212   1.221  0.00  0.00    +0.030 A 
ATOM     19  C   UNL     1       1.414   3.513   2.421  0.00  0.00    +0.023 A 
ATOM     20  C   UNL     1       1.421   4.200   3.619  0.00  0.00    +0.009 A 
ATOM     21  C   UNL     1       1.402   5.582   3.625  0.00  0.00    -0.009 A 
ATOM     22  C   UNL     1       1.382   6.282   2.432  0.00  0.00    +0.009 A 
ATOM     23  C   UNL     1       1.380   5.601   1.230  0.00  0.00    +0.023 A 
BRANCH  18  24
ATOM     24  N   UNL     1       1.397   3.520   0.008  0.00  0.00    -0.330 N 
BRANCH  24  25
ATOM     25  C   UNL     1       1.417   2.055  -0.000  0.00  0.00    +0.105 C 
BRANCH  25  27
ATOM     26  C   UNL     1       0.002  -0.004   0.002  0.00  0.00    +0.005 C 
ATOM     27  C   UNL     1      -0.019   1.526   0.010  0.00  0.00    +0.015 C 
ENDBRANCH  25  27
ENDBRANCH  24  25
BRANCH  24  28
ATOM     28  C   UNL     1       1.375   4.259  -1.257  0.00  0.00    +0.105 C 
BRANCH  28  29
ATOM     29  C   UNL     1      -0.075   4.497  -1.684  0.00  0.00    +0.015 C 
ATOM     30  C   UNL     1      -0.098   5.269  -3.004  0.00  0.00    +0.005 C 
ENDBRANCH  28  29
ENDBRANCH  24  28
ENDBRANCH  18  24
ENDBRANCH   1  21
BRANCH  16  31
ATOM     31  C   UNL     1      -6.955   6.030   6.338  0.00  0.00    -0.043 C 
BRANCH  31  32
ATOM     32  C   UNL     1      -7.312   5.554   7.723  0.00  0.00    -0.064 A 
ATOM     33  C   UNL     1      -7.259   4.206   8.025  0.00  0.00    +0.002 A 
ATOM     34  C   UNL     1      -7.583   3.769   9.296  0.00  0.00    +0.000 A 
ATOM     35  C   UNL     1      -7.967   4.680  10.263  0.00  0.00    +0.000 A 
ATOM     36  C   UNL     1      -8.024   6.027   9.959  0.00  0.00    +0.000 A 
ATOM     37  C   UNL     1      -7.697   6.464   8.689  0.00  0.00    +0.002 A 
ENDBRANCH  31  32
ENDBRANCH  16  31
TORSDOF 8
