REMARK  Name = ZINC15996641
REMARK  7 active torsions:
REMARK  status: ('A' for Active; 'I' for Inactive)
REMARK    1  A    between atoms: C_1  and  C_2
REMARK    2  A    between atoms: C_4  and  C_37
REMARK    3  A    between atoms: N_8  and  S_9
REMARK    4  A    between atoms: S_9  and  C_12
REMARK    5  A    between atoms: C_15  and  N_18
REMARK    6  A    between atoms: N_18  and  C_19
REMARK    7  A    between atoms: C_19  and  N_21
REMARK                            x       y       z     vdW  Elec       q    Type
REMARK                         _______ _______ _______ _____ _____    ______ ____
ROOT
ATOM      1  C   UNL     1      -4.763   7.636  -2.082  0.00  0.00    +0.109 A 
ATOM      2  C   UNL     1      -3.850   7.833  -1.063  0.00  0.00    +0.030 A 
ATOM      3  C   UNL     1      -2.753   7.002  -0.946  0.00  0.00    +0.025 A 
ATOM      4  C   UNL     1      -2.569   5.966  -1.853  0.00  0.00    +0.033 A 
ATOM      5  C   UNL     1      -3.486   5.774  -2.879  0.00  0.00    +0.025 A 
ATOM      6  C   UNL     1      -4.583   6.606  -2.987  0.00  0.00    +0.030 A 
ENDROOT
BRANCH   1   7
ATOM      7  S   UNL     1      -6.161   8.699  -2.228  0.00  0.00    +0.075 S 
ATOM      8  O   UNL     1      -7.154   7.970  -2.936  0.00  0.00    -0.150 OA
ATOM      9  O   UNL     1      -6.393   9.245  -0.936  0.00  0.00    -0.150 OA
BRANCH   7  17
ATOM     10  C   UNL     1      -4.594   6.828  -6.649  0.00  0.00    +0.066 C 
ATOM     11  C   UNL     1      -4.860   8.241  -6.197  0.00  0.00    +0.044 A 
ATOM     12  C   UNL     1      -4.788   9.291  -7.099  0.00  0.00    +0.046 A 
ATOM     13  C   UNL     1      -5.040  10.575  -6.642  0.00  0.00    +0.044 A 
ATOM     14  N   UNL     1      -5.340  10.759  -5.367  0.00  0.00    -0.219 NA
ATOM     15  C   UNL     1      -5.400   9.733  -4.530  0.00  0.00    +0.235 A 
ATOM     16  N   UNL     1      -5.159   8.494  -4.934  0.00  0.00    -0.219 NA
ATOM     17  N   UNL     1      -5.716   9.962  -3.203  0.00  0.00    -0.184 N 
ATOM     18  C   UNL     1      -4.974  11.747  -7.587  0.00  0.00    +0.066 C 
ATOM     19  H   UNL     1      -5.678  10.862  -2.843  0.00  0.00    +0.177 HD
ENDBRANCH   7  17
ENDBRANCH   1   7
BRANCH   4  20
ATOM     20  N   UNL     1      -1.459   5.123  -1.738  0.00  0.00    -0.297 N 
ATOM     21  H   UNL     1      -0.580   5.498  -1.573  0.00  0.00    +0.154 HD
BRANCH  20  22
ATOM     22  C   UNL     1      -1.612   3.789  -1.855  0.00  0.00    +0.137 C 
ATOM     23  S   UNL     1      -3.145   3.133  -2.244  0.00  0.00    -0.018 S 
BRANCH  22  24
ATOM     24  N   UNL     1      -0.558   2.971  -1.666  0.00  0.00    -0.312 N 
ATOM     25  C   UNL     1      -0.733   1.526  -1.671  0.00  0.00    +0.112 C 
ATOM     26  C   UNL     1      -0.082   0.895  -0.449  0.00  0.00    +0.027 C 
ATOM     27  C   UNL     1       1.351   1.398  -0.268  0.00  0.00    +0.018 C 
ATOM     28  C   UNL     1       1.313   2.921  -0.123  0.00  0.00    +0.054 C 
ATOM     29  C   UNL     1       0.789   3.519  -1.440  0.00  0.00    +0.116 C 
ATOM     30  C   UNL     1       0.347   3.305   0.973  0.00  0.00    +0.027 A 
ATOM     31  C   UNL     1       0.574   4.476   1.626  0.00  0.00    +0.022 A 
ATOM     32  C   UNL     1      -0.317   4.928   2.606  0.00  0.00    +0.007 A 
ATOM     33  C   UNL     1      -1.430   4.187   2.877  0.00  0.00    +0.070 A 
ATOM     34  C   UNL     1      -1.635   2.987   2.184  0.00  0.00    +0.251 A 
ATOM     35  O   UNL     1      -2.659   2.348   2.371  0.00  0.00    -0.268 OA
ATOM     36  N   UNL     1      -0.709   2.528   1.307  0.00  0.00    -0.312 N 
ATOM     37  C   UNL     1      -0.885   1.162   0.811  0.00  0.00    +0.130 C 
ENDBRANCH  22  24
ENDBRANCH  20  22
ENDBRANCH   4  20
TORSDOF 5
