REMARK  Name = ZINC39912091
REMARK  11 active torsions:
REMARK  status: ('A' for Active; 'I' for Inactive)
REMARK    1  A    between atoms: C_1  and  C_2
REMARK    2  A    between atoms: C_2  and  O_3
REMARK    3  A    between atoms: O_3  and  C_4
REMARK    4  A    between atoms: C_6  and  C_11
REMARK    5  A    between atoms: C_9  and  O_10
REMARK    6  A    between atoms: C_14  and  C_25
REMARK    7  A    between atoms: N_21  and  C_22
REMARK    8  A    between atoms: C_22  and  C_23
REMARK    9  A    between atoms: C_27  and  C_33
REMARK   10  A    between atoms: C_29  and  C_32
REMARK   11  A    between atoms: C_30  and  O_31
REMARK                            x       y       z     vdW  Elec       q    Type
REMARK                         _______ _______ _______ _____ _____    ______ ____
ROOT
ATOM      1  C   UNL     1      -0.030  -4.882  -0.605  0.00  0.00    +0.142 C 
ATOM      2  C   UNL     1       1.041  -5.586  -1.391  0.00  0.00    +0.035 A 
ATOM      3  C   UNL     1       2.141  -5.474  -2.248  0.00  0.00    +0.102 A 
ATOM      4  N   UNL     1       2.566  -6.696  -2.506  0.00  0.00    -0.173 NA
ATOM      5  N   UNL     1       1.843  -7.567  -1.897  0.00  0.00    -0.272 N 
ATOM      6  H   UNL     1       1.973  -8.527  -1.941  0.00  0.00    +0.189 HD
ATOM      7  C   UNL     1       0.866  -6.940  -1.178  0.00  0.00    +0.126 A 
ATOM      8  C   UNL     1      -0.281  -7.126  -0.281  0.00  0.00    +0.266 C 
ATOM      9  O   UNL     1      -0.695  -8.204   0.101  0.00  0.00    -0.268 OA
ATOM     10  N   UNL     1      -0.810  -5.936   0.058  0.00  0.00    -0.281 N 
ENDROOT
BRANCH   3  11
ATOM     11  C   UNL     1       2.723  -4.213  -2.771  0.00  0.00    +0.044 A 
ATOM     12  C   UNL     1       2.097  -2.996  -2.516  0.00  0.00    +0.017 A 
ATOM     13  C   UNL     1       2.642  -1.825  -3.004  0.00  0.00    -0.049 A 
ATOM     14  C   UNL     1       3.808  -1.857  -3.748  0.00  0.00    +0.010 A 
ATOM     15  C   UNL     1       4.437  -3.060  -4.008  0.00  0.00    -0.008 A 
ATOM     16  C   UNL     1       3.904  -4.242  -3.518  0.00  0.00    +0.129 A 
ATOM     17  C   UNL     1       5.707  -3.086  -4.819  0.00  0.00    +0.047 C 
ATOM     18  C   UNL     1       1.964  -0.508  -2.727  0.00  0.00    +0.044 C 
BRANCH  16  19
ATOM     19  O   UNL     1       4.524  -5.424  -3.767  0.00  0.00    -0.506 OA
ATOM     20  H   UNL     1       4.233  -5.858  -4.581  0.00  0.00    +0.292 HD
ENDBRANCH  16  19
ENDBRANCH   3  11
BRANCH   1  23
ATOM     21  C   UNL     1       1.836  -3.682   2.453  0.00  0.00    +0.162 A 
ATOM     22  C   UNL     1       1.262  -4.515   1.507  0.00  0.00    +0.055 A 
ATOM     23  C   UNL     1       0.594  -3.974   0.424  0.00  0.00    -0.019 A 
ATOM     24  C   UNL     1       0.498  -2.602   0.282  0.00  0.00    +0.009 A 
ATOM     25  C   UNL     1       1.069  -1.766   1.223  0.00  0.00    +0.049 A 
ATOM     26  C   UNL     1       1.734  -2.301   2.314  0.00  0.00    +0.158 A 
BRANCH  26  27
ATOM     27  O   UNL     1       2.292  -1.480   3.243  0.00  0.00    -0.503 OA
ATOM     28  H   UNL     1       3.207  -1.233   3.051  0.00  0.00    +0.292 HD
ENDBRANCH  26  27
BRANCH  21  29
ATOM     29  O   UNL     1       2.493  -4.213   3.519  0.00  0.00    -0.489 OA
BRANCH  29  31
ATOM     30  C   UNL     1       3.456  -6.037   4.778  0.00  0.00    +0.048 C 
ATOM     31  C   UNL     1       2.632  -5.635   3.553  0.00  0.00    +0.226 C 
ENDBRANCH  29  31
ENDBRANCH  21  29
ENDBRANCH   1  23
BRANCH  10  32
ATOM     32  C   UNL     1      -1.963  -5.726   0.936  0.00  0.00    +0.135 C 
BRANCH  32  33
ATOM     33  C   UNL     1      -3.226  -5.719   0.114  0.00  0.00    -0.016 C 
ATOM     34  C   UNL     1      -4.205  -6.537   0.411  0.00  0.00    +0.005 C 
ENDBRANCH  32  33
ENDBRANCH  10  32
TORSDOF 8
