REMARK  Name = ZINC04602890
REMARK  7 active torsions:
REMARK  status: ('A' for Active; 'I' for Inactive)
REMARK    1  A    between atoms: C_1  and  C_2
REMARK    2  A    between atoms: C_2  and  C_3
REMARK    3  A    between atoms: C_2  and  C_4
REMARK    4  A    between atoms: C_2  and  C_5
REMARK    5  A    between atoms: C_12  and  N_16
REMARK    6  A    between atoms: C_13  and  C_14
REMARK    7  A    between atoms: C_17  and  C_19
REMARK                            x       y       z     vdW  Elec       q    Type
REMARK                         _______ _______ _______ _____ _____    ______ ____
ROOT
ATOM      1  C   UNL     1      -3.554   3.801   0.436  0.00  0.00    -0.000 C 
ATOM      2  C   UNL     1      -3.686   2.529  -0.407  0.00  0.00    +0.009 C 
ATOM      3  C   UNL     1      -2.642   1.502   0.034  0.00  0.00    +0.037 C 
ATOM      4  C   UNL     1      -1.270   2.164   0.020  0.00  0.00    -0.018 A 
ATOM      5  C   UNL     1      -1.146   3.509   0.033  0.00  0.00    -0.004 A 
ATOM      6  S   UNL     1       0.600   3.803   0.017  0.00  0.00    -0.077 S 
ATOM      7  C   UNL     1       1.159   2.163   0.003  0.00  0.00    +0.090 A 
ATOM      8  C   UNL     1      -0.017   1.428   0.010  0.00  0.00    +0.084 A 
ATOM      9  C   UNL     1      -2.253   4.518   0.050  0.00  0.00    +0.047 C 
ENDROOT
BRANCH   1  11
ATOM     10  C   UNL     1      -4.786   5.082  -1.320  0.00  0.00    +0.011 C 
ATOM     11  C   UNL     1      -4.747   4.721   0.167  0.00  0.00    -0.035 C 
ATOM     12  C   UNL     1      -6.042   4.004   0.552  0.00  0.00    +0.011 C 
ATOM     13  C   UNL     1      -4.603   5.998   0.997  0.00  0.00    +0.011 C 
ENDBRANCH   1  11
BRANCH   7  14
ATOM     14  N   UNL     1       2.466   1.698  -0.013  0.00  0.00    -0.275 N 
ATOM     15  C   UNL     1       3.492   2.572  -0.018  0.00  0.00    +0.254 C 
ATOM     16  O   UNL     1       3.272   3.769  -0.009  0.00  0.00    -0.270 OA
ATOM     17  H   UNL     1       2.641   0.744  -0.020  0.00  0.00    +0.156 HD
BRANCH  15  18
ATOM     18  C   UNL     1       4.872   2.081  -0.034  0.00  0.00    +0.101 A 
ATOM     19  C   UNL     1       5.282   0.735  -0.046  0.00  0.00    +0.150 A 
ATOM     20  N   UNL     1       6.589   0.695  -0.059  0.00  0.00    -0.173 NA
ATOM     21  N   UNL     1       7.097   1.998  -0.057  0.00  0.00    -0.221 N 
ATOM     22  C   UNL     1       6.041   2.866  -0.046  0.00  0.00    +0.168 A 
ATOM     23  N   UNL     1       6.241   4.184  -0.036  0.00  0.00    -0.235 NA
ATOM     24  C   UNL     1       7.458   4.682  -0.046  0.00  0.00    +0.114 A 
ATOM     25  C   UNL     1       8.566   3.827  -0.062  0.00  0.00    +0.039 A 
ATOM     26  C   UNL     1       8.371   2.484  -0.067  0.00  0.00    +0.116 A 
ENDBRANCH  15  18
ENDBRANCH   7  14
BRANCH   8  27
ATOM     27  C   UNL     1       0.002  -0.004   0.002  0.00  0.00    +0.102 C 
ATOM     28  N   UNL     1       0.018  -1.140  -0.004  0.00  0.00    -0.191 NA
ENDBRANCH   8  27
TORSDOF 4
