REMARK  Name = ZINC39573530
REMARK  9 active torsions:
REMARK  status: ('A' for Active; 'I' for Inactive)
REMARK    1  A    between atoms: C_1  and  C_2
REMARK    2  A    between atoms: C_4  and  C_31
REMARK    3  A    between atoms: C_8  and  C_12
REMARK    4  A    between atoms: C_12  and  S_13
REMARK    5  A    between atoms: S_13  and  C_14
REMARK    6  A    between atoms: C_14  and  C_16
REMARK    7  A    between atoms: C_14  and  C_17
REMARK    8  A    between atoms: N_19  and  C_20
REMARK    9  A    between atoms: C_20  and  C_21
REMARK                            x       y       z     vdW  Elec       q    Type
REMARK                         _______ _______ _______ _____ _____    ______ ____
ROOT
ATOM      1  C   UNL     1      -4.029  -5.250   6.260  0.00  0.00    +0.129 C 
ATOM      2  C   UNL     1      -3.081  -6.447   6.160  0.00  0.00    +0.029 C 
ENDROOT
BRANCH   1   3
ATOM      3  C   UNL     1      -5.436  -5.742   6.482  0.00  0.00    +0.226 C 
ATOM      4  O   UNL     1      -6.184  -5.887   5.538  0.00  0.00    -0.275 OA
ATOM      5  N   UNL     1      -5.864  -6.020   7.729  0.00  0.00    -0.310 N 
ATOM      6  H   UNL     1      -5.266  -5.904   8.484  0.00  0.00    +0.149 HD
BRANCH   5   7
ATOM      7  C   UNL     1      -7.232  -6.498   7.945  0.00  0.00    +0.139 C 
BRANCH   7   8
ATOM      8  C   UNL     1      -7.456  -6.733   9.416  0.00  0.00    -0.027 A 
ATOM      9  C   UNL     1      -7.177  -7.970   9.968  0.00  0.00    +0.009 A 
ATOM     10  C   UNL     1      -7.381  -8.190  11.317  0.00  0.00    +0.050 A 
ATOM     11  C   UNL     1      -7.865  -7.171  12.121  0.00  0.00    +0.166 A 
ATOM     12  C   UNL     1      -8.146  -5.925  11.566  0.00  0.00    +0.167 A 
ATOM     13  C   UNL     1      -7.934  -5.709  10.213  0.00  0.00    +0.054 A 
ATOM     14  O   UNL     1      -8.605  -5.101  12.552  0.00  0.00    -0.453 OA
ATOM     15  C   UNL     1      -8.989  -5.972  13.633  0.00  0.00    +0.466 C 
ATOM     16  O   UNL     1      -8.149  -7.128  13.455  0.00  0.00    -0.453 OA
ENDBRANCH   7   8
ENDBRANCH   5   7
ENDBRANCH   1   3
BRANCH   1  17
ATOM     17  S   UNL     1      -3.959  -4.293   4.721  0.00  0.00    -0.141 S 
BRANCH  17  18
ATOM     18  C   UNL     1      -2.262  -3.654   4.678  0.00  0.00    +0.143 C 
BRANCH  18  25
ATOM     19  C   UNL     1      -0.019   1.526   0.010  0.00  0.00    +0.024 C 
ATOM     20  C   UNL     1       0.002  -0.004   0.002  0.00  0.00    +0.076 C 
ATOM     21  C   UNL     1      -1.399  -0.565   0.089  0.00  0.00    -0.045 C 
ATOM     22  C   UNL     1      -1.704  -1.321   1.155  0.00  0.00    +0.071 C 
ATOM     23  C   UNL     1      -0.645  -1.546   2.162  0.00  0.00    +0.111 C 
ATOM     24  N   UNL     1      -0.881  -2.276   3.226  0.00  0.00    -0.227 NA
ATOM     25  C   UNL     1      -2.066  -2.829   3.432  0.00  0.00    +0.133 C 
ATOM     26  N   UNL     1      -3.079  -2.698   2.609  0.00  0.00    -0.161 NA
ATOM     27  C   UNL     1      -3.005  -1.988   1.478  0.00  0.00    +0.271 C 
ATOM     28  O   UNL     1      -3.966  -1.886   0.735  0.00  0.00    -0.268 OA
ATOM     29  S   UNL     1       0.764  -0.661   1.541  0.00  0.00    -0.098 S 
ATOM     30  C   UNL     1      -2.419  -0.284  -0.984  0.00  0.00    +0.041 C 
ENDBRANCH  18  25
ENDBRANCH  17  18
ENDBRANCH   1  17
TORSDOF 6
