REMARK  Name = ZINC42015692
REMARK  4 active torsions:
REMARK  status: ('A' for Active; 'I' for Inactive)
REMARK    1  A    between atoms: C_1  and  C_2
REMARK    2  A    between atoms: C_3  and  N_21
REMARK    3  A    between atoms: C_5  and  C_9
REMARK    4  A    between atoms: N_13  and  C_14
REMARK                            x       y       z     vdW  Elec       q    Type
REMARK                         _______ _______ _______ _____ _____    ______ ____
ROOT
ATOM      1  C   UNL     1      -0.258  -4.318   0.117  0.00  0.00    +0.187 A 
ATOM      2  N   UNL     1      -0.474  -5.077  -0.937  0.00  0.00    -0.108 NA
ATOM      3  N   UNL     1       0.041  -6.241  -0.766  0.00  0.00    -0.022 NA
ATOM      4  N   UNL     1       0.615  -6.318   0.385  0.00  0.00    -0.039 NA
ATOM      5  N   UNL     1       0.450  -5.069   1.009  0.00  0.00    -0.190 N 
ENDROOT
BRANCH   1  10
ATOM      6  C   UNL     1      -1.960   1.141   0.830  0.00  0.00    +0.048 C 
ATOM      7  C   UNL     1      -1.515  -0.286   0.642  0.00  0.00    +0.005 A 
ATOM      8  C   UNL     1      -1.450  -0.830  -0.635  0.00  0.00    +0.031 A 
ATOM      9  C   UNL     1      -1.041  -2.143  -0.810  0.00  0.00    +0.034 A 
ATOM     10  C   UNL     1      -0.695  -2.916   0.298  0.00  0.00    +0.026 A 
ATOM     11  C   UNL     1      -0.763  -2.363   1.577  0.00  0.00    +0.050 A 
ATOM     12  C   UNL     1      -1.167  -1.051   1.742  0.00  0.00    +0.129 A 
ATOM     13  F   UNL     1      -1.227  -0.516   2.981  0.00  0.00    -0.205 F 
BRANCH   8  14
ATOM     14  N   UNL     1      -1.798  -0.053  -1.743  0.00  0.00    -0.358 N 
ATOM     15  H   UNL     1      -2.084   0.866  -1.620  0.00  0.00    +0.142 HD
ATOM     16  H   UNL     1      -1.752  -0.432  -2.635  0.00  0.00    +0.142 HD
ENDBRANCH   8  14
ENDBRANCH   1  10
BRANCH   5  17
ATOM     17  C   UNL     1       0.912  -4.680   2.274  0.00  0.00    +0.104 A 
ATOM     18  C   UNL     1       1.761  -3.589   2.400  0.00  0.00    +0.031 A 
ATOM     19  C   UNL     1       2.214  -3.209   3.648  0.00  0.00    +0.002 A 
ATOM     20  C   UNL     1       1.824  -3.913   4.772  0.00  0.00    +0.003 A 
ATOM     21  C   UNL     1       0.979  -5.000   4.653  0.00  0.00    +0.040 A 
ATOM     22  C   UNL     1       0.516  -5.383   3.407  0.00  0.00    +0.149 A 
ATOM     23  F   UNL     1      -0.315  -6.442   3.290  0.00  0.00    -0.203 F 
ENDBRANCH   5  17
TORSDOF 3
