REMARK  Name = ZINC40394962
REMARK  11 active torsions:
REMARK  status: ('A' for Active; 'I' for Inactive)
REMARK    1  A    between atoms: C_1  and  N_2
REMARK    2  A    between atoms: N_2  and  C_3
REMARK    3  A    between atoms: N_2  and  C_6
REMARK    4  A    between atoms: C_3  and  C_4
REMARK    5  A    between atoms: C_4  and  O_5
REMARK    6  A    between atoms: C_6  and  C_9
REMARK    7  A    between atoms: C_12  and  N_15
REMARK    8  A    between atoms: N_20  and  C_27
REMARK    9  A    between atoms: C_22  and  C_23
REMARK   10  A    between atoms: C_30  and  O_33
REMARK   11  A    between atoms: O_33  and  C_34
REMARK                            x       y       z     vdW  Elec       q    Type
REMARK                         _______ _______ _______ _____ _____    ______ ____
ROOT
ATOM      1  N   UNL     1       2.963  -5.770  -0.802  0.00  0.00    -0.266 N 
ATOM      2  C   UNL     1       3.818  -6.341  -1.835  0.00  0.00    +0.119 C 
ATOM      3  C   UNL     1       5.053  -7.041  -1.263  0.00  0.00    +0.059 C 
ATOM      4  C   UNL     1       4.630  -7.898  -0.104  0.00  0.00    +0.016 A 
ATOM      5  C   UNL     1       3.513  -7.588   0.671  0.00  0.00    +0.133 A 
ATOM      6  N   UNL     1       3.427  -8.544   1.620  0.00  0.00    -0.227 N 
ATOM      7  N   UNL     1       4.390  -9.390   1.459  0.00  0.00    -0.161 NA
ATOM      8  C   UNL     1       5.149  -9.055   0.437  0.00  0.00    +0.170 A 
ATOM      9  C   UNL     1       2.696  -6.409   0.361  0.00  0.00    +0.270 C 
ATOM     10  O   UNL     1       1.819  -6.026   1.112  0.00  0.00    -0.268 OA
ENDROOT
BRANCH   1  14
ATOM     11  C   UNL     1       1.291  -2.011  -1.448  0.00  0.00    -0.058 A 
ATOM     12  C   UNL     1       2.234  -2.184  -0.452  0.00  0.00    +0.004 A 
ATOM     13  C   UNL     1       2.791  -3.429  -0.235  0.00  0.00    +0.024 A 
ATOM     14  C   UNL     1       2.402  -4.508  -1.019  0.00  0.00    +0.037 A 
ATOM     15  C   UNL     1       1.454  -4.331  -2.018  0.00  0.00    +0.024 A 
ATOM     16  C   UNL     1       0.897  -3.084  -2.226  0.00  0.00    +0.004 A 
BRANCH  11  17
ATOM     17  C   UNL     1       0.686  -0.651  -1.682  0.00  0.00    -0.040 C 
ATOM     18  C   UNL     1       0.288  -0.291  -3.115  0.00  0.00    -0.008 C 
ATOM     19  C   UNL     1      -0.792  -0.593  -2.074  0.00  0.00    -0.008 C 
BRANCH  17  21
ATOM     20  C   UNL     1       0.386   0.529   0.385  0.00  0.00    -0.095 C 
ATOM     21  N   UNL     1       1.204   0.428  -0.831  0.00  0.00    +0.386 N 
ATOM     22  H   UNL     1       2.160   0.227  -0.578  0.00  0.00    -0.081 HD
BRANCH  21  23
ATOM     23  C   UNL     1       1.149   1.700  -1.564  0.00  0.00    -0.050 C 
BRANCH  23  24
ATOM     24  C   UNL     1       1.795   2.803  -0.722  0.00  0.00    +0.137 C 
BRANCH  24  25
ATOM     25  O   UNL     1       3.186   2.522  -0.556  0.00  0.00    -0.397 OA
ATOM     26  H   UNL     1       3.661   3.181  -0.032  0.00  0.00    +0.209 HD
ENDBRANCH  24  25
ENDBRANCH  23  24
ENDBRANCH  21  23
ENDBRANCH  17  21
ENDBRANCH  11  17
ENDBRANCH   1  14
BRANCH   6  27
ATOM     27  C   UNL     1       2.449  -8.609   2.621  0.00  0.00    +0.066 A 
ATOM     28  C   UNL     1       1.118  -8.368   2.307  0.00  0.00    +0.031 A 
ATOM     29  C   UNL     1       0.154  -8.432   3.294  0.00  0.00    +0.048 A 
ATOM     30  C   UNL     1       0.516  -8.737   4.598  0.00  0.00    +0.120 A 
ATOM     31  C   UNL     1       1.846  -8.977   4.912  0.00  0.00    +0.048 A 
ATOM     32  C   UNL     1       2.810  -8.919   3.925  0.00  0.00    +0.031 A 
BRANCH  30  33
ATOM     33  O   UNL     1      -0.433  -8.800   5.569  0.00  0.00    -0.495 OA
ATOM     34  C   UNL     1       0.010  -9.119   6.890  0.00  0.00    +0.277 C 
ENDBRANCH  30  33
ENDBRANCH   6  27
BRANCH   8  35
ATOM     35  C   UNL     1       6.363  -9.801  -0.053  0.00  0.00    +0.436 C 
ATOM     36  F   UNL     1       7.503  -9.314   0.596  0.00  0.00    -0.164 F 
ATOM     37  F   UNL     1       6.216 -11.164   0.223  0.00  0.00    -0.164 F 
ATOM     38  F   UNL     1       6.498  -9.616  -1.433  0.00  0.00    -0.164 F 
ENDBRANCH   8  35
TORSDOF 9
