REMARK  Name = ZINC39533957
REMARK  10 active torsions:
REMARK  status: ('A' for Active; 'I' for Inactive)
REMARK    1  A    between atoms: C_4  and  C_7
REMARK    2  A    between atoms: C_7  and  N_8
REMARK    3  A    between atoms: N_8  and  C_9
REMARK    4  A    between atoms: C_9  and  C_10
REMARK    5  A    between atoms: C_10  and  C_12
REMARK    6  A    between atoms: C_10  and  N_25
REMARK    7  A    between atoms: C_15  and  C_18
REMARK    8  A    between atoms: C_23  and  O_24
REMARK    9  A    between atoms: C_29  and  C_32
REMARK   10  A    between atoms: C_37  and  O_38
REMARK                            x       y       z     vdW  Elec       q    Type
REMARK                         _______ _______ _______ _____ _____    ______ ____
ROOT
ATOM      1  C   UNL     1       6.472  -1.361   2.667  0.00  0.00    -0.024 C 
ENDROOT
BRANCH   1   2
ATOM      2  N   UNL     1       5.604  -1.032   3.806  0.00  0.00    +0.383 N 
ATOM      3  C   UNL     1       5.989   0.276   4.353  0.00  0.00    -0.097 C 
ATOM      4  C   UNL     1       5.086   0.618   5.540  0.00  0.00    -0.101 C 
ATOM      5  N   UNL     1       5.232  -0.410   6.579  0.00  0.00    +0.381 N 
ATOM      6  C   UNL     1       4.847  -1.718   6.031  0.00  0.00    -0.054 C 
ATOM      7  C   UNL     1       5.751  -2.060   4.845  0.00  0.00    -0.089 C 
ATOM      8  H   UNL     1       6.192  -0.444   6.886  0.00  0.00    -0.085 HD
ATOM      9  H   UNL     1       4.644  -0.999   3.498  0.00  0.00    -0.081 HD
ATOM     10  H   UNL     1       4.636  -0.185   7.361  0.00  0.00    -0.085 HD
BRANCH   6  11
ATOM     11  C   UNL     1       4.997  -2.773   7.097  0.00  0.00    -0.022 A 
ATOM     12  C   UNL     1       5.913  -2.599   8.117  0.00  0.00    +0.005 A 
ATOM     13  C   UNL     1       6.051  -3.567   9.095  0.00  0.00    +0.000 A 
ATOM     14  C   UNL     1       5.273  -4.710   9.056  0.00  0.00    +0.004 A 
ATOM     15  C   UNL     1       4.356  -4.887   8.038  0.00  0.00    +0.045 A 
ATOM     16  C   UNL     1       4.212  -3.915   7.058  0.00  0.00    +0.118 A 
BRANCH  16  17
ATOM     17  O   UNL     1       3.306  -4.085   6.059  0.00  0.00    -0.507 OA
ATOM     18  H   UNL     1       3.633  -4.612   5.318  0.00  0.00    +0.292 HD
ENDBRANCH  16  17
ENDBRANCH   6  11
ENDBRANCH   1   2
BRANCH   1  19
ATOM     19  C   UNL     1       7.784  -1.901   3.174  0.00  0.00    -0.060 A 
ATOM     20  C   UNL     1       8.768  -1.030   3.606  0.00  0.00    +0.002 A 
ATOM     21  C   UNL     1       9.971  -1.520   4.071  0.00  0.00    +0.009 A 
ATOM     22  C   UNL     1      10.194  -2.895   4.106  0.00  0.00    -0.014 A 
ATOM     23  C   UNL     1       9.199  -3.768   3.670  0.00  0.00    +0.009 A 
ATOM     24  C   UNL     1       7.998  -3.267   3.211  0.00  0.00    +0.002 A 
BRANCH  22  25
ATOM     25  C   UNL     1      11.486  -3.427   4.604  0.00  0.00    +0.024 A 
ATOM     26  C   UNL     1      12.687  -2.918   4.116  0.00  0.00    +0.012 A 
ATOM     27  C   UNL     1      13.887  -3.417   4.583  0.00  0.00    +0.001 A 
ATOM     28  C   UNL     1      13.900  -4.421   5.535  0.00  0.00    +0.004 A 
ATOM     29  C   UNL     1      12.714  -4.934   6.025  0.00  0.00    +0.046 A 
ATOM     30  C   UNL     1      11.503  -4.438   5.569  0.00  0.00    +0.125 A 
BRANCH  30  31
ATOM     31  O   UNL     1      10.337  -4.937   6.054  0.00  0.00    -0.506 OA
ATOM     32  H   UNL     1       9.994  -5.692   5.556  0.00  0.00    +0.292 HD
ENDBRANCH  30  31
ENDBRANCH  22  25
ENDBRANCH   1  19
BRANCH   1  33
ATOM     33  C   UNL     1       6.726  -0.099   1.839  0.00  0.00    +0.070 C 
BRANCH  33  34
ATOM     34  N   UNL     1       5.449   0.418   1.329  0.00  0.00    -0.313 NA
ATOM     35  H   UNL     1       4.774   0.510   2.073  0.00  0.00    +0.122 HD
BRANCH  34  36
ATOM     36  C   UNL     1       5.640   1.696   0.630  0.00  0.00    +0.116 C 
BRANCH  36  40
ATOM     37  C   UNL     1       1.871   3.123  -0.785  0.00  0.00    +0.000 A 
ATOM     38  C   UNL     1       2.289   3.431   0.496  0.00  0.00    +0.000 A 
ATOM     39  C   UNL     1       3.509   2.969   0.954  0.00  0.00    +0.005 A 
ATOM     40  C   UNL     1       4.310   2.199   0.131  0.00  0.00    -0.034 A 
ATOM     41  C   UNL     1       3.890   1.890  -1.149  0.00  0.00    +0.005 A 
ATOM     42  C   UNL     1       2.671   2.354  -1.608  0.00  0.00    +0.000 A 
ENDBRANCH  36  40
ENDBRANCH  34  36
ENDBRANCH  33  34
ENDBRANCH   1  33
TORSDOF 10
