REMARK  Name = ZINC22276131
REMARK  8 active torsions:
REMARK  status: ('A' for Active; 'I' for Inactive)
REMARK    1  A    between atoms: C_1  and  O_2
REMARK    2  A    between atoms: O_2  and  C_3
REMARK    3  A    between atoms: C_3  and  C_4
REMARK    4  A    between atoms: C_4  and  N_5
REMARK    5  A    between atoms: C_6  and  C_27
REMARK    6  A    between atoms: C_9  and  S_10
REMARK    7  A    between atoms: S_10  and  C_11
REMARK    8  A    between atoms: C_11  and  C_12
REMARK                            x       y       z     vdW  Elec       q    Type
REMARK                         _______ _______ _______ _____ _____    ______ ____
ROOT
ATOM      1  C   UNL     1       4.408   4.589  -0.542  0.00  0.00    +0.153 C 
ENDROOT
BRANCH   1   2
ATOM      2  C   UNL     1       3.419   3.461  -0.390  0.00  0.00    +0.143 A 
ATOM      3  N   UNL     1       3.852   2.214  -0.426  0.00  0.00    -0.216 NA
ATOM      4  C   UNL     1       3.035   1.180  -0.298  0.00  0.00    +0.128 A 
ATOM      5  C   UNL     1       1.644   1.417  -0.116  0.00  0.00    +0.051 A 
ATOM      6  C   UNL     1       0.565   0.437   0.048  0.00  0.00    -0.025 A 
ATOM      7  C   UNL     1      -0.681   0.929   0.201  0.00  0.00    -0.004 A 
ATOM      8  S   UNL     1      -0.497   2.693   0.145  0.00  0.00    -0.073 S 
ATOM      9  C   UNL     1       1.259   2.771  -0.090  0.00  0.00    +0.114 A 
ATOM     10  N   UNL     1       2.141   3.743  -0.225  0.00  0.00    -0.224 NA
ATOM     11  C   UNL     1      -1.956   0.162   0.369  0.00  0.00    +0.043 C 
ATOM     12  C   UNL     1      -1.768  -0.907   1.454  0.00  0.00    +0.005 C 
ATOM     13  C   UNL     1      -1.263  -2.183   0.787  0.00  0.00    +0.001 C 
ATOM     14  C   UNL     1      -0.378  -1.833  -0.407  0.00  0.00    +0.005 C 
ATOM     15  C   UNL     1       0.854  -1.061   0.051  0.00  0.00    +0.037 C 
ATOM     16  N   UNL     1       3.527  -0.112  -0.341  0.00  0.00    -0.343 N 
ATOM     17  H   UNL     1       2.841  -0.965  -0.234  0.00  0.00    +0.144 HD
ATOM     18  H   UNL     1       4.604  -0.286  -0.482  0.00  0.00    +0.144 HD
ENDBRANCH   1   2
BRANCH   1  19
ATOM     19  S   UNL     1       4.578   5.010  -2.294  0.00  0.00    -0.078 S 
BRANCH  19  24
ATOM     20  N   UNL     1       6.273   7.031  -3.223  0.00  0.00    -0.300 N 
ATOM     21  C   UNL     1       7.145   7.933  -2.657  0.00  0.00    +0.165 A 
ATOM     22  N   UNL     1       7.118   7.733  -1.359  0.00  0.00    -0.128 NA
ATOM     23  N   UNL     1       6.298   6.785  -1.079  0.00  0.00    -0.122 NA
ATOM     24  C   UNL     1       5.756   6.315  -2.182  0.00  0.00    +0.192 A 
BRANCH  21  25
ATOM     25  C   UNL     1       7.957   8.938  -3.374  0.00  0.00    +0.022 A 
ATOM     26  C   UNL     1       9.069   9.532  -2.765  0.00  0.00    +0.031 A 
ATOM     27  C   UNL     1       9.803  10.460  -3.473  0.00  0.00    +0.111 A 
ATOM     28  N   UNL     1       9.462  10.798  -4.703  0.00  0.00    -0.263 NA
ATOM     29  C   UNL     1       8.419  10.267  -5.312  0.00  0.00    +0.111 A 
ATOM     30  C   UNL     1       7.633   9.326  -4.680  0.00  0.00    +0.031 A 
ENDBRANCH  21  25
BRANCH  20  31
ATOM     31  C   UNL     1       5.965   6.871  -4.646  0.00  0.00    +0.154 C 
BRANCH  31  32
ATOM     32  C   UNL     1       4.758   7.740  -5.007  0.00  0.00    +0.181 C 
BRANCH  32  34
ATOM     33  C   UNL     1       3.340   8.357  -6.838  0.00  0.00    +0.194 C 
ATOM     34  O   UNL     1       4.457   7.584  -6.395  0.00  0.00    -0.381 OA
ENDBRANCH  32  34
ENDBRANCH  31  32
ENDBRANCH  20  31
ENDBRANCH  19  24
ENDBRANCH   1  19
TORSDOF 7
