REMARK  Name = ZINC00985812
REMARK  4 active torsions:
REMARK  status: ('A' for Active; 'I' for Inactive)
REMARK    1  A    between atoms: C_5  and  C_7
REMARK    2  A    between atoms: C_14  and  N_27
REMARK    3  A    between atoms: C_15  and  C_25
REMARK    4  A    between atoms: C_16  and  C_18
REMARK                            x       y       z     vdW  Elec       q    Type
REMARK                         _______ _______ _______ _____ _____    ______ ____
ROOT
ATOM      1  C   UNL     1       1.269  -2.508  -0.173  0.00  0.00    +0.102 A 
ATOM      2  C   UNL     1       0.069  -3.197   0.025  0.00  0.00    +0.054 A 
ATOM      3  C   UNL     1       0.345  -4.534   0.026  0.00  0.00    +0.223 A 
ATOM      4  N   UNL     1       1.672  -4.679  -0.167  0.00  0.00    -0.246 N 
ATOM      5  H   UNL     1       2.153  -5.520  -0.213  0.00  0.00    +0.192 HD
ATOM      6  N   UNL     1       2.234  -3.399  -0.294  0.00  0.00    -0.171 NA
ATOM      7  O   UNL     1      -0.613  -5.479   0.199  0.00  0.00    -0.423 OA
ATOM      8  C   UNL     1      -1.818  -5.072   0.647  0.00  0.00    +0.200 C 
ATOM      9  C   UNL     1      -2.210  -3.779   0.682  0.00  0.00    +0.098 C 
ATOM     10  C   UNL     1      -1.323  -2.653   0.212  0.00  0.00    +0.102 C 
ENDROOT
BRANCH   1  15
ATOM     11  C   UNL     1       0.995   1.149   0.660  0.00  0.00    +0.001 A 
ATOM     12  C   UNL     1       1.725   1.716  -0.369  0.00  0.00    +0.001 A 
ATOM     13  C   UNL     1       2.308   0.916  -1.334  0.00  0.00    +0.020 A 
ATOM     14  C   UNL     1       2.163  -0.457  -1.276  0.00  0.00    +0.050 A 
ATOM     15  C   UNL     1       1.429  -1.034  -0.241  0.00  0.00    +0.021 A 
ATOM     16  C   UNL     1       0.844  -0.222   0.728  0.00  0.00    +0.011 A 
ATOM     17 CL   UNL     1       2.895  -1.461  -2.488  0.00  0.00    -0.083 Cl
ENDBRANCH   1  15
BRANCH  10  18
ATOM     18  C   UNL     1      -1.838  -2.112  -1.097  0.00  0.00    -0.034 A 
ATOM     19  C   UNL     1      -1.895  -2.932  -2.208  0.00  0.00    +0.007 A 
ATOM     20  C   UNL     1      -2.368  -2.437  -3.409  0.00  0.00    +0.038 A 
ATOM     21  C   UNL     1      -2.784  -1.120  -3.498  0.00  0.00    +0.123 A 
ATOM     22  C   UNL     1      -2.727  -0.299  -2.385  0.00  0.00    +0.038 A 
ATOM     23  C   UNL     1      -2.259  -0.798  -1.183  0.00  0.00    +0.007 A 
ATOM     24  F   UNL     1      -3.245  -0.635  -4.672  0.00  0.00    -0.205 F 
ENDBRANCH  10  18
BRANCH   8  25
ATOM     25  N   UNL     1      -2.698  -6.027   1.092  0.00  0.00    -0.328 N 
ATOM     26  H   UNL     1      -2.446  -6.963   1.079  0.00  0.00    +0.145 HD
ATOM     27  H   UNL     1      -3.573  -5.765   1.420  0.00  0.00    +0.145 HD
ENDBRANCH   8  25
BRANCH   9  28
ATOM     28  C   UNL     1      -3.515  -3.467   1.183  0.00  0.00    +0.101 C 
ATOM     29  N   UNL     1      -4.550  -3.220   1.581  0.00  0.00    -0.191 NA
ENDBRANCH   9  28
TORSDOF 4
