REMARK  Name = ZINC05415810
REMARK  9 active torsions:
REMARK  status: ('A' for Active; 'I' for Inactive)
REMARK    1  A    between atoms: C_1  and  C_2
REMARK    2  A    between atoms: C_5  and  O_32
REMARK    3  A    between atoms: C_7  and  C_30
REMARK    4  A    between atoms: C_7  and  C_31
REMARK    5  A    between atoms: C_12  and  C_17
REMARK    6  A    between atoms: C_14  and  C_15
REMARK    7  A    between atoms: C_14  and  O_16
REMARK    8  A    between atoms: C_17  and  O_18
REMARK    9  A    between atoms: O_18  and  C_19
REMARK                            x       y       z     vdW  Elec       q    Type
REMARK                         _______ _______ _______ _____ _____    ______ ____
ROOT
ATOM      1  C   UNL     1      -0.259   1.440   0.584  0.00  0.00    +0.014 C 
ATOM      2  C   UNL     1      -0.166  -0.090   0.477  0.00  0.00    +0.000 C 
ATOM      3  C   UNL     1       0.163  -0.446  -0.974  0.00  0.00    +0.012 C 
ATOM      4  C   UNL     1       1.548   0.096  -1.331  0.00  0.00    +0.032 C 
ATOM      5  C   UNL     1       2.601  -0.565  -0.450  0.00  0.00    +0.120 C 
ATOM      6  C   UNL     1       2.326  -0.345   1.036  0.00  0.00    -0.006 C 
ATOM      7  C   UNL     1       0.890  -0.656   1.410  0.00  0.00    +0.006 C 
ATOM      8  C   UNL     1       0.577  -0.267   2.855  0.00  0.00    +0.005 C 
ATOM      9  C   UNL     1      -0.776  -0.876   3.241  0.00  0.00    +0.010 C 
ATOM     10  C   UNL     1      -1.872  -0.363   2.312  0.00  0.00    +0.058 C 
ATOM     11  C   UNL     1      -1.547  -0.646   0.846  0.00  0.00    +0.075 C 
ATOM     12  C   UNL     1      -1.635  -2.147   0.579  0.00  0.00    +0.042 C 
ATOM     13  C   UNL     1       2.749   1.066   1.441  0.00  0.00    +0.014 C 
ATOM     14  C   UNL     1       3.242  -1.331   1.802  0.00  0.00    +0.014 C 
ENDROOT
BRANCH  11  15
ATOM     15  O   UNL     1      -2.528   0.019   0.031  0.00  0.00    -0.388 OA
ATOM     16  H   UNL     1      -3.436  -0.270   0.195  0.00  0.00    +0.210 HD
ENDBRANCH  11  15
BRANCH   5  17
ATOM     17  O   UNL     1       2.639  -1.970  -0.721  0.00  0.00    -0.391 OA
ATOM     18  H   UNL     1       2.858  -2.188  -1.637  0.00  0.00    +0.210 HD
ENDBRANCH   5  17
BRANCH  10  19
ATOM     19  C   UNL     1      -3.193  -1.060   2.669  0.00  0.00    +0.235 C 
BRANCH  19  20
ATOM     20  O   UNL     1      -3.594  -0.675   3.985  0.00  0.00    -0.491 OA
BRANCH  20  21
ATOM     21  C   UNL     1      -4.751  -1.206   4.457  0.00  0.00    +0.124 A 
ATOM     22  C   UNL     1      -5.481  -2.088   3.663  0.00  0.00    +0.046 A 
ATOM     23  C   UNL     1      -6.646  -2.630   4.122  0.00  0.00    +0.015 A 
ATOM     24  C   UNL     1      -7.111  -2.299   5.400  0.00  0.00    +0.018 A 
ATOM     25  C   UNL     1      -8.357  -2.865   5.920  0.00  0.00    +0.018 A 
ATOM     26  C   UNL     1      -8.755  -2.505   7.168  0.00  0.00    +0.092 A 
ATOM     27  C   UNL     1      -7.970  -1.607   7.922  0.00  0.00    +0.337 A 
ATOM     28  O   UNL     1      -8.338  -1.292   9.040  0.00  0.00    -0.245 OA
ATOM     29  O   UNL     1      -6.829  -1.092   7.440  0.00  0.00    -0.422 OA
ATOM     30  C   UNL     1      -6.378  -1.409   6.207  0.00  0.00    +0.143 A 
ATOM     31  C   UNL     1      -5.193  -0.871   5.726  0.00  0.00    +0.092 A 
ENDBRANCH  20  21
ENDBRANCH  19  20
ENDBRANCH  10  19
TORSDOF 5
