REMARK  Name = ZINC41452000
REMARK  6 active torsions:
REMARK  status: ('A' for Active; 'I' for Inactive)
REMARK    1  A    between atoms: C_1  and  C_2
REMARK    2  A    between atoms: C_4  and  C_25
REMARK    3  A    between atoms: C_5  and  N_9
REMARK    4  A    between atoms: N_9  and  S_10
REMARK    5  A    between atoms: S_10  and  C_13
REMARK    6  A    between atoms: C_16  and  N_19
REMARK                            x       y       z     vdW  Elec       q    Type
REMARK                         _______ _______ _______ _____ _____    ______ ____
ROOT
ATOM      1  S   UNL     1       0.202  -5.004   1.400  0.00  0.00    +0.072 S 
ATOM      2  O   UNL     1       0.313  -6.391   1.113  0.00  0.00    -0.150 OA
ATOM      3  O   UNL     1       1.199  -4.293   2.122  0.00  0.00    -0.150 OA
ENDROOT
BRANCH   1   4
ATOM      4  C   UNL     1      -1.308  -4.791   2.283  0.00  0.00    +0.109 A 
ATOM      5  C   UNL     1      -1.492  -3.671   3.074  0.00  0.00    +0.030 A 
ATOM      6  C   UNL     1      -2.675  -3.502   3.767  0.00  0.00    +0.025 A 
ATOM      7  C   UNL     1      -3.678  -4.457   3.670  0.00  0.00    +0.040 A 
ATOM      8  C   UNL     1      -3.490  -5.579   2.875  0.00  0.00    +0.025 A 
ATOM      9  C   UNL     1      -2.307  -5.741   2.180  0.00  0.00    +0.030 A 
BRANCH   7  10
ATOM     10  N   UNL     1      -4.877  -4.288   4.372  0.00  0.00    -0.234 N 
ATOM     11  C   UNL     1      -6.025  -5.216   4.371  0.00  0.00    +0.158 C 
ATOM     12  C   UNL     1      -6.851  -4.718   5.580  0.00  0.00    +0.253 C 
ATOM     13  O   UNL     1      -6.427  -3.344   5.687  0.00  0.00    -0.448 OA
ATOM     14  C   UNL     1      -5.188  -3.252   5.175  0.00  0.00    +0.407 C 
ATOM     15  O   UNL     1      -4.431  -2.331   5.408  0.00  0.00    -0.226 OA
ENDBRANCH   7  10
ENDBRANCH   1   4
BRANCH   1  16
ATOM     16  N   UNL     1       0.031  -4.232  -0.055  0.00  0.00    -0.215 N 
ATOM     17  H   UNL     1       0.017  -4.745  -0.878  0.00  0.00    +0.174 HD
BRANCH  16  22
ATOM     18  C   UNL     1      -0.477   1.415  -0.227  0.00  0.00    +0.044 C 
ATOM     19  C   UNL     1      -0.342  -0.085  -0.181  0.00  0.00    -0.049 A 
ATOM     20  C   UNL     1      -1.417  -0.886  -0.520  0.00  0.00    +0.008 A 
ATOM     21  C   UNL     1      -1.297  -2.261  -0.479  0.00  0.00    -0.026 A 
ATOM     22  C   UNL     1      -0.094  -2.841  -0.098  0.00  0.00    +0.069 A 
ATOM     23  C   UNL     1       0.986  -2.034   0.242  0.00  0.00    +0.064 A 
ATOM     24  C   UNL     1       0.860  -0.658   0.194  0.00  0.00    +0.025 A 
ATOM     25 CL   UNL     1       2.492  -2.752   0.719  0.00  0.00    -0.082 Cl
ATOM     26  C   UNL     1      -2.470  -3.132  -0.847  0.00  0.00    +0.046 C 
ENDBRANCH  16  22
ENDBRANCH   1  16
TORSDOF 4
