REMARK  Name = ZINC14544567
REMARK  1 active torsions:
REMARK  status: ('A' for Active; 'I' for Inactive)
REMARK    1  A    between atoms: C_12  and  C_21
REMARK                            x       y       z     vdW  Elec       q    Type
REMARK                         _______ _______ _______ _____ _____    ______ ____
ROOT
ATOM      1  C   UNL     1       8.145   2.771  -1.391  0.00  0.00    +0.001 A 
ATOM      2  C   UNL     1       7.047   3.088  -2.189  0.00  0.00    +0.001 A 
ATOM      3  C   UNL     1       5.792   3.146  -1.665  0.00  0.00    +0.010 A 
ATOM      4  C   UNL     1       5.598   2.881  -0.299  0.00  0.00    +0.003 A 
ATOM      5  C   UNL     1       6.710   2.558   0.511  0.00  0.00    -0.016 A 
ATOM      6  C   UNL     1       7.992   2.509  -0.064  0.00  0.00    +0.008 A 
ATOM      7  C   UNL     1       6.519   2.290   1.877  0.00  0.00    +0.009 A 
ATOM      8  C   UNL     1       5.264   2.334   2.400  0.00  0.00    +0.006 A 
ATOM      9  C   UNL     1       4.158   2.645   1.615  0.00  0.00    -0.019 A 
ATOM     10  C   UNL     1       4.298   2.940   0.267  0.00  0.00    +0.039 A 
ATOM     11  N   UNL     1       3.248   3.295  -0.571  0.00  0.00    -0.336 N 
ATOM     12  C   UNL     1       1.893   3.245   0.001  0.00  0.00    +0.107 C 
ATOM     13  C   UNL     1       1.991   3.757   1.424  0.00  0.00    +0.029 C 
ATOM     14  C   UNL     1       2.790   2.649   2.181  0.00  0.00    +0.049 C 
ATOM     15  C   UNL     1       2.513   2.972   3.602  0.00  0.00    -0.023 C 
ATOM     16  C   UNL     1       1.322   3.557   3.677  0.00  0.00    -0.030 C 
ATOM     17  C   UNL     1       0.723   3.702   2.276  0.00  0.00    +0.033 C 
ATOM     18  H   UNL     1       3.292   2.786  -1.441  0.00  0.00    +0.147 HD
ENDROOT
BRANCH  12  19
ATOM     19  C   UNL     1       1.385   1.827  -0.001  0.00  0.00    -0.002 A 
ATOM     20  C   UNL     1       2.132   0.711  -0.015  0.00  0.00    +0.089 A 
ATOM     21  N   UNL     1       1.323  -0.392  -0.013  0.00  0.00    -0.360 N 
ATOM     22  H   UNL     1       1.634  -1.311  -0.020  0.00  0.00    +0.165 HD
ATOM     23  C   UNL     1       0.002  -0.004   0.002  0.00  0.00    +0.047 A 
ATOM     24  C   UNL     1      -0.017   1.403   0.010  0.00  0.00    +0.005 A 
ATOM     25  C   UNL     1      -1.236   2.083   0.030  0.00  0.00    +0.010 A 
ATOM     26  C   UNL     1      -2.406   1.377   0.034  0.00  0.00    +0.001 A 
ATOM     27  C   UNL     1      -2.393  -0.011   0.026  0.00  0.00    +0.002 A 
ATOM     28  C   UNL     1      -1.201  -0.702   0.010  0.00  0.00    +0.026 A 
ENDBRANCH  12  19
TORSDOF 1
