REMARK  Name = ZINC03532255
REMARK  6 active torsions:
REMARK  status: ('A' for Active; 'I' for Inactive)
REMARK    1  A    between atoms: C_1  and  C_2
REMARK    2  A    between atoms: N_13  and  C_26
REMARK    3  A    between atoms: C_14  and  S_16
REMARK    4  A    between atoms: S_16  and  C_17
REMARK    5  A    between atoms: C_17  and  C_19
REMARK    6  A    between atoms: C_17  and  C_20
REMARK                            x       y       z     vdW  Elec       q    Type
REMARK                         _______ _______ _______ _____ _____    ______ ____
ROOT
ATOM      1  C   UNL     1     -10.820  -5.580  -0.283  0.00  0.00    +0.008 C 
ATOM      2  C   UNL     1     -10.005  -4.294  -0.138  0.00  0.00    -0.009 C 
ATOM      3  C   UNL     1     -10.195  -3.423  -1.384  0.00  0.00    +0.008 C 
ATOM      4  C   UNL     1      -9.593  -2.037  -1.145  0.00  0.00    +0.037 C 
ATOM      5  C   UNL     1      -8.152  -2.201  -0.669  0.00  0.00    -0.023 A 
ATOM      6  C   UNL     1      -7.721  -3.377  -0.169  0.00  0.00    -0.004 A 
ATOM      7  S   UNL     1      -6.019  -3.106   0.243  0.00  0.00    -0.073 S 
ATOM      8  C   UNL     1      -5.890  -1.408  -0.259  0.00  0.00    +0.117 A 
ATOM      9  C   UNL     1      -7.179  -1.109  -0.731  0.00  0.00    +0.076 A 
ATOM     10  C   UNL     1      -7.374   0.225  -1.211  0.00  0.00    +0.268 A 
ATOM     11  O   UNL     1      -8.460   0.575  -1.640  0.00  0.00    -0.267 OA
ATOM     12  N   UNL     1      -6.341   1.087  -1.184  0.00  0.00    -0.253 N 
ATOM     13  C   UNL     1      -5.117   0.712  -0.707  0.00  0.00    +0.178 A 
ATOM     14  N   UNL     1      -4.910  -0.512  -0.263  0.00  0.00    -0.215 NA
ATOM     15  C   UNL     1      -8.515  -4.637   0.000  0.00  0.00    +0.046 C 
ENDROOT
BRANCH  12  16
ATOM     16  C   UNL     1      -6.525   2.395  -1.653  0.00  0.00    +0.087 A 
ATOM     17  C   UNL     1      -6.288   2.696  -2.987  0.00  0.00    +0.029 A 
ATOM     18  C   UNL     1      -6.475   3.985  -3.447  0.00  0.00    +0.002 A 
ATOM     19  C   UNL     1      -6.887   4.979  -2.579  0.00  0.00    +0.003 A 
ATOM     20  C   UNL     1      -7.119   4.686  -1.248  0.00  0.00    +0.040 A 
ATOM     21  C   UNL     1      -6.939   3.396  -0.781  0.00  0.00    +0.147 A 
ATOM     22  F   UNL     1      -7.166   3.110   0.520  0.00  0.00    -0.203 F 
ENDBRANCH  12  16
BRANCH  13  23
ATOM     23  S   UNL     1      -3.795   1.877  -0.691  0.00  0.00    -0.075 S 
BRANCH  23  24
ATOM     24  C   UNL     1      -2.482   0.853   0.018  0.00  0.00    +0.137 C 
ATOM     25  C   UNL     1      -2.849   0.476   1.455  0.00  0.00    +0.029 C 
BRANCH  24  26
ATOM     26  C   UNL     1      -1.187   1.624   0.017  0.00  0.00    +0.233 C 
ATOM     27  O   UNL     1      -1.204   2.836   0.023  0.00  0.00    -0.274 OA
ATOM     28  N   UNL     1      -0.011   0.966   0.007  0.00  0.00    -0.239 N 
ATOM     29  C   UNL     1       1.147   1.655   0.000  0.00  0.00    +0.303 C 
ATOM     30  O   UNL     1       1.130   2.871   0.007  0.00  0.00    -0.253 OA
ATOM     31  N   UNL     1       2.323   0.998  -0.015  0.00  0.00    -0.313 N 
ATOM     32  H   UNL     1       0.002  -0.004   0.002  0.00  0.00    +0.159 HD
ATOM     33  H   UNL     1       2.336   0.028  -0.020  0.00  0.00    +0.146 HD
ATOM     34  H   UNL     1       3.156   1.494  -0.020  0.00  0.00    +0.146 HD
ENDBRANCH  24  26
ENDBRANCH  23  24
ENDBRANCH  13  23
TORSDOF 4
