REMARK  Name = ZINC63141800
REMARK  8 active torsions:
REMARK  status: ('A' for Active; 'I' for Inactive)
REMARK    1  A    between atoms: C_1  and  O_2
REMARK    2  A    between atoms: O_2  and  C_3
REMARK    3  A    between atoms: C_3  and  C_5
REMARK    4  A    between atoms: C_8  and  C_11
REMARK    5  A    between atoms: N_30  and  C_33
REMARK    6  A    between atoms: C_33  and  C_34
REMARK    7  A    between atoms: C_34  and  C_35
REMARK    8  A    between atoms: C_35  and  N_36
REMARK                            x       y       z     vdW  Elec       q    Type
REMARK                         _______ _______ _______ _____ _____    ______ ____
ROOT
ATOM      1  C   UNL     1      -1.413  -6.381  -0.019  0.00  0.00    +0.133 C 
ATOM      2  C   UNL     1      -1.660  -6.862  -1.448  0.00  0.00    +0.131 C 
ATOM      3  C   UNL     1      -2.064  -8.330  -1.331  0.00  0.00    -0.034 C 
ATOM      4  C   UNL     1      -1.156  -9.030  -1.997  0.00  0.00    -0.001 A 
ATOM      5  C   UNL     1      -1.030 -10.474  -2.257  0.00  0.00    +0.010 A 
ATOM      6  C   UNL     1       0.050 -10.859  -2.988  0.00  0.00    +0.001 A 
ATOM      7  C   UNL     1       1.004  -9.964  -3.480  0.00  0.00    +0.002 A 
ATOM      8  C   UNL     1       0.967  -8.621  -3.291  0.00  0.00    +0.026 A 
ATOM      9  C   UNL     1      -0.123  -8.095  -2.537  0.00  0.00    +0.043 A 
ATOM     10  N   UNL     1      -0.410  -6.848  -2.219  0.00  0.00    -0.375 N 
ATOM     11  C   UNL     1      -3.277  -8.744  -0.544  0.00  0.00    +0.065 C 
ATOM     12  C   UNL     1      -3.359  -7.943   0.729  0.00  0.00    +0.167 C 
ATOM     13  N   UNL     1      -2.462  -6.819   0.890  0.00  0.00    -0.279 N 
ATOM     14  C   UNL     1      -2.597  -6.124   2.067  0.00  0.00    +0.234 C 
ATOM     15  O   UNL     1      -1.949  -5.123   2.292  0.00  0.00    -0.274 OA
ATOM     16  C   UNL     1      -3.593  -6.665   3.071  0.00  0.00    +0.203 C 
ATOM     17  N   UNL     1      -3.428  -8.128   3.152  0.00  0.00    -0.291 N 
ATOM     18  C   UNL     1      -3.326  -8.800   1.969  0.00  0.00    +0.237 C 
ATOM     19  O   UNL     1      -3.221 -10.007   1.917  0.00  0.00    -0.274 OA
ATOM     20  H   UNL     1       0.106  -6.059  -2.445  0.00  0.00    +0.160 HD
ENDROOT
BRANCH   1  24
ATOM     21  C   UNL     1      -1.247  -2.108   0.003  0.00  0.00    +0.059 A 
ATOM     22  C   UNL     1      -0.068  -2.856  -0.007  0.00  0.00    +0.015 A 
ATOM     23  C   UNL     1      -0.129  -4.234  -0.014  0.00  0.00    +0.006 A 
ATOM     24  C   UNL     1      -1.354  -4.875  -0.011  0.00  0.00    -0.025 A 
ATOM     25  C   UNL     1      -2.527  -4.141  -0.002  0.00  0.00    +0.006 A 
ATOM     26  C   UNL     1      -2.481  -2.762   0.011  0.00  0.00    +0.015 A 
BRANCH  21  27
ATOM     27  C   UNL     1      -1.190  -0.632   0.010  0.00  0.00    +0.339 C 
ATOM     28  O   UNL     1      -2.217   0.016   0.023  0.00  0.00    -0.245 OA
BRANCH  27  30
ATOM     29  C   UNL     1      -0.017   1.425   0.010  0.00  0.00    +0.280 C 
ATOM     30  O   UNL     1       0.002  -0.004   0.002  0.00  0.00    -0.464 OA
ENDBRANCH  27  30
ENDBRANCH  21  27
ENDBRANCH   1  24
BRANCH  17  31
ATOM     31  C   UNL     1      -3.372  -8.826   4.439  0.00  0.00    +0.110 C 
BRANCH  31  32
ATOM     32  C   UNL     1      -4.786  -9.232   4.860  0.00  0.00    +0.040 C 
BRANCH  32  33
ATOM     33  C   UNL     1      -4.728  -9.961   6.204  0.00  0.00    +0.124 C 
BRANCH  33  34
ATOM     34  N   UNL     1      -6.081 -10.351   6.607  0.00  0.00    -0.338 N 
ATOM     35  C   UNL     1      -6.953  -9.603   7.352  0.00  0.00    +0.104 A 
ATOM     36  C   UNL     1      -8.076 -10.335   7.487  0.00  0.00    +0.101 A 
ATOM     37  N   UNL     1      -7.894 -11.497   6.842  0.00  0.00    -0.352 N 
ATOM     38  C   UNL     1      -6.704 -11.511   6.308  0.00  0.00    +0.173 A 
ATOM     39  H   UNL     1      -8.547 -12.212   6.779  0.00  0.00    +0.166 HD
ENDBRANCH  33  34
ENDBRANCH  32  33
ENDBRANCH  31  32
ENDBRANCH  17  31
TORSDOF 7
