REMARK  Name = ZINC58064400
REMARK  4 active torsions:
REMARK  status: ('A' for Active; 'I' for Inactive)
REMARK    1  A    between atoms: C_1  and  C_2
REMARK    2  A    between atoms: C_5  and  C_7
REMARK    3  A    between atoms: C_7  and  C_9
REMARK    4  A    between atoms: C_9  and  N_10
REMARK                            x       y       z     vdW  Elec       q    Type
REMARK                         _______ _______ _______ _____ _____    ______ ____
ROOT
ATOM      1  N   UNL     1       2.865  -5.503  -0.042  0.00  0.00    -0.217 N 
ATOM      2  C   UNL     1       3.001  -6.282   1.054  0.00  0.00    +0.247 C 
ATOM      3  O   UNL     1       2.588  -6.083   2.170  0.00  0.00    -0.273 OA
ATOM      4  C   UNL     1       3.837  -7.457   0.575  0.00  0.00    +0.113 C 
ATOM      5  C   UNL     1       5.309  -7.049   0.612  0.00  0.00    +0.035 C 
ATOM      6  C   UNL     1       6.233  -8.264   0.536  0.00  0.00    +0.003 C 
ATOM      7  C   UNL     1       6.458  -8.748  -0.908  0.00  0.00    +0.000 C 
ATOM      8  C   UNL     1       5.206  -9.519  -1.363  0.00  0.00    +0.000 C 
ATOM      9  C   UNL     1       4.718 -10.424  -0.231  0.00  0.00    +0.000 C 
ATOM     10  C   UNL     1       3.403  -9.921   0.355  0.00  0.00    +0.003 C 
ATOM     11  C   UNL     1       3.574  -8.747   1.317  0.00  0.00    +0.035 C 
ATOM     12  N   UNL     1       3.330  -7.527  -0.811  0.00  0.00    -0.285 N 
ATOM     13  C   UNL     1       3.025  -6.249  -1.142  0.00  0.00    +0.310 C 
ATOM     14  O   UNL     1       2.913  -5.844  -2.276  0.00  0.00    -0.252 OA
ATOM     15  H   UNL     1       3.126  -8.287  -1.354  0.00  0.00    +0.151 HD
ENDROOT
BRANCH   1  16
ATOM     16  C   UNL     1       2.552  -4.078  -0.033  0.00  0.00    +0.198 C 
BRANCH  16  17
ATOM     17  C   UNL     1       1.056  -3.893  -0.025  0.00  0.00    +0.187 C 
ATOM     18  O   UNL     1       0.324  -4.862  -0.026  0.00  0.00    -0.290 OA
BRANCH  17  23
ATOM     19  C   UNL     1      -0.018   1.503   0.010  0.00  0.00    +0.051 C 
ATOM     20  C   UNL     1       0.002  -0.004   0.002  0.00  0.00    -0.013 A 
ATOM     21  C   UNL     1      -1.058  -0.852   0.002  0.00  0.00    +0.011 A 
ATOM     22  C   UNL     1      -0.831  -2.205  -0.007  0.00  0.00    +0.019 A 
ATOM     23  C   UNL     1       0.506  -2.592  -0.015  0.00  0.00    +0.056 A 
ATOM     24  S   UNL     1       1.342  -1.017  -0.017  0.00  0.00    -0.091 S 
ENDBRANCH  17  23
ENDBRANCH  16  17
ENDBRANCH   1  16
TORSDOF 3
