REMARK  Name = ZINC57221455
REMARK  6 active torsions:
REMARK  status: ('A' for Active; 'I' for Inactive)
REMARK    1  A    between atoms: C_1  and  C_2
REMARK    2  A    between atoms: C_2  and  N_3
REMARK    3  A    between atoms: C_9  and  C_15
REMARK    4  A    between atoms: N_17  and  C_18
REMARK    5  A    between atoms: C_18  and  C_20
REMARK    6  A    between atoms: C_18  and  C_21
REMARK                            x       y       z     vdW  Elec       q    Type
REMARK                         _______ _______ _______ _____ _____    ______ ____
ROOT
ATOM      1  N   UNL     1      -1.545   0.367   1.006  0.00  0.00    -0.287 N 
ATOM      2  C   UNL     1      -2.264   0.041   2.101  0.00  0.00    +0.262 A 
ATOM      3  O   UNL     1      -1.798   0.304   3.335  0.00  0.00    -0.267 OA
ATOM      4  C   UNL     1      -3.516  -0.584   1.919  0.00  0.00    +0.065 A 
ATOM      5  C   UNL     1      -4.319  -0.952   3.007  0.00  0.00    +0.016 A 
ATOM      6  C   UNL     1      -5.522  -1.552   2.791  0.00  0.00    +0.014 A 
ATOM      7  C   UNL     1      -5.973  -1.809   1.487  0.00  0.00    +0.039 A 
ATOM      8  C   UNL     1      -5.201  -1.456   0.392  0.00  0.00    +0.041 A 
ATOM      9  C   UNL     1      -3.959  -0.837   0.594  0.00  0.00    +0.080 A 
ATOM     10  N   UNL     1      -3.179  -0.478  -0.436  0.00  0.00    -0.222 NA
ATOM     11  C   UNL     1      -2.012   0.111  -0.228  0.00  0.00    +0.183 A 
ATOM     12  S   UNL     1      -1.060   0.555  -1.579  0.00  0.00    -0.011 S 
ENDROOT
BRANCH   7  13
ATOM     13  C   UNL     1      -7.285  -2.463   1.280  0.00  0.00    +0.245 C 
ATOM     14  O   UNL     1      -7.681  -2.688   0.153  0.00  0.00    -0.270 OA
ATOM     15  N   UNL     1      -8.041  -2.809   2.341  0.00  0.00    -0.300 N 
ATOM     16  H   UNL     1      -7.725  -2.630   3.240  0.00  0.00    +0.150 HD
BRANCH  15  17
ATOM     17  C   UNL     1      -9.339  -3.457   2.135  0.00  0.00    +0.156 C 
ATOM     18  C   UNL     1     -10.411  -2.389   1.906  0.00  0.00    +0.038 C 
BRANCH  17  19
ATOM     19  C   UNL     1      -9.693  -4.270   3.354  0.00  0.00    +0.236 C 
ATOM     20  O   UNL     1      -9.129  -4.061   4.407  0.00  0.00    -0.274 OA
ATOM     21  N   UNL     1     -10.636  -5.229   3.273  0.00  0.00    -0.300 N 
ATOM     22  C   UNL     1     -11.245  -5.574   1.981  0.00  0.00    +0.108 C 
ATOM     23  C   UNL     1     -11.108  -7.083   1.758  0.00  0.00    +0.019 C 
ATOM     24  C   UNL     1     -11.706  -7.828   2.954  0.00  0.00    +0.003 C 
ATOM     25  C   UNL     1     -10.940  -7.456   4.225  0.00  0.00    +0.019 C 
ATOM     26  C   UNL     1     -11.070  -5.955   4.475  0.00  0.00    +0.108 C 
ENDBRANCH  17  19
ENDBRANCH  15  17
ENDBRANCH   7  13
BRANCH   1  28
ATOM     27  C   UNL     1      -0.427   2.535   1.192  0.00  0.00    +0.027 C 
ATOM     28  C   UNL     1      -0.241   1.016   1.164  0.00  0.00    +0.124 C 
ENDBRANCH   1  28
TORSDOF 4
