REMARK  Name = ZINC39628253
REMARK  5 active torsions:
REMARK  status: ('A' for Active; 'I' for Inactive)
REMARK    1  A    between atoms: N_4  and  C_7
REMARK    2  A    between atoms: C_7  and  C_8
REMARK    3  A    between atoms: C_8  and  N_9
REMARK    4  A    between atoms: C_10  and  C_12
REMARK    5  A    between atoms: C_23  and  C_25
REMARK                            x       y       z     vdW  Elec       q    Type
REMARK                         _______ _______ _______ _____ _____    ______ ____
ROOT
ATOM      1  C   UNL     1       4.832  -4.440  -4.540  0.00  0.00    +0.100 C 
ATOM      2  C   UNL     1       6.232  -3.789  -4.594  0.00  0.00    +0.121 C 
ATOM      3  N   UNL     1       7.113  -4.737  -3.871  0.00  0.00    -0.300 N 
ATOM      4  C   UNL     1       6.635  -6.077  -4.290  0.00  0.00    +0.115 C 
ATOM      5  C   UNL     1       5.101  -5.941  -4.345  0.00  0.00    -0.004 C 
ATOM      6  C   UNL     1       4.542  -6.736  -5.521  0.00  0.00    -0.010 C 
ATOM      7  C   UNL     1       4.770  -8.230  -5.276  0.00  0.00    -0.082 C 
ATOM      8  N   UNL     1       4.105  -8.630  -4.030  0.00  0.00    +0.379 N 
ATOM      9  C   UNL     1       4.712  -7.930  -2.892  0.00  0.00    -0.082 C 
ATOM     10  C   UNL     1       4.482  -6.423  -3.036  0.00  0.00    -0.010 C 
ATOM     11  C   UNL     1       8.120  -4.447  -3.024  0.00  0.00    +0.219 C 
ATOM     12  O   UNL     1       8.755  -5.342  -2.507  0.00  0.00    -0.275 OA
ATOM     13  H   UNL     1       3.125  -8.397  -4.083  0.00  0.00    -0.086 HD
ATOM     14  H   UNL     1       4.205  -9.626  -3.902  0.00  0.00    -0.086 HD
ENDROOT
BRANCH  11  15
ATOM     15  C   UNL     1       8.459  -3.010  -2.720  0.00  0.00    +0.079 C 
ATOM     16  C   UNL     1       8.857  -2.292  -4.013  0.00  0.00    +0.041 C 
ATOM     17  C   UNL     1       9.274  -0.857  -3.684  0.00  0.00    +0.160 C 
ATOM     18  O   UNL     1      10.349  -0.879  -2.742  0.00  0.00    -0.380 OA
ATOM     19  C   UNL     1      10.020  -1.496  -1.496  0.00  0.00    +0.160 C 
ATOM     20  C   UNL     1       9.633  -2.957  -1.738  0.00  0.00    +0.041 C 
ENDBRANCH  11  15
BRANCH   1  22
ATOM     21  N   UNL     1       2.697  -3.848  -3.440  0.00  0.00    -0.317 N 
ATOM     22  C   UNL     1       4.043  -3.893  -3.379  0.00  0.00    +0.218 C 
ATOM     23  O   UNL     1       4.618  -3.492  -2.390  0.00  0.00    -0.275 OA
ATOM     24  H   UNL     1       2.236  -4.168  -4.231  0.00  0.00    +0.149 HD
BRANCH  21  25
ATOM     25  C   UNL     1       1.930  -3.316  -2.311  0.00  0.00    +0.085 C 
BRANCH  25  26
ATOM     26  C   UNL     1       0.436  -3.378  -2.635  0.00  0.00    -0.060 C 
BRANCH  26  30
ATOM     27  C   UNL     1      -2.372  -3.007   0.549  0.00  0.00    -0.004 C 
ATOM     28  C   UNL     1      -2.551  -2.163  -0.716  0.00  0.00    -0.019 C 
ATOM     29  C   UNL     1      -1.756  -2.793  -1.861  0.00  0.00    -0.079 C 
ATOM     30  N   UNL     1      -0.333  -2.844  -1.503  0.00  0.00    +0.381 N 
ATOM     31  C   UNL     1      -0.145  -3.711  -0.333  0.00  0.00    -0.079 C 
ATOM     32  C   UNL     1      -0.878  -3.116   0.871  0.00  0.00    -0.019 C 
ATOM     33  H   UNL     1      -0.008  -1.914  -1.287  0.00  0.00    -0.082 HD
ENDBRANCH  26  30
ENDBRANCH  25  26
ENDBRANCH  21  25
ENDBRANCH   1  22
TORSDOF 5
