REMARK  Name = ZINC08850277
REMARK  7 active torsions:
REMARK  status: ('A' for Active; 'I' for Inactive)
REMARK    1  A    between atoms: C_1  and  C_2
REMARK    2  A    between atoms: C_15  and  C_17
REMARK    3  A    between atoms: C_17  and  N_62
REMARK    4  A    between atoms: N_20  and  S_23
REMARK    5  A    between atoms: S_23  and  C_26
REMARK    6  A    between atoms: C_29  and  C_32
REMARK    7  A    between atoms: C_32  and  C_34
REMARK                            x       y       z     vdW  Elec       q    Type
REMARK                         _______ _______ _______ _____ _____    ______ ____
ROOT
ATOM      1  C   UNL     1       0.309   1.369   0.276  0.00  0.00    -0.061 C 
ATOM      2  C   UNL     1       0.557  -0.139   0.375  0.00  0.00    +0.091 C 
ATOM      3  N   UNL     1       1.541  -0.381   1.441  0.00  0.00    -0.180 NA
ATOM      4  C   UNL     1       2.798   0.382   1.415  0.00  0.00    +0.091 C 
ATOM      5  C   UNL     1       2.461   1.870   1.274  0.00  0.00    -0.061 C 
ATOM      6  N   UNL     1       1.606   2.053   0.081  0.00  0.00    +0.387 N 
ATOM      7  H   UNL     1       2.079   1.644  -0.733  0.00  0.00    -0.081 HD
ENDROOT
BRANCH   3   8
ATOM      8  S   UNL     1       1.242  -1.484   2.640  0.00  0.00    +0.061 S 
ATOM      9  O   UNL     1       2.040  -1.102   3.752  0.00  0.00    -0.153 OA
ATOM     10  O   UNL     1      -0.170  -1.617   2.726  0.00  0.00    -0.153 OA
BRANCH   8  11
ATOM     11  C   UNL     1       1.861  -3.037   2.085  0.00  0.00    +0.106 A 
ATOM     12  C   UNL     1       1.036  -3.895   1.379  0.00  0.00    +0.029 A 
ATOM     13  C   UNL     1       1.514  -5.110   0.937  0.00  0.00    +0.013 A 
ATOM     14  C   UNL     1       2.834  -5.480   1.213  0.00  0.00    +0.017 A 
ATOM     15  C   UNL     1       3.661  -4.610   1.932  0.00  0.00    +0.013 A 
ATOM     16  C   UNL     1       3.169  -3.396   2.363  0.00  0.00    +0.029 A 
BRANCH  14  17
ATOM     17  C   UNL     1       3.352  -6.777   0.749  0.00  0.00    +0.160 C 
ATOM     18  O   UNL     1       4.497  -7.094   0.990  0.00  0.00    -0.292 OA
ATOM     19  C   UNL     1       2.458  -7.712  -0.025  0.00  0.00    +0.091 C 
ENDBRANCH  14  17
ENDBRANCH   8  11
ENDBRANCH   3   8
BRANCH   6  20
ATOM     20  C   UNL     1       1.385   3.493  -0.166  0.00  0.00    +0.019 C 
BRANCH  20  34
ATOM     21  C   UNL     1       1.041   6.791   3.068  0.00  0.00    +0.029 C 
ATOM     22  C   UNL     1      -0.046   6.130   2.218  0.00  0.00    +0.087 C 
ATOM     23  C   UNL     1      -1.041   7.193   1.749  0.00  0.00    +0.118 C 
ATOM     24  C   UNL     1      -1.874   6.659   0.614  0.00  0.00    +0.219 C 
ATOM     25  O   UNL     1      -3.024   6.329   0.814  0.00  0.00    -0.275 OA
ATOM     26  N   UNL     1      -1.349   6.543  -0.627  0.00  0.00    -0.284 N 
ATOM     27  C   UNL     1       0.000   6.834  -0.860  0.00  0.00    +0.055 A 
ATOM     28  C   UNL     1       0.381   7.657  -1.906  0.00  0.00    +0.025 A 
ATOM     29  C   UNL     1       1.738   7.906  -2.126  0.00  0.00    +0.002 A 
ATOM     30  C   UNL     1       2.695   7.331  -1.309  0.00  0.00    +0.002 A 
ATOM     31  C   UNL     1       2.316   6.518  -0.257  0.00  0.00    +0.025 A 
ATOM     32  C   UNL     1       0.972   6.276  -0.021  0.00  0.00    +0.058 A 
ATOM     33  N   UNL     1       0.569   5.481   1.060  0.00  0.00    -0.268 N 
ATOM     34  C   UNL     1       0.750   4.146   1.035  0.00  0.00    +0.204 C 
ATOM     35  O   UNL     1       0.401   3.469   1.980  0.00  0.00    -0.277 OA
ATOM     36  H   UNL     1      -1.913   6.256  -1.362  0.00  0.00    +0.155 HD
ENDBRANCH  20  34
ENDBRANCH   6  20
TORSDOF 5
