REMARK  Name = ZINC19790401
REMARK  9 active torsions:
REMARK  status: ('A' for Active; 'I' for Inactive)
REMARK    1  A    between atoms: C_1  and  C_2
REMARK    2  A    between atoms: C_2  and  N_3
REMARK    3  A    between atoms: N_6  and  C_9
REMARK    4  A    between atoms: C_9  and  C_10
REMARK    5  A    between atoms: C_11  and  O_33
REMARK    6  A    between atoms: C_17  and  C_29
REMARK    7  A    between atoms: C_18  and  C_21
REMARK    8  A    between atoms: C_26  and  O_27
REMARK    9  A    between atoms: O_27  and  C_28
REMARK                            x       y       z     vdW  Elec       q    Type
REMARK                         _______ _______ _______ _____ _____    ______ ____
ROOT
ATOM      1  C   UNL     1      -0.018   1.503   0.010  0.00  0.00    +0.051 A 
ATOM      2  C   UNL     1       1.170   2.213   0.003  0.00  0.00    +0.125 A 
ATOM      3  C   UNL     1       1.164   3.606   0.010  0.00  0.00    +0.046 A 
ATOM      4  C   UNL     1      -0.018   4.290   0.025  0.00  0.00    +0.019 A 
ATOM      5  C   UNL     1      -1.224   3.589   0.033  0.00  0.00    +0.065 A 
ATOM      6  C   UNL     1      -1.229   2.183   0.020  0.00  0.00    +0.147 A 
ATOM      7  O   UNL     1      -2.395   1.506   0.034  0.00  0.00    -0.449 OA
ATOM      8  C   UNL     1      -3.589   2.104   0.047  0.00  0.00    +0.220 A 
ATOM      9  C   UNL     1      -3.730   3.455   0.056  0.00  0.00    +0.080 A 
ATOM     10  C   UNL     1      -2.519   4.293   0.048  0.00  0.00    +0.201 A 
ATOM     11  O   UNL     1      -2.584   5.511   0.055  0.00  0.00    -0.286 OA
ENDROOT
BRANCH   9  12
ATOM     12  C   UNL     1      -5.077   4.074   0.071  0.00  0.00    +0.031 A 
ATOM     13  C   UNL     1      -5.722   4.378  -1.126  0.00  0.00    +0.012 A 
ATOM     14  C   UNL     1      -6.978   4.949  -1.107  0.00  0.00    +0.001 A 
ATOM     15  C   UNL     1      -7.596   5.232   0.098  0.00  0.00    +0.004 A 
ATOM     16  C   UNL     1      -6.963   4.940   1.292  0.00  0.00    +0.046 A 
ATOM     17  C   UNL     1      -5.704   4.362   1.287  0.00  0.00    +0.128 A 
BRANCH  17  18
ATOM     18  O   UNL     1      -5.081   4.075   2.460  0.00  0.00    -0.494 OA
ATOM     19  C   UNL     1      -5.782   4.397   3.663  0.00  0.00    +0.277 C 
ENDBRANCH  17  18
ENDBRANCH   9  12
BRANCH   8  20
ATOM     20  C   UNL     1      -4.828   1.247   0.054  0.00  0.00    +0.451 C 
ATOM     21  F   UNL     1      -5.224   0.989  -1.262  0.00  0.00    -0.163 F 
ATOM     22  F   UNL     1      -4.556   0.039   0.705  0.00  0.00    -0.163 F 
ATOM     23  F   UNL     1      -5.856   1.918   0.727  0.00  0.00    -0.163 F 
ENDBRANCH   8  20
BRANCH   2  24
ATOM     24  O   UNL     1       2.352   1.546  -0.012  0.00  0.00    -0.506 OA
ATOM     25  H   UNL     1       3.300   2.106  -0.018  0.00  0.00    +0.292 HD
ENDBRANCH   2  24
BRANCH   1  26
ATOM     26  C   UNL     1       0.002  -0.004   0.002  0.00  0.00    +0.126 C 
BRANCH  26  30
ATOM     27  N   UNL     1       1.009  -2.059   3.553  0.00  0.00    +0.381 N 
ATOM     28  C   UNL     1      -0.248  -2.419   2.882  0.00  0.00    -0.063 C 
ATOM     29  C   UNL     1      -0.196  -1.954   1.425  0.00  0.00    +0.066 C 
ATOM     30  N   UNL     1       0.022  -0.501   1.384  0.00  0.00    -0.301 NA
ATOM     31  C   UNL     1       1.279  -0.141   2.055  0.00  0.00    +0.066 C 
ATOM     32  C   UNL     1       1.227  -0.606   3.513  0.00  0.00    -0.063 C 
ATOM     33  H   UNL     1       1.835  -2.542   3.009  0.00  0.00    -0.082 HD
BRANCH  27  35
ATOM     34  C   UNL     1       2.433  -2.386   5.518  0.00  0.00    -0.017 C 
ATOM     35  C   UNL     1       1.029  -2.556   4.935  0.00  0.00    -0.082 C 
ENDBRANCH  27  35
ENDBRANCH  26  30
ENDBRANCH   1  26
TORSDOF 7
