REMARK  Name = ZINC38789305
REMARK  9 active torsions:
REMARK  status: ('A' for Active; 'I' for Inactive)
REMARK    1  A    between atoms: C_1  and  C_2
REMARK    2  A    between atoms: C_4  and  O_28
REMARK    3  A    between atoms: C_5  and  C_25
REMARK    4  A    between atoms: C_7  and  N_8
REMARK    5  A    between atoms: N_8  and  C_9
REMARK    6  A    between atoms: C_9  and  C_10
REMARK    7  A    between atoms: C_25  and  C_26
REMARK    8  A    between atoms: C_25  and  C_27
REMARK    9  A    between atoms: O_28  and  C_29
REMARK                            x       y       z     vdW  Elec       q    Type
REMARK                         _______ _______ _______ _____ _____    ______ ____
ROOT
ATOM      1  C   UNL     1       0.047  -0.752   3.681  0.00  0.00    +0.118 C 
ENDROOT
BRANCH   1   2
ATOM      2  C   UNL     1       0.045   0.235   4.849  0.00  0.00    +0.115 C 
ATOM      3  C   UNL     1       0.289  -0.551   6.122  0.00  0.00    -0.003 C 
ATOM      4  C   UNL     1      -0.654  -0.469   7.099  0.00  0.00    -0.003 A 
ATOM      5  C   UNL     1      -0.493  -1.198   8.358  0.00  0.00    +0.059 A 
ATOM      6  C   UNL     1      -1.454  -1.095   9.313  0.00  0.00    +0.167 A 
ATOM      7  C   UNL     1      -2.602  -0.299   9.112  0.00  0.00    +0.168 A 
ATOM      8  C   UNL     1      -2.800   0.408   7.944  0.00  0.00    +0.073 A 
ATOM      9  C   UNL     1      -1.860   0.358   6.907  0.00  0.00    +0.044 A 
ATOM     10  N   UNL     1      -2.071   1.050   5.785  0.00  0.00    -0.284 N 
ATOM     11  C   UNL     1      -1.228   1.047   4.768  0.00  0.00    +0.226 C 
ATOM     12  O   UNL     1      -1.475   1.697   3.769  0.00  0.00    -0.275 OA
ATOM     13  O   UNL     1      -3.381  -0.387  10.228  0.00  0.00    -0.453 OA
ATOM     14  C   UNL     1      -2.922  -1.555  10.931  0.00  0.00    +0.466 C 
ATOM     15  O   UNL     1      -1.539  -1.668  10.552  0.00  0.00    -0.453 OA
ATOM     16  H   UNL     1      -2.881   1.578   5.712  0.00  0.00    +0.155 HD
ENDBRANCH   1   2
BRANCH   1  17
ATOM     17  N   UNL     1       0.025  -0.012   2.416  0.00  0.00    -0.343 N 
ATOM     18  H   UNL     1       0.012   0.958   2.422  0.00  0.00    +0.146 HD
BRANCH  17  25
ATOM     19  C   UNL     1      -0.018   1.503   0.010  0.00  0.00    +0.046 C 
ATOM     20  C   UNL     1       0.002  -0.004   0.002  0.00  0.00    -0.026 A 
ATOM     21  C   UNL     1       0.006  -0.688  -1.198  0.00  0.00    +0.051 A 
ATOM     22  C   UNL     1       0.025  -2.075  -1.206  0.00  0.00    +0.124 A 
ATOM     23  C   UNL     1       0.040  -2.776  -0.009  0.00  0.00    -0.001 A 
ATOM     24  C   UNL     1       0.036  -2.094   1.192  0.00  0.00    +0.030 A 
ATOM     25  C   UNL     1       0.023  -0.705   1.200  0.00  0.00    +0.031 A 
BRANCH  23  26
ATOM     26  C   UNL     1       0.059  -4.283  -0.019  0.00  0.00    +0.016 C 
ATOM     27  C   UNL     1       1.319  -4.781   0.693  0.00  0.00    +0.012 C 
ATOM     28  C   UNL     1      -1.179  -4.814   0.705  0.00  0.00    +0.012 C 
ENDBRANCH  23  26
BRANCH  22  29
ATOM     29  O   UNL     1       0.028  -2.748  -2.388  0.00  0.00    -0.495 OA
ATOM     30  C   UNL     1       0.011  -1.963  -3.581  0.00  0.00    +0.277 C 
ENDBRANCH  22  29
ENDBRANCH  17  25
ENDBRANCH   1  17
TORSDOF 5
