REMARK  Name = ZINC09299516
REMARK  7 active torsions:
REMARK  status: ('A' for Active; 'I' for Inactive)
REMARK    1  A    between atoms: C_1  and  C_2
REMARK    2  A    between atoms: C_2  and  C_3
REMARK    3  A    between atoms: C_3  and  N_4
REMARK    4  A    between atoms: C_8  and  S_23
REMARK    5  A    between atoms: N_13  and  C_14
REMARK    6  A    between atoms: C_14  and  C_16
REMARK    7  A    between atoms: S_23  and  C_26
REMARK                            x       y       z     vdW  Elec       q    Type
REMARK                         _______ _______ _______ _____ _____    ______ ____
ROOT
ATOM      1  N   UNL     1      -2.850   1.522   2.483  0.00  0.00    -0.321 N 
ATOM      2  C   UNL     1      -2.813   0.766   3.640  0.00  0.00    +0.058 A 
ATOM      3  C   UNL     1      -2.167  -0.462   3.857  0.00  0.00    +0.029 A 
ATOM      4  C   UNL     1      -2.227  -1.080   5.084  0.00  0.00    +0.029 A 
ATOM      5  C   UNL     1      -2.918  -0.511   6.141  0.00  0.00    +0.089 A 
ATOM      6  C   UNL     1      -3.559   0.701   5.956  0.00  0.00    +0.044 A 
ATOM      7  C   UNL     1      -3.499   1.320   4.730  0.00  0.00    +0.041 A 
ATOM      8  S   UNL     1      -4.154   2.833   4.073  0.00  0.00    -0.052 S 
ATOM      9  C   UNL     1      -3.527   2.702   2.461  0.00  0.00    +0.167 A 
ATOM     10  N   UNL     1      -3.673   3.549   1.448  0.00  0.00    -0.152 NA
ENDROOT
BRANCH   5  11
ATOM     11  S   UNL     1      -2.980  -1.323   7.704  0.00  0.00    -0.006 S 
ATOM     12  O   UNL     1      -1.804  -2.120   7.745  0.00  0.00    -0.170 OA
ATOM     13  O   UNL     1      -3.181  -0.279   8.647  0.00  0.00    -0.170 OA
ATOM     14  C   UNL     1      -4.451  -2.382   7.622  0.00  0.00    +0.200 C 
ENDBRANCH   5  11
BRANCH  10  15
ATOM     15  C   UNL     1      -4.381   4.671   1.613  0.00  0.00    +0.269 C 
ATOM     16  O   UNL     1      -4.892   4.917   2.692  0.00  0.00    -0.268 OA
BRANCH  15  17
ATOM     17  C   UNL     1      -4.544   5.616   0.484  0.00  0.00    +0.039 A 
ATOM     18  C   UNL     1      -3.955   5.340  -0.750  0.00  0.00    +0.014 A 
ATOM     19  C   UNL     1      -4.115   6.221  -1.800  0.00  0.00    +0.016 A 
ATOM     20  C   UNL     1      -4.849   7.382  -1.627  0.00  0.00    +0.018 A 
ATOM     21  C   UNL     1      -5.431   7.664  -0.402  0.00  0.00    +0.016 A 
ATOM     22  C   UNL     1      -5.282   6.788   0.652  0.00  0.00    +0.014 A 
ATOM     23 BR   UNL     1      -5.057   8.588  -3.068  0.00  0.00    -0.050 Br
ENDBRANCH  15  17
ENDBRANCH  10  15
BRANCH   1  24
ATOM     24  C   UNL     1      -2.164   1.050   1.278  0.00  0.00    +0.124 C 
BRANCH  24  26
ATOM     25  C   UNL     1      -0.013   1.086   0.008  0.00  0.00    +0.005 C 
ATOM     26  C   UNL     1      -0.729   1.579   1.267  0.00  0.00    +0.018 C 
ENDBRANCH  24  26
ENDBRANCH   1  24
TORSDOF 5
