REMARK  Name = ZINC20206623
REMARK  7 active torsions:
REMARK  status: ('A' for Active; 'I' for Inactive)
REMARK    1  A    between atoms: C_1  and  C_2
REMARK    2  A    between atoms: C_2  and  S_3
REMARK    3  A    between atoms: S_3  and  C_6
REMARK    4  A    between atoms: C_14  and  C_15
REMARK    5  A    between atoms: C_18  and  O_21
REMARK    6  A    between atoms: O_21  and  C_22
REMARK    7  A    between atoms: C_22  and  C_23
REMARK                            x       y       z     vdW  Elec       q    Type
REMARK                         _______ _______ _______ _____ _____    ______ ____
ROOT
ATOM      1  C   UNL     1       4.015   2.266   1.092  0.00  0.00    +0.257 C 
ATOM      2  N   UNL     1       4.248   3.440   1.593  0.00  0.00    -0.174 NA
ATOM      3  S   UNL     1       4.006   3.241   3.239  0.00  0.00    +0.049 S 
ATOM      4  C   UNL     1       3.654   1.612   3.267  0.00  0.00    +0.183 C 
ATOM      5  N   UNL     1       3.414   0.813   4.282  0.00  0.00    -0.152 NA
ATOM      6  C   UNL     1       3.216  -0.500   4.061  0.00  0.00    +0.273 C 
ATOM      7  O   UNL     1       2.862  -1.239   4.965  0.00  0.00    -0.268 OA
ATOM      8  C   UNL     1       3.438  -1.025   2.691  0.00  0.00    +0.078 C 
ATOM      9  C   UNL     1       3.765  -2.343   2.462  0.00  0.00    +0.024 C 
ATOM     10  C   UNL     1       3.286  -0.046   1.576  0.00  0.00    +0.117 C 
ATOM     11  N   UNL     1       2.847  -0.370   0.390  0.00  0.00    -0.386 N 
ATOM     12  N   UNL     1       3.659   1.266   1.931  0.00  0.00    -0.203 N 
ATOM     13  H   UNL     1       2.693  -1.302   0.168  0.00  0.00    +0.157 HD
ATOM     14  H   UNL     1       2.674   0.321  -0.268  0.00  0.00    +0.157 HD
ENDROOT
BRANCH   9  15
ATOM     15  C   UNL     1       4.114  -3.216   3.584  0.00  0.00    -0.024 A 
ATOM     16  C   UNL     1       3.697  -4.555   3.590  0.00  0.00    +0.011 A 
ATOM     17  C   UNL     1       4.027  -5.368   4.644  0.00  0.00    +0.046 A 
ATOM     18  C   UNL     1       4.773  -4.867   5.706  0.00  0.00    +0.121 A 
ATOM     19  C   UNL     1       5.189  -3.540   5.706  0.00  0.00    +0.046 A 
ATOM     20  C   UNL     1       4.871  -2.719   4.655  0.00  0.00    +0.011 A 
BRANCH  18  21
ATOM     21  O   UNL     1       5.096  -5.677   6.746  0.00  0.00    -0.487 OA
BRANCH  21  22
ATOM     22  C   UNL     1       5.864  -5.099   7.803  0.00  0.00    +0.264 C 
BRANCH  22  23
ATOM     23  C   UNL     1       6.124  -6.139   8.862  0.00  0.00    -0.010 A 
ATOM     24  C   UNL     1       5.230  -6.303   9.904  0.00  0.00    +0.010 A 
ATOM     25  C   UNL     1       5.468  -7.258  10.875  0.00  0.00    +0.039 A 
ATOM     26  C   UNL     1       6.601  -8.050  10.803  0.00  0.00    +0.123 A 
ATOM     27  C   UNL     1       7.495  -7.885   9.759  0.00  0.00    +0.039 A 
ATOM     28  C   UNL     1       7.253  -6.934   8.787  0.00  0.00    +0.010 A 
ATOM     29  F   UNL     1       6.834  -8.983  11.752  0.00  0.00    -0.205 F 
ENDBRANCH  22  23
ENDBRANCH  21  22
ENDBRANCH  18  21
ENDBRANCH   9  15
BRANCH   1  30
ATOM     30  S   UNL     1       4.151   1.983  -0.642  0.00  0.00    +0.029 S 
ATOM     31  O   UNL     1       4.528   0.618  -0.757  0.00  0.00    -0.167 OA
ATOM     32  O   UNL     1       5.009   3.014  -1.112  0.00  0.00    -0.167 OA
BRANCH  30  34
ATOM     33  C   UNL     1       2.440   1.857  -2.772  0.00  0.00    +0.028 C 
ATOM     34  C   UNL     1       2.473   2.224  -1.287  0.00  0.00    +0.172 C 
ENDBRANCH  30  34
ENDBRANCH   1  30
TORSDOF 6
