REMARK  Name = ZINC63384258
REMARK  6 active torsions:
REMARK  status: ('A' for Active; 'I' for Inactive)
REMARK    1  A    between atoms: C_1  and  O_2
REMARK    2  A    between atoms: O_2  and  C_3
REMARK    3  A    between atoms: C_10  and  C_18
REMARK    4  A    between atoms: N_24  and  C_27
REMARK    5  A    between atoms: C_27  and  C_28
REMARK    6  A    between atoms: C_28  and  C_29
REMARK                            x       y       z     vdW  Elec       q    Type
REMARK                         _______ _______ _______ _____ _____    ______ ____
ROOT
ATOM      1  C   UNL     1      -4.607  -4.217   2.394  0.00  0.00    +0.100 A 
ATOM      2  H   UNL     1      -2.206  -3.043   4.224  0.00  0.00    +0.173 HD
ATOM      3  C   UNL     1      -3.332  -3.900   2.761  0.00  0.00    +0.263 A 
ATOM      4  N   UNL     1      -3.111  -3.271   3.959  0.00  0.00    -0.274 N 
ATOM      5  C   UNL     1      -4.141  -2.967   4.770  0.00  0.00    +0.332 A 
ATOM      6  O   UNL     1      -3.926  -2.410   5.829  0.00  0.00    -0.246 OA
ATOM      7  N   UNL     1      -5.406  -3.271   4.427  0.00  0.00    -0.260 N 
ATOM      8  C   UNL     1      -5.668  -3.884   3.255  0.00  0.00    +0.265 A 
ATOM      9  O   UNL     1      -6.816  -4.153   2.946  0.00  0.00    -0.267 OA
ATOM     10  O   UNL     1      -2.296  -4.204   1.950  0.00  0.00    -0.267 OA
ENDROOT
BRANCH   1  17
ATOM     11  C   UNL     1      -0.843  -0.950   0.101  0.00  0.00    +0.121 A 
ATOM     12  C   UNL     1      -1.954  -0.089   0.052  0.00  0.00    +0.047 A 
ATOM     13  C   UNL     1      -3.224  -0.545   0.013  0.00  0.00    +0.029 A 
ATOM     14  C   UNL     1      -3.482  -1.988   0.021  0.00  0.00    +0.043 A 
ATOM     15  N   UNL     1      -4.599  -2.678   0.013  0.00  0.00    -0.376 N 
ATOM     16  C   UNL     1      -4.264  -4.097  -0.063  0.00  0.00    +0.128 C 
ATOM     17  C   UNL     1      -4.875  -4.908   1.083  0.00  0.00    +0.121 C 
ATOM     18  N   UNL     1      -4.253  -6.242   1.088  0.00  0.00    -0.307 NA
ATOM     19  C   UNL     1      -2.830  -6.215   1.437  0.00  0.00    +0.086 C 
ATOM     20  C   UNL     1      -2.034  -5.468   0.352  0.00  0.00    +0.048 C 
ATOM     21  C   UNL     1      -2.753  -4.162   0.097  0.00  0.00    -0.035 C 
ATOM     22  C   UNL     1      -2.311  -2.899   0.083  0.00  0.00    +0.003 A 
ATOM     23  C   UNL     1      -0.972  -2.297   0.112  0.00  0.00    +0.055 A 
ATOM     24  H   UNL     1      -4.761  -6.875   1.687  0.00  0.00    +0.123 HD
ATOM     25  H   UNL     1      -5.494  -2.308   0.051  0.00  0.00    +0.160 HD
BRANCH  11  27
ATOM     26  C   UNL     1       0.494   1.016   0.120  0.00  0.00    +0.277 C 
ATOM     27  O   UNL     1       0.404  -0.410   0.134  0.00  0.00    -0.495 OA
ENDBRANCH  11  27
ENDBRANCH   1  17
BRANCH   7  28
ATOM     28  C   UNL     1      -6.507  -2.929   5.330  0.00  0.00    +0.134 C 
BRANCH  28  29
ATOM     29  C   UNL     1      -7.023  -1.527   4.997  0.00  0.00    +0.057 C 
BRANCH  29  30
ATOM     30  C   UNL     1      -8.156  -1.174   5.926  0.00  0.00    -0.046 A 
ATOM     31  C   UNL     1      -9.456  -1.490   5.580  0.00  0.00    +0.006 A 
ATOM     32  C   UNL     1     -10.496  -1.167   6.431  0.00  0.00    +0.038 A 
ATOM     33  C   UNL     1     -10.235  -0.528   7.631  0.00  0.00    +0.123 A 
ATOM     34  C   UNL     1      -8.931  -0.213   7.977  0.00  0.00    +0.038 A 
ATOM     35  C   UNL     1      -7.893  -0.541   7.126  0.00  0.00    +0.006 A 
ATOM     36  F   UNL     1     -11.250  -0.212   8.464  0.00  0.00    -0.205 F 
ENDBRANCH  29  30
ENDBRANCH  28  29
ENDBRANCH   7  28
TORSDOF 5
