REMARK  Name = ZINC36648041
REMARK  11 active torsions:
REMARK  status: ('A' for Active; 'I' for Inactive)
REMARK    1  A    between atoms: C_1  and  N_2
REMARK    2  A    between atoms: N_2  and  C_3
REMARK    3  A    between atoms: N_2  and  C_4
REMARK    4  A    between atoms: C_4  and  C_5
REMARK    5  A    between atoms: C_5  and  C_6
REMARK    6  A    between atoms: C_6  and  N_7
REMARK    7  A    between atoms: C_13  and  O_17
REMARK    8  A    between atoms: O_17  and  C_18
REMARK    9  A    between atoms: C_19  and  C_21
REMARK   10  A    between atoms: N_27  and  S_28
REMARK   11  A    between atoms: S_28  and  C_31
REMARK                            x       y       z     vdW  Elec       q    Type
REMARK                         _______ _______ _______ _____ _____    ______ ____
ROOT
ATOM      1  N   UNL     1      -2.913  -3.672  -0.410  0.00  0.00    -0.249 N 
ATOM      2  C   UNL     1      -2.906  -4.459   0.732  0.00  0.00    +0.168 A 
ATOM      3  N   UNL     1      -3.011  -4.089   1.986  0.00  0.00    -0.224 NA
ATOM      4  C   UNL     1      -2.989  -4.974   3.008  0.00  0.00    +0.081 A 
ATOM      5  C   UNL     1      -3.091  -4.708   4.393  0.00  0.00    +0.032 A 
ATOM      6  C   UNL     1      -3.050  -5.728   5.308  0.00  0.00    +0.048 A 
ATOM      7  C   UNL     1      -2.908  -7.054   4.911  0.00  0.00    +0.121 A 
ATOM      8  C   UNL     1      -2.806  -7.349   3.560  0.00  0.00    +0.063 A 
ATOM      9  C   UNL     1      -2.846  -6.331   2.640  0.00  0.00    +0.044 A 
ATOM     10  S   UNL     1      -2.761  -6.235   0.868  0.00  0.00    -0.052 S 
ATOM     11  C   UNL     1      -2.799  -4.246  -1.624  0.00  0.00    +0.240 C 
ATOM     12  O   UNL     1      -2.790  -5.454  -1.726  0.00  0.00    -0.273 OA
ENDROOT
BRANCH  11  13
ATOM     13  C   UNL     1      -2.683  -3.385  -2.856  0.00  0.00    +0.166 C 
ATOM     14  C   UNL     1      -1.340  -3.649  -3.542  0.00  0.00    +0.030 C 
ATOM     15  C   UNL     1      -1.286  -2.879  -4.864  0.00  0.00    +0.003 C 
ATOM     16  C   UNL     1      -2.405  -3.368  -5.787  0.00  0.00    +0.017 C 
ATOM     17  C   UNL     1      -3.760  -3.100  -5.126  0.00  0.00    +0.110 C 
ATOM     18  N   UNL     1      -3.768  -3.715  -3.790  0.00  0.00    -0.164 NA
BRANCH  18  19
ATOM     19  S   UNL     1      -4.973  -4.761  -3.349  0.00  0.00    +0.068 S 
ATOM     20  O   UNL     1      -5.024  -4.747  -1.929  0.00  0.00    -0.152 OA
ATOM     21  O   UNL     1      -6.100  -4.445  -4.155  0.00  0.00    -0.152 OA
BRANCH  19  22
ATOM     22  C   UNL     1      -4.456  -6.379  -3.819  0.00  0.00    +0.143 A 
ATOM     23  C   UNL     1      -3.883  -7.345  -3.061  0.00  0.00    +0.036 A 
ATOM     24  C   UNL     1      -3.558  -8.553  -3.649  0.00  0.00    +0.010 A 
ATOM     25  C   UNL     1      -3.822  -8.736  -4.966  0.00  0.00    +0.047 A 
ATOM     26  S   UNL     1      -4.559  -7.173  -5.415  0.00  0.00    -0.077 S 
ENDBRANCH  19  22
ENDBRANCH  18  19
ENDBRANCH  11  13
BRANCH   7  27
ATOM     27  O   UNL     1      -2.869  -8.049   5.837  0.00  0.00    -0.495 OA
ATOM     28  C   UNL     1      -2.981  -7.663   7.209  0.00  0.00    +0.277 C 
ENDBRANCH   7  27
BRANCH   1  29
ATOM     29  C   UNL     1      -3.044  -2.217  -0.296  0.00  0.00    +0.114 C 
BRANCH  29  30
ATOM     30  C   UNL     1      -1.655  -1.578  -0.310  0.00  0.00    +0.001 C 
BRANCH  30  31
ATOM     31  C   UNL     1      -1.795  -0.054  -0.316  0.00  0.00    -0.078 C 
BRANCH  31  33
ATOM     32  C   UNL     1      -0.594   2.018  -0.457  0.00  0.00    -0.097 C 
ATOM     33  N   UNL     1      -0.460   0.560  -0.330  0.00  0.00    +0.376 N 
ATOM     34  C   UNL     1       0.239   0.240   0.922  0.00  0.00    -0.097 C 
ATOM     35  H   UNL     1       0.067   0.202  -1.111  0.00  0.00    -0.083 HD
ENDBRANCH  31  33
ENDBRANCH  30  31
ENDBRANCH  29  30
ENDBRANCH   1  29
TORSDOF 8
