REMARK  Name = ZINC21177356
REMARK  4 active torsions:
REMARK  status: ('A' for Active; 'I' for Inactive)
REMARK    1  A    between atoms: C_1  and  C_2
REMARK    2  A    between atoms: C_20  and  C_22
REMARK    3  A    between atoms: C_27  and  O_28
REMARK    4  A    between atoms: O_28  and  C_29
REMARK                            x       y       z     vdW  Elec       q    Type
REMARK                         _______ _______ _______ _____ _____    ______ ____
ROOT
ATOM      1  C   UNL     1       1.824  -3.204   0.261  0.00  0.00    +0.068 C 
ATOM      2  C   UNL     1       0.848  -2.065   0.115  0.00  0.00    +0.066 A 
ATOM      3  C   UNL     1       1.157  -0.714   0.192  0.00  0.00    +0.023 A 
ATOM      4  C   UNL     1       0.002  -0.004   0.002  0.00  0.00    +0.135 A 
ATOM      5  N   UNL     1      -0.999  -0.894  -0.177  0.00  0.00    -0.193 N 
ATOM      6  N   UNL     1      -0.441  -2.181  -0.106  0.00  0.00    -0.168 NA
ATOM      7  C   UNL     1      -2.338  -0.591  -0.394  0.00  0.00    +0.196 A 
ATOM      8  N   UNL     1      -3.348  -1.408  -0.574  0.00  0.00    -0.221 NA
ATOM      9  C   UNL     1      -4.609  -0.971  -0.774  0.00  0.00    +0.081 A 
ATOM     10  C   UNL     1      -5.779  -1.740  -0.979  0.00  0.00    +0.029 A 
ATOM     11  C   UNL     1      -6.992  -1.133  -1.170  0.00  0.00    +0.002 A 
ATOM     12  C   UNL     1      -7.119   0.249  -1.168  0.00  0.00    +0.001 A 
ATOM     13  C   UNL     1      -5.997   1.032  -0.970  0.00  0.00    +0.017 A 
ATOM     14  C   UNL     1      -4.777   0.433  -0.779  0.00  0.00    +0.041 A 
ATOM     15  S   UNL     1      -3.123   1.012  -0.490  0.00  0.00    -0.048 S 
ATOM     16  N   UNL     1      -0.017   1.389   0.010  0.00  0.00    -0.270 N 
ATOM     17  C   UNL     1       1.166   2.041   0.002  0.00  0.00    +0.219 C 
ATOM     18  O   UNL     1       1.179   3.237   0.198  0.00  0.00    -0.275 OA
ATOM     19  C   UNL     1       2.466   1.328  -0.242  0.00  0.00    +0.109 C 
ATOM     20  C   UNL     1       2.485  -0.044   0.439  0.00  0.00    +0.066 C 
ATOM     21  H   UNL     1      -0.977   1.926   0.022  0.00  0.00    +0.156 HD
ENDROOT
BRANCH  20  22
ATOM     22  C   UNL     1       3.593  -0.883  -0.142  0.00  0.00    +0.002 A 
ATOM     23  C   UNL     1       3.609  -1.170  -1.493  0.00  0.00    +0.008 A 
ATOM     24  C   UNL     1       4.628  -1.936  -2.027  0.00  0.00    +0.001 A 
ATOM     25  C   UNL     1       5.629  -2.427  -1.208  0.00  0.00    +0.004 A 
ATOM     26  C   UNL     1       5.615  -2.148   0.144  0.00  0.00    +0.046 A 
ATOM     27  C   UNL     1       4.596  -1.375   0.682  0.00  0.00    +0.124 A 
BRANCH  27  28
ATOM     28  O   UNL     1       4.580  -1.099   2.012  0.00  0.00    -0.495 OA
ATOM     29  C   UNL     1       5.644  -1.638   2.799  0.00  0.00    +0.277 C 
ENDBRANCH  27  28
ENDBRANCH  20  22
TORSDOF 2
