REMARK  Name = ZINC14984926
REMARK  11 active torsions:
REMARK  status: ('A' for Active; 'I' for Inactive)
REMARK    1  A    between atoms: C_1  and  C_2
REMARK    2  A    between atoms: C_2  and  O_3
REMARK    3  A    between atoms: O_3  and  C_4
REMARK    4  A    between atoms: C_4  and  C_6
REMARK    5  A    between atoms: C_12  and  C_14
REMARK    6  A    between atoms: C_14  and  O_15
REMARK    7  A    between atoms: O_15  and  C_16
REMARK    8  A    between atoms: C_19  and  C_30
REMARK    9  A    between atoms: C_21  and  C_22
REMARK   10  A    between atoms: C_22  and  N_76
REMARK   11  A    between atoms: C_26  and  C_29
REMARK                            x       y       z     vdW  Elec       q    Type
REMARK                         _______ _______ _______ _____ _____    ______ ____
ROOT
ATOM      1  C   UNL     1      -2.317  -0.562  -0.771  0.00  0.00    +0.123 A 
ATOM      2  C   UNL     1      -3.597  -1.048  -0.539  0.00  0.00    +0.046 A 
ATOM      3  C   UNL     1      -3.952  -1.486   0.719  0.00  0.00    +0.012 A 
ATOM      4  C   UNL     1      -3.023  -1.446   1.757  0.00  0.00    -0.017 A 
ATOM      5  C   UNL     1      -1.737  -0.964   1.520  0.00  0.00    +0.013 A 
ATOM      6  C   UNL     1      -1.388  -0.527   0.259  0.00  0.00    -0.022 A 
ENDROOT
BRANCH   4   7
ATOM      7  C   UNL     1      -3.402  -1.918   3.112  0.00  0.00    -0.014 A 
ATOM      8  C   UNL     1      -2.472  -1.878   4.150  0.00  0.00    +0.012 A 
ATOM      9  C   UNL     1      -2.826  -2.317   5.410  0.00  0.00    +0.050 A 
ATOM     10  C   UNL     1      -4.105  -2.796   5.648  0.00  0.00    +0.166 A 
ATOM     11  C   UNL     1      -5.038  -2.838   4.613  0.00  0.00    +0.167 A 
ATOM     12  C   UNL     1      -4.689  -2.395   3.350  0.00  0.00    +0.058 A 
ATOM     13  O   UNL     1      -6.208  -3.346   5.101  0.00  0.00    -0.453 OA
ATOM     14  C   UNL     1      -6.108  -3.232   6.533  0.00  0.00    +0.466 C 
ATOM     15  O   UNL     1      -4.691  -3.279   6.783  0.00  0.00    -0.453 OA
ENDBRANCH   4   7
BRANCH   1  16
ATOM     16  O   UNL     1      -1.971  -0.126  -2.011  0.00  0.00    -0.483 OA
BRANCH  16  17
ATOM     17  C   UNL     1      -2.976  -0.191  -3.025  0.00  0.00    +0.324 C 
BRANCH  17  24
ATOM     18  C   UNL     1      -4.366  -0.557  -7.827  0.00  0.00    +0.101 C 
ATOM     19  C   UNL     1      -2.882  -0.186  -7.783  0.00  0.00    +0.033 C 
ATOM     20  C   UNL     1      -2.655   0.872  -6.698  0.00  0.00    +0.108 C 
ATOM     21  N   UNL     1      -3.188   0.365  -5.426  0.00  0.00    -0.299 N 
ATOM     22  C   UNL     1      -4.578  -0.109  -5.381  0.00  0.00    +0.108 C 
ATOM     23  C   UNL     1      -4.785  -1.150  -6.479  0.00  0.00    +0.033 C 
ATOM     24  C   UNL     1      -2.415   0.331  -4.323  0.00  0.00    +0.253 C 
ATOM     25  O   UNL     1      -1.268   0.721  -4.374  0.00  0.00    -0.272 OA
BRANCH  18  26
ATOM     26  C   UNL     1      -4.598  -1.572  -8.916  0.00  0.00    +0.310 C 
ATOM     27  O   UNL     1      -3.671  -1.959  -9.588  0.00  0.00    -0.251 OA
BRANCH  26  28
ATOM     28  O   UNL     1      -5.833  -2.046  -9.139  0.00  0.00    -0.465 OA
BRANCH  28  30
ATOM     29  C   UNL     1      -7.450  -3.443 -10.309  0.00  0.00    +0.048 C 
ATOM     30  C   UNL     1      -5.982  -3.022 -10.205  0.00  0.00    +0.229 C 
ENDBRANCH  28  30
ENDBRANCH  26  28
ENDBRANCH  18  26
ENDBRANCH  17  24
ENDBRANCH  16  17
ENDBRANCH   1  16
BRANCH   6  31
ATOM     31  C   UNL     1       0.002  -0.004   0.002  0.00  0.00    -0.039 C 
BRANCH  31  38
ATOM     32  C   UNL     1      -0.806   1.987  -1.113  0.00  0.00    -0.078 C 
ATOM     33  C   UNL     1      -0.927   3.507  -0.991  0.00  0.00    -0.018 C 
ATOM     34  C   UNL     1       0.473   4.127  -0.995  0.00  0.00    -0.001 C 
ATOM     35  C   UNL     1       1.290   3.531   0.155  0.00  0.00    -0.031 C 
ATOM     36  C   UNL     1       1.346   2.010   0.000  0.00  0.00    -0.075 C 
ATOM     37  C   UNL     1       2.710   4.100   0.124  0.00  0.00    +0.005 C 
ATOM     38  N   UNL     1      -0.031   1.473   0.036  0.00  0.00    +0.383 N 
ATOM     39  H   UNL     1      -0.485   1.776   0.906  0.00  0.00    -0.081 HD
ENDBRANCH  31  38
ENDBRANCH   6  31
TORSDOF 9
