REMARK  Name = ZINC03192492
REMARK  7 active torsions:
REMARK  status: ('A' for Active; 'I' for Inactive)
REMARK    1  A    between atoms: C_1  and  C_2
REMARK    2  A    between atoms: C_2  and  N_3
REMARK    3  A    between atoms: N_3  and  N_4
REMARK    4  A    between atoms: C_5  and  C_7
REMARK    5  A    between atoms: C_10  and  N_14
REMARK    6  A    between atoms: C_17  and  C_18
REMARK    7  A    between atoms: N_20  and  C_21
REMARK                            x       y       z     vdW  Elec       q    Type
REMARK                         _______ _______ _______ _____ _____    ______ ____
ROOT
ATOM      1  C   UNL     1      -1.981  -3.029  -0.292  0.00  0.00    +0.062 C 
ATOM      2  C   UNL     1      -3.407  -2.542  -0.307  0.00  0.00    +0.024 C 
ATOM      3  C   UNL     1      -3.700  -1.068  -0.198  0.00  0.00    +0.087 C 
ENDROOT
BRANCH   3   4
ATOM      4  C   UNL     1      -2.406  -0.304  -0.088  0.00  0.00    +0.243 C 
ATOM      5  O   UNL     1      -1.349  -0.899  -0.096  0.00  0.00    -0.270 OA
ATOM      6  N   UNL     1      -2.422   1.039   0.020  0.00  0.00    -0.282 N 
ATOM      7  H   UNL     1      -3.380   1.571   0.119  0.00  0.00    +0.155 HD
BRANCH   6   8
ATOM      8  C   UNL     1      -1.221   1.757   0.006  0.00  0.00    +0.037 A 
ATOM      9  C   UNL     1      -0.103   1.218  -0.611  0.00  0.00    +0.023 A 
ATOM     10  C   UNL     1       1.079   1.930  -0.628  0.00  0.00    +0.002 A 
ATOM     11  C   UNL     1       1.143   3.169  -0.023  0.00  0.00    +0.004 A 
ATOM     12  C   UNL     1       0.028   3.712   0.603  0.00  0.00    -0.042 A 
ATOM     13  C   UNL     1      -1.154   3.008   0.619  0.00  0.00    -0.023 A 
ATOM     14  C   UNL     1      -2.405   3.538   1.271  0.00  0.00    +0.037 C 
ATOM     15  C   UNL     1      -2.068   4.673   2.236  0.00  0.00    +0.005 C 
ATOM     16  C   UNL     1      -1.195   5.693   1.495  0.00  0.00    +0.005 C 
ATOM     17  C   UNL     1       0.175   5.065   1.247  0.00  0.00    +0.035 C 
ENDBRANCH   6   8
ENDBRANCH   3   4
BRANCH   2  18
ATOM     18  N   UNL     1      -4.369  -3.380  -0.411  0.00  0.00    -0.268 N 
ATOM     19  H   UNL     1      -5.410  -3.024  -0.421  0.00  0.00    +0.170 HD
BRANCH  18  20
ATOM     20  N   UNL     1      -4.096  -4.750  -0.511  0.00  0.00    -0.233 N 
ATOM     21  C   UNL     1      -5.109  -5.633  -0.621  0.00  0.00    +0.261 C 
ATOM     22  O   UNL     1      -6.260  -5.239  -0.632  0.00  0.00    -0.269 OA
ATOM     23  H   UNL     1      -3.055  -5.106  -0.501  0.00  0.00    +0.173 HD
BRANCH  21  24
ATOM     24  C   UNL     1      -4.822  -7.078  -0.727  0.00  0.00    +0.057 A 
ATOM     25  C   UNL     1      -3.502  -7.533  -0.714  0.00  0.00    +0.017 A 
ATOM     26  C   UNL     1      -3.240  -8.884  -0.813  0.00  0.00    +0.033 A 
ATOM     27  C   UNL     1      -4.282  -9.788  -0.926  0.00  0.00    +0.128 A 
ATOM     28  C   UNL     1      -5.592  -9.345  -0.940  0.00  0.00    +0.053 A 
ATOM     29  C   UNL     1      -5.869  -7.996  -0.835  0.00  0.00    +0.055 A 
ATOM     30 CL   UNL     1      -7.514  -7.442  -0.845  0.00  0.00    -0.083 Cl
BRANCH  27  31
ATOM     31  N   UNL     1      -3.993 -11.236  -1.032  0.00  0.00    +0.056 N 
ATOM     32  O   UNL     1      -2.840 -11.629  -1.020  0.00  0.00    -0.126 OA
ATOM     33  O   UNL     1      -4.907 -12.034  -1.131  0.00  0.00    -0.126 OA
ENDBRANCH  27  31
ENDBRANCH  21  24
ENDBRANCH  18  20
ENDBRANCH   2  18
TORSDOF 6
