REMARK  Name = ZINC24708803
REMARK  7 active torsions:
REMARK  status: ('A' for Active; 'I' for Inactive)
REMARK    1  A    between atoms: C_1  and  C_2
REMARK    2  A    between atoms: C_5  and  N_9
REMARK    3  A    between atoms: C_6  and  C_8
REMARK    4  A    between atoms: C_13  and  S_14
REMARK    5  A    between atoms: S_14  and  C_15
REMARK    6  A    between atoms: C_15  and  C_16
REMARK    7  A    between atoms: N_21  and  C_22
REMARK                            x       y       z     vdW  Elec       q    Type
REMARK                         _______ _______ _______ _____ _____    ______ ____
ROOT
ATOM      1  C   UNL     1      -7.192   1.201   2.099  0.00  0.00    +0.231 C 
ATOM      2  O   UNL     1      -6.796   1.898   3.008  0.00  0.00    -0.274 OA
ATOM      3  N   UNL     1      -6.368   0.892   1.079  0.00  0.00    -0.239 N 
ATOM      4  C   UNL     1      -5.103   1.358   1.069  0.00  0.00    +0.306 C 
ATOM      5  O   UNL     1      -4.707   2.057   1.980  0.00  0.00    -0.252 OA
ATOM      6  N   UNL     1      -4.279   1.049   0.049  0.00  0.00    -0.294 N 
ATOM      7  H   UNL     1      -6.727   0.259   0.254  0.00  0.00    +0.159 HD
ATOM      8  H   UNL     1      -4.638   0.417  -0.776  0.00  0.00    +0.151 HD
ENDROOT
BRANCH   6   9
ATOM      9  C   UNL     1      -2.904   1.556   0.038  0.00  0.00    +0.037 C 
ATOM     10  C   UNL     1      -2.188   1.063  -1.221  0.00  0.00    +0.029 C 
ATOM     11  C   UNL     1      -0.753   1.593  -1.232  0.00  0.00    -0.008 C 
ATOM     12  C   UNL     1      -0.013   1.086   0.008  0.00  0.00    +0.007 C 
ATOM     13  C   UNL     1      -0.729   1.579   1.267  0.00  0.00    -0.008 C 
ATOM     14  C   UNL     1      -2.164   1.050   1.278  0.00  0.00    +0.029 C 
ATOM     15  C   UNL     1      -0.750   3.109   1.275  0.00  0.00    +0.007 C 
ATOM     16  C   UNL     1      -1.490   3.616   0.036  0.00  0.00    -0.008 C 
ATOM     17  C   UNL     1      -0.773   3.123  -1.223  0.00  0.00    +0.007 C 
ATOM     18  C   UNL     1      -2.925   3.086   0.047  0.00  0.00    +0.029 C 
ENDBRANCH   6   9
BRANCH   1  19
ATOM     19  C   UNL     1      -8.606   0.679   2.110  0.00  0.00    +0.173 C 
BRANCH  19  20
ATOM     20  S   UNL     1      -9.453   1.263   3.599  0.00  0.00    -0.076 S 
BRANCH  20  25
ATOM     21  N   UNL     1     -12.114   0.623   4.196  0.00  0.00    -0.277 N 
ATOM     22  C   UNL     1     -13.111  -0.103   3.599  0.00  0.00    +0.230 A 
ATOM     23  N   UNL     1     -12.625  -0.591   2.493  0.00  0.00    -0.137 NA
ATOM     24  N   UNL     1     -11.403  -0.224   2.346  0.00  0.00    -0.122 NA
ATOM     25  C   UNL     1     -11.036   0.526   3.359  0.00  0.00    +0.196 A 
BRANCH  21  30
ATOM     26  C   UNL     1     -12.399   3.451   9.109  0.00  0.00    +0.044 C 
ATOM     27  C   UNL     1     -12.323   2.700   7.804  0.00  0.00    -0.050 A 
ATOM     28  C   UNL     1     -12.437   1.322   7.794  0.00  0.00    +0.005 A 
ATOM     29  C   UNL     1     -12.368   0.631   6.600  0.00  0.00    +0.027 A 
ATOM     30  C   UNL     1     -12.184   1.322   5.410  0.00  0.00    +0.053 A 
ATOM     31  C   UNL     1     -12.063   2.704   5.424  0.00  0.00    -0.026 A 
ATOM     32  C   UNL     1     -12.139   3.391   6.621  0.00  0.00    +0.008 A 
ATOM     33  C   UNL     1     -11.857   3.457   4.135  0.00  0.00    +0.046 C 
ENDBRANCH  21  30
ENDBRANCH  20  25
ENDBRANCH  19  20
ENDBRANCH   1  19
TORSDOF 5
