REMARK  Name = ZINC08171409
REMARK  5 active torsions:
REMARK  status: ('A' for Active; 'I' for Inactive)
REMARK    1  A    between atoms: C_5  and  S_6
REMARK    2  A    between atoms: S_6  and  N_9
REMARK    3  A    between atoms: C_14  and  C_15
REMARK    4  A    between atoms: C_14  and  N_49
REMARK    5  A    between atoms: N_17  and  C_18
REMARK                            x       y       z     vdW  Elec       q    Type
REMARK                         _______ _______ _______ _____ _____    ______ ____
ROOT
ATOM      1  N   UNL     1       1.210  -4.871   0.718  0.00  0.00    -0.180 NA
ATOM      2  C   UNL     1       1.978  -4.420  -0.452  0.00  0.00    +0.091 C 
ATOM      3  C   UNL     1       2.308  -2.934  -0.274  0.00  0.00    -0.061 C 
ATOM      4  C   UNL     1       0.435  -2.618   1.234  0.00  0.00    -0.061 C 
ATOM      5  C   UNL     1       0.029  -4.090   1.118  0.00  0.00    +0.091 C 
ATOM      6  N   UNL     1       1.049  -2.192  -0.043  0.00  0.00    +0.387 N 
ATOM      7  H   UNL     1       0.397  -2.396  -0.810  0.00  0.00    -0.081 HD
ENDROOT
BRANCH   1   8
ATOM      8  S   UNL     1       1.662  -6.221   1.563  0.00  0.00    +0.067 S 
ATOM      9  O   UNL     1       0.495  -6.701   2.217  0.00  0.00    -0.152 OA
ATOM     10  O   UNL     1       2.419  -7.025   0.669  0.00  0.00    -0.152 OA
BRANCH   8  15
ATOM     11  C   UNL     1       2.492  -5.306   4.097  0.00  0.00    +0.038 A 
ATOM     12  C   UNL     1       3.533  -4.932   4.927  0.00  0.00    +0.030 A 
ATOM     13  C   UNL     1       4.801  -4.969   4.446  0.00  0.00    +0.080 A 
ATOM     14  S   UNL     1       4.548  -5.551   2.778  0.00  0.00    -0.057 S 
ATOM     15  C   UNL     1       2.769  -5.697   2.830  0.00  0.00    +0.144 A 
ATOM     16 CL   UNL     1       6.287  -4.562   5.248  0.00  0.00    -0.076 Cl
ENDBRANCH   8  15
ENDBRANCH   1   8
BRANCH   6  17
ATOM     17  C   UNL     1       1.317  -0.740  -0.015  0.00  0.00    +0.019 C 
BRANCH  17  18
ATOM     18  C   UNL     1       0.002  -0.004   0.002  0.00  0.00    +0.197 C 
ATOM     19  O   UNL     1      -1.040  -0.625   0.009  0.00  0.00    -0.278 OA
ATOM     20  N   UNL     1      -0.016   1.344   0.009  0.00  0.00    -0.314 N 
ATOM     21  H   UNL     1       0.817   1.840   0.004  0.00  0.00    +0.149 HD
BRANCH  20  22
ATOM     22  C   UNL     1      -1.295   2.059   0.019  0.00  0.00    +0.073 C 
ATOM     23  C   UNL     1      -1.808   2.206  -1.414  0.00  0.00    +0.022 C 
ATOM     24  C   UNL     1      -3.143   2.953  -1.404  0.00  0.00    +0.002 C 
ATOM     25  C   UNL     1      -2.947   4.339  -0.788  0.00  0.00    +0.000 C 
ATOM     26  C   UNL     1      -2.434   4.192   0.646  0.00  0.00    +0.002 C 
ATOM     27  C   UNL     1      -1.099   3.445   0.636  0.00  0.00    +0.022 C 
ENDBRANCH  20  22
ENDBRANCH  17  18
ENDBRANCH   6  17
TORSDOF 5
