REMARK  Name = ZINC13151290
REMARK  7 active torsions:
REMARK  status: ('A' for Active; 'I' for Inactive)
REMARK    1  A    between atoms: C_1  and  C_2
REMARK    2  A    between atoms: C_2  and  C_3
REMARK    3  A    between atoms: C_2  and  C_4
REMARK    4  A    between atoms: C_2  and  C_5
REMARK    5  A    between atoms: C_12  and  N_23
REMARK    6  A    between atoms: C_13  and  C_21
REMARK    7  A    between atoms: C_14  and  C_16
REMARK                            x       y       z     vdW  Elec       q    Type
REMARK                         _______ _______ _______ _____ _____    ______ ____
ROOT
ATOM      1  C   UNL     1       1.218  -0.933  -1.952  0.00  0.00    +0.076 A 
ATOM      2  C   UNL     1       0.816  -2.243  -2.171  0.00  0.00    +0.050 A 
ATOM      3  C   UNL     1       1.093  -2.560  -3.472  0.00  0.00    +0.222 A 
ATOM      4  N   UNL     1       1.651  -1.480  -4.042  0.00  0.00    -0.246 N 
ATOM      5  H   UNL     1       1.953  -1.411  -4.961  0.00  0.00    +0.192 HD
ATOM      6  N   UNL     1       1.716  -0.467  -3.073  0.00  0.00    -0.175 NA
ATOM      7  O   UNL     1       0.815  -3.775  -4.005  0.00  0.00    -0.423 OA
ATOM      8  C   UNL     1       0.004  -4.594  -3.304  0.00  0.00    +0.200 C 
ATOM      9  C   UNL     1      -0.332  -4.393  -2.011  0.00  0.00    +0.098 C 
ATOM     10  C   UNL     1       0.180  -3.219  -1.215  0.00  0.00    +0.102 C 
ENDROOT
BRANCH  10  11
ATOM     11  C   UNL     1       1.205  -3.691  -0.215  0.00  0.00    -0.028 A 
ATOM     12  C   UNL     1       0.865  -3.850   1.116  0.00  0.00    +0.012 A 
ATOM     13  C   UNL     1       1.810  -4.276   1.989  0.00  0.00    +0.045 A 
ATOM     14  S   UNL     1       3.233  -4.466   0.929  0.00  0.00    -0.105 S 
ATOM     15  C   UNL     1       2.471  -3.971  -0.608  0.00  0.00    +0.049 A 
ENDBRANCH  10  11
BRANCH   1  17
ATOM     16  C   UNL     1       1.508   1.282  -0.875  0.00  0.00    +0.017 C 
ATOM     17  C   UNL     1       1.099  -0.176  -0.654  0.00  0.00    +0.007 C 
ATOM     18  C   UNL     1       2.016  -0.810   0.393  0.00  0.00    +0.017 C 
ATOM     19  C   UNL     1      -0.349  -0.230  -0.164  0.00  0.00    +0.017 C 
ENDBRANCH   1  17
BRANCH   8  20
ATOM     20  N   UNL     1      -0.510  -5.695  -3.943  0.00  0.00    -0.328 N 
ATOM     21  H   UNL     1      -0.288  -5.866  -4.871  0.00  0.00    +0.145 HD
ATOM     22  H   UNL     1      -1.097  -6.302  -3.465  0.00  0.00    +0.145 HD
ENDBRANCH   8  20
BRANCH   9  23
ATOM     23  C   UNL     1      -1.207  -5.330  -1.373  0.00  0.00    +0.101 C 
ATOM     24  N   UNL     1      -1.901  -6.073  -0.866  0.00  0.00    -0.191 NA
ENDBRANCH   9  23
TORSDOF 4
