REMARK  Name = ZINC29337155
REMARK  5 active torsions:
REMARK  status: ('A' for Active; 'I' for Inactive)
REMARK    1  A    between atoms: C_4  and  C_7
REMARK    2  A    between atoms: C_7  and  C_8
REMARK    3  A    between atoms: C_8  and  C_10
REMARK    4  A    between atoms: C_8  and  N_16
REMARK    5  A    between atoms: N_19  and  N_20
REMARK                            x       y       z     vdW  Elec       q    Type
REMARK                         _______ _______ _______ _____ _____    ______ ____
ROOT
ATOM      1  N   UNL     1       4.451   0.315   2.057  0.00  0.00    -0.291 N 
ATOM      2  C   UNL     1       4.378   0.412   3.400  0.00  0.00    +0.318 C 
ATOM      3  O   UNL     1       4.080  -0.561   4.064  0.00  0.00    -0.251 OA
ATOM      4  N   UNL     1       4.635   1.588   4.005  0.00  0.00    -0.205 N 
ATOM      5  H   UNL     1       4.689   1.092   1.527  0.00  0.00    +0.151 HD
ATOM      6  H   UNL     1       4.873   2.365   3.475  0.00  0.00    +0.177 HD
ENDROOT
BRANCH   4   7
ATOM      7  N   UNL     1       4.559   1.689   5.401  0.00  0.00    -0.245 N 
ATOM      8  C   UNL     1       4.245   0.687   6.266  0.00  0.00    +0.219 A 
ATOM      9  N   UNL     1       4.267   1.129   7.489  0.00  0.00    -0.234 NA
ATOM     10  C   UNL     1       4.597   2.446   7.493  0.00  0.00    +0.091 A 
ATOM     11  C   UNL     1       4.795   2.822   6.153  0.00  0.00    +0.088 A 
ATOM     12  C   UNL     1       5.151   4.128   5.848  0.00  0.00    +0.030 A 
ATOM     13  C   UNL     1       5.313   5.047   6.864  0.00  0.00    +0.002 A 
ATOM     14  C   UNL     1       5.121   4.674   8.187  0.00  0.00    +0.002 A 
ATOM     15  C   UNL     1       4.762   3.395   8.505  0.00  0.00    +0.030 A 
ENDBRANCH   4   7
BRANCH   1  16
ATOM     16  C   UNL     1       4.171  -0.963   1.399  0.00  0.00    +0.109 C 
BRANCH  16  17
ATOM     17  C   UNL     1       5.422  -1.804   1.383  0.00  0.00    -0.027 A 
ATOM     18  C   UNL     1       6.648  -1.216   1.138  0.00  0.00    +0.005 A 
ATOM     19  C   UNL     1       7.795  -1.987   1.124  0.00  0.00    +0.000 A 
ATOM     20  C   UNL     1       7.715  -3.348   1.355  0.00  0.00    +0.000 A 
ATOM     21  C   UNL     1       6.489  -3.937   1.602  0.00  0.00    +0.000 A 
ATOM     22  C   UNL     1       5.343  -3.164   1.620  0.00  0.00    +0.005 A 
ENDBRANCH  16  17
BRANCH  16  23
ATOM     23  C   UNL     1       3.711  -0.707  -0.038  0.00  0.00    +0.062 C 
BRANCH  23  27
ATOM     24  C   UNL     1      -0.017   1.378   0.010  0.00  0.00    +0.000 A 
ATOM     25  C   UNL     1       1.171   2.086   0.002  0.00  0.00    +0.000 A 
ATOM     26  C   UNL     1       2.377   1.411  -0.013  0.00  0.00    +0.004 A 
ATOM     27  C   UNL     1       2.396   0.029  -0.020  0.00  0.00    -0.045 A 
ATOM     28  C   UNL     1       1.208  -0.679  -0.012  0.00  0.00    +0.004 A 
ATOM     29  C   UNL     1       0.002  -0.004   0.002  0.00  0.00    +0.000 A 
ENDBRANCH  23  27
ENDBRANCH  16  23
ENDBRANCH   1  16
TORSDOF 5
