REMARK  Name = ZINC02469419
REMARK  7 active torsions:
REMARK  status: ('A' for Active; 'I' for Inactive)
REMARK    1  A    between atoms: C_1  and  O_2
REMARK    2  A    between atoms: O_2  and  C_3
REMARK    3  A    between atoms: C_5  and  C_13
REMARK    4  A    between atoms: C_6  and  O_11
REMARK    5  A    between atoms: C_8  and  O_9
REMARK    6  A    between atoms: O_9  and  C_10
REMARK    7  A    between atoms: O_11  and  C_12
REMARK                            x       y       z     vdW  Elec       q    Type
REMARK                         _______ _______ _______ _____ _____    ______ ____
ROOT
ATOM      1  C   UNL     1      -1.123   7.128   1.863  0.00  0.00    +0.063 C 
ATOM      2  C   UNL     1      -0.435   7.542   3.166  0.00  0.00    +0.109 C 
ATOM      3  C   UNL     1      -0.755   8.982   3.470  0.00  0.00    +0.218 C 
ATOM      4  O   UNL     1       0.081   9.685   3.997  0.00  0.00    -0.275 OA
ATOM      5  N   UNL     1      -1.962   9.495   3.162  0.00  0.00    -0.285 N 
ATOM      6  C   UNL     1      -2.948   8.679   2.591  0.00  0.00    +0.041 A 
ATOM      7  C   UNL     1      -2.579   7.514   1.931  0.00  0.00    -0.015 A 
ATOM      8  C   UNL     1      -3.540   6.716   1.342  0.00  0.00    +0.055 A 
ATOM      9  C   UNL     1      -4.876   7.074   1.415  0.00  0.00    +0.167 A 
ATOM     10  C   UNL     1      -5.250   8.238   2.085  0.00  0.00    +0.168 A 
ATOM     11  C   UNL     1      -4.286   9.039   2.672  0.00  0.00    +0.073 A 
ATOM     12  O   UNL     1      -6.612   8.353   2.014  0.00  0.00    -0.453 OA
ATOM     13  C   UNL     1      -6.970   7.556   0.861  0.00  0.00    +0.466 C 
ATOM     14  O   UNL     1      -6.009   6.477   0.931  0.00  0.00    -0.453 OA
ATOM     15  H   UNL     1      -2.148  10.430   3.336  0.00  0.00    +0.155 HD
ENDROOT
BRANCH   1  18
ATOM     16  C   UNL     1      -1.432   3.411   2.466  0.00  0.00    +0.162 A 
ATOM     17  C   UNL     1      -1.533   4.782   2.632  0.00  0.00    +0.057 A 
ATOM     18  C   UNL     1      -1.006   5.636   1.682  0.00  0.00    +0.006 A 
ATOM     19  C   UNL     1      -0.368   5.122   0.563  0.00  0.00    +0.128 A 
ATOM     20  C   UNL     1      -0.259   3.750   0.395  0.00  0.00    +0.095 A 
ATOM     21  C   UNL     1      -0.787   2.893   1.346  0.00  0.00    +0.165 A 
BRANCH  16  23
ATOM     22  C   UNL     1      -2.604   3.172   4.522  0.00  0.00    +0.277 C 
ATOM     23  O   UNL     1      -1.956   2.571   3.398  0.00  0.00    -0.491 OA
ENDBRANCH  16  23
BRANCH  21  24
ATOM     24  O   UNL     1      -0.682   1.547   1.184  0.00  0.00    -0.491 OA
ATOM     25  C   UNL     1      -0.013   1.086   0.008  0.00  0.00    +0.277 C 
ENDBRANCH  21  24
BRANCH  19  26
ATOM     26  O   UNL     1       0.151   5.964  -0.370  0.00  0.00    -0.495 OA
ATOM     27  C   UNL     1       0.794   5.366  -1.498  0.00  0.00    +0.277 C 
ENDBRANCH  19  26
ENDBRANCH   1  18
TORSDOF 4
