REMARK  Name = ZINC15866383
REMARK  4 active torsions:
REMARK  status: ('A' for Active; 'I' for Inactive)
REMARK    1  A    between atoms: C_4  and  O_25
REMARK    2  A    between atoms: C_5  and  C_7
REMARK    3  A    between atoms: C_10  and  C_18
REMARK    4  A    between atoms: O_25  and  C_26
REMARK                            x       y       z     vdW  Elec       q    Type
REMARK                         _______ _______ _______ _____ _____    ______ ____
ROOT
ATOM      1  C   UNL     1      -0.075   3.837  -0.537  0.00  0.00    +0.148 C 
ATOM      2  C   UNL     1       1.067   2.919  -0.993  0.00  0.00    +0.059 C 
ATOM      3  C   UNL     1       1.231   1.763  -0.000  0.00  0.00    +0.106 C 
ATOM      4  N   UNL     1      -0.011   0.966   0.007  0.00  0.00    -0.305 N 
ATOM      5  C   UNL     1      -1.199   1.683   0.017  0.00  0.00    +0.236 A 
ATOM      6  N   UNL     1      -1.242   3.017  -0.227  0.00  0.00    -0.206 N 
ATOM      7  N   UNL     1      -2.587   3.373  -0.119  0.00  0.00    -0.042 NA
ATOM      8  N   UNL     1      -3.232   2.290   0.170  0.00  0.00    -0.021 NA
ATOM      9  N   UNL     1      -2.420   1.292   0.253  0.00  0.00    -0.092 NA
ATOM     10  H   UNL     1       0.002  -0.004   0.002  0.00  0.00    +0.150 HD
ENDROOT
BRANCH   3  11
ATOM     11  C   UNL     1       2.387   0.894  -0.423  0.00  0.00    -0.027 A 
ATOM     12  C   UNL     1       2.221  -0.033  -1.435  0.00  0.00    +0.007 A 
ATOM     13  C   UNL     1       3.282  -0.827  -1.827  0.00  0.00    +0.020 A 
ATOM     14  C   UNL     1       4.509  -0.701  -1.199  0.00  0.00    +0.041 A 
ATOM     15  C   UNL     1       4.673   0.223  -0.183  0.00  0.00    +0.020 A 
ATOM     16  C   UNL     1       3.612   1.020   0.205  0.00  0.00    +0.007 A 
ATOM     17 CL   UNL     1       5.840  -1.703  -1.686  0.00  0.00    -0.084 Cl
ENDBRANCH   3  11
BRANCH   1  22
ATOM     18  C   UNL     1      -1.147   5.228  -3.880  0.00  0.00    +0.001 A 
ATOM     19  C   UNL     1      -1.036   6.589  -3.664  0.00  0.00    +0.004 A 
ATOM     20  C   UNL     1      -0.614   7.064  -2.438  0.00  0.00    +0.046 A 
ATOM     21  C   UNL     1      -0.302   6.173  -1.421  0.00  0.00    +0.132 A 
ATOM     22  C   UNL     1      -0.414   4.808  -1.639  0.00  0.00    +0.019 A 
ATOM     23  C   UNL     1      -0.831   4.338  -2.870  0.00  0.00    +0.009 A 
BRANCH  21  24
ATOM     24  O   UNL     1       0.113   6.637  -0.213  0.00  0.00    -0.434 OA
BRANCH  24  25
ATOM     25  C   UNL     1       0.206   8.055  -0.060  0.00  0.00    +0.541 C 
ATOM     26  F   UNL     1       1.115   8.566  -0.992  0.00  0.00    -0.166 F 
ATOM     27  F   UNL     1      -1.052   8.630  -0.271  0.00  0.00    -0.166 F 
ENDBRANCH  24  25
ENDBRANCH  21  24
ENDBRANCH   1  22
TORSDOF 4
