REMARK  Name = ZINC12664351
REMARK  6 active torsions:
REMARK  status: ('A' for Active; 'I' for Inactive)
REMARK    1  A    between atoms: C_1  and  C_2
REMARK    2  A    between atoms: C_2  and  C_23
REMARK    3  A    between atoms: N_9  and  C_22
REMARK    4  A    between atoms: C_11  and  C_12
REMARK    5  A    between atoms: N_13  and  C_14
REMARK    6  A    between atoms: C_18  and  C_20
REMARK                            x       y       z     vdW  Elec       q    Type
REMARK                         _______ _______ _______ _____ _____    ______ ____
ROOT
ATOM      1  C   UNL     1       3.938   1.891  -0.011  0.00  0.00    +0.022 C 
ATOM      2  C   UNL     1       3.067   2.298  -1.201  0.00  0.00    +0.030 C 
ATOM      3  C   UNL     1       1.959   1.292  -1.414  0.00  0.00    -0.015 A 
ATOM      4  C   UNL     1       1.968  -0.053  -1.712  0.00  0.00    +0.006 A 
ATOM      5  C   UNL     1       0.773  -0.737  -1.853  0.00  0.00    +0.000 A 
ATOM      6  C   UNL     1      -0.427  -0.067  -1.693  0.00  0.00    +0.002 A 
ATOM      7  C   UNL     1      -0.439   1.279  -1.395  0.00  0.00    +0.024 A 
ATOM      8  C   UNL     1       0.761   1.975  -1.251  0.00  0.00    +0.038 A 
ATOM      9  N   UNL     1       1.002   3.316  -0.956  0.00  0.00    -0.306 N 
ATOM     10  C   UNL     1       2.340   3.593  -0.907  0.00  0.00    +0.022 C 
ATOM     11  C   UNL     1       2.905   4.792  -0.647  0.00  0.00    +0.039 C 
ATOM     12  C   UNL     1      -0.051   4.308  -0.728  0.00  0.00    +0.135 C 
ATOM     13  C   UNL     1       3.916   2.435  -2.466  0.00  0.00    +0.022 C 
ENDROOT
BRANCH  11  14
ATOM     14  C   UNL     1       2.100   5.879  -0.250  0.00  0.00    +0.113 C 
ATOM     15  N   UNL     1       2.631   7.069  -0.105  0.00  0.00    -0.255 NA
BRANCH  15  16
ATOM     16  C   UNL     1       3.982   7.235  -0.233  0.00  0.00    +0.065 A 
ATOM     17  C   UNL     1       4.860   6.449   0.520  0.00  0.00    +0.028 A 
ATOM     18  C   UNL     1       6.224   6.612   0.388  0.00  0.00    +0.003 A 
ATOM     19  C   UNL     1       6.732   7.558  -0.481  0.00  0.00    +0.015 A 
ATOM     20  C   UNL     1       5.867   8.354  -1.236  0.00  0.00    +0.065 A 
ATOM     21  C   UNL     1       4.488   8.192  -1.112  0.00  0.00    +0.042 A 
BRANCH  20  22
ATOM     22  C   UNL     1       6.413   9.367  -2.164  0.00  0.00    +0.387 C 
ATOM     23  O   UNL     1       5.660  10.058  -2.820  0.00  0.00    -0.241 OA
ATOM     24  O   UNL     1       7.746   9.522  -2.283  0.00  0.00    -0.241 OA
ENDBRANCH  20  22
ENDBRANCH  15  16
ENDBRANCH  11  14
TORSDOF 3
