REMARK  Name = ZINC38926359
REMARK  8 active torsions:
REMARK  status: ('A' for Active; 'I' for Inactive)
REMARK    1  A    between atoms: C_1  and  C_2
REMARK    2  A    between atoms: C_2  and  C_3
REMARK    3  A    between atoms: C_2  and  C_4
REMARK    4  A    between atoms: C_2  and  C_5
REMARK    5  A    between atoms: C_8  and  C_11
REMARK    6  A    between atoms: N_17  and  N_18
REMARK    7  A    between atoms: C_19  and  C_20
REMARK    8  A    between atoms: C_25  and  O_26
REMARK                            x       y       z     vdW  Elec       q    Type
REMARK                         _______ _______ _______ _____ _____    ______ ____
ROOT
ATOM      1  C   UNL     1       2.750  -1.851  -4.904  0.00  0.00    +0.264 C 
ATOM      2  N   UNL     1       2.219  -3.206  -5.119  0.00  0.00    -0.189 NA
ATOM      3  N   UNL     1       3.105  -4.015  -4.832  0.00  0.00    -0.219 N 
ATOM      4  C   UNL     1       4.260  -3.427  -4.419  0.00  0.00    +0.174 C 
ATOM      5  S   UNL     1       5.675  -4.269  -3.949  0.00  0.00    -0.015 S 
ATOM      6  N   UNL     1       4.129  -2.079  -4.435  0.00  0.00    -0.172 N 
ATOM      7  H   UNL     1       2.989  -4.976  -4.893  0.00  0.00    +0.176 HD
ENDROOT
BRANCH   1  11
ATOM      8  C   UNL     1       0.472   0.196  -1.926  0.00  0.00    -0.042 A 
ATOM      9  C   UNL     1      -0.147  -0.706  -2.771  0.00  0.00    +0.004 A 
ATOM     10  C   UNL     1       0.590  -1.369  -3.735  0.00  0.00    +0.008 A 
ATOM     11  C   UNL     1       1.946  -1.129  -3.854  0.00  0.00    -0.002 A 
ATOM     12  C   UNL     1       2.565  -0.226  -3.010  0.00  0.00    +0.008 A 
ATOM     13  C   UNL     1       1.827   0.440  -2.049  0.00  0.00    +0.004 A 
BRANCH   8  15
ATOM     14  C   UNL     1      -0.247   2.426  -1.116  0.00  0.00    +0.015 C 
ATOM     15  C   UNL     1      -0.331   0.918  -0.875  0.00  0.00    -0.013 C 
ATOM     16  C   UNL     1       0.231   0.591   0.510  0.00  0.00    +0.015 C 
ATOM     17  C   UNL     1      -1.792   0.469  -0.952  0.00  0.00    +0.015 C 
ENDBRANCH   8  15
ENDBRANCH   1  11
BRANCH   6  18
ATOM     18  N   UNL     1       5.086  -1.118  -4.085  0.00  0.00    -0.183 NA
ATOM     19  C   UNL     1       6.298  -1.483  -3.795  0.00  0.00    +0.142 C 
BRANCH  19  20
ATOM     20  C   UNL     1       7.259  -0.497  -3.270  0.00  0.00    +0.038 A 
ATOM     21  C   UNL     1       8.566  -0.885  -2.962  0.00  0.00    +0.028 A 
ATOM     22  C   UNL     1       9.461   0.043  -2.472  0.00  0.00    +0.020 A 
ATOM     23  C   UNL     1       9.070   1.359  -2.283  0.00  0.00    +0.034 A 
ATOM     24  C   UNL     1       7.779   1.754  -2.583  0.00  0.00    +0.061 A 
ATOM     25  C   UNL     1       6.869   0.836  -3.082  0.00  0.00    +0.139 A 
ATOM     26 BR   UNL     1       7.258   3.553  -2.320  0.00  0.00    -0.046 Br
ATOM     27 BR   UNL     1      11.229  -0.482  -2.055  0.00  0.00    -0.050 Br
BRANCH  25  28
ATOM     28  O   UNL     1       5.603   1.225  -3.383  0.00  0.00    -0.505 OA
ATOM     29  H   UNL     1       4.982   1.147  -2.646  0.00  0.00    +0.292 HD
ENDBRANCH  25  28
ENDBRANCH  19  20
ENDBRANCH   6  18
TORSDOF 5
