REMARK  Name = ZINC08860769
REMARK  3 active torsions:
REMARK  status: ('A' for Active; 'I' for Inactive)
REMARK    1  A    between atoms: C_6  and  N_7
REMARK    2  A    between atoms: C_8  and  C_9
REMARK    3  A    between atoms: C_12  and  O_16
REMARK                            x       y       z     vdW  Elec       q    Type
REMARK                         _______ _______ _______ _____ _____    ______ ____
ROOT
ATOM      1  C   UNL     1      -0.017   1.394   0.010  0.00  0.00    +0.030 A 
ATOM      2  C   UNL     1       1.165   2.102   0.002  0.00  0.00    +0.030 A 
ATOM      3  C   UNL     1       2.379   1.428  -0.013  0.00  0.00    +0.067 A 
ATOM      4  C   UNL     1       2.405   0.030  -0.021  0.00  0.00    +0.069 A 
ATOM      5  C   UNL     1       1.221  -0.684  -0.014  0.00  0.00    +0.055 A 
ATOM      6  C   UNL     1       0.002  -0.004   0.002  0.00  0.00    +0.066 A 
ATOM      7  N   UNL     1       3.747  -0.347  -0.035  0.00  0.00    -0.306 N 
ATOM      8  H   UNL     1       4.080  -1.257  -0.043  0.00  0.00    +0.170 HD
ATOM      9  C   UNL     1       4.500   0.769  -0.036  0.00  0.00    +0.325 A 
ATOM     10  O   UNL     1       5.717   0.792  -0.046  0.00  0.00    -0.247 OA
ATOM     11  N   UNL     1       3.705   1.855  -0.023  0.00  0.00    -0.306 N 
ATOM     12  H   UNL     1       4.004   2.777  -0.020  0.00  0.00    +0.170 HD
ENDROOT
BRANCH   6  13
ATOM     13  N   UNL     1      -1.173  -0.705   0.010  0.00  0.00    -0.255 NA
ATOM     14  C   UNL     1      -2.134  -0.357   0.819  0.00  0.00    +0.119 C 
BRANCH  14  15
ATOM     15  C   UNL     1      -3.398  -1.111   0.828  0.00  0.00    -0.005 A 
ATOM     16  C   UNL     1      -3.568  -2.204  -0.029  0.00  0.00    +0.028 A 
ATOM     17  C   UNL     1      -4.754  -2.906  -0.017  0.00  0.00    +0.061 A 
ATOM     18  C   UNL     1      -5.779  -2.530   0.843  0.00  0.00    +0.145 A 
ATOM     19  C   UNL     1      -5.614  -1.444   1.695  0.00  0.00    +0.061 A 
ATOM     20  C   UNL     1      -4.430  -0.740   1.695  0.00  0.00    +0.028 A 
ATOM     21 BR   UNL     1      -7.014  -0.938   2.861  0.00  0.00    -0.046 Br
ATOM     22 BR   UNL     1      -4.986  -4.385  -1.174  0.00  0.00    -0.046 Br
BRANCH  18  23
ATOM     23  O   UNL     1      -6.946  -3.225   0.850  0.00  0.00    -0.505 OA
ATOM     24  H   UNL     1      -6.960  -3.964   1.474  0.00  0.00    +0.292 HD
ENDBRANCH  18  23
ENDBRANCH  14  15
ENDBRANCH   6  13
TORSDOF 3
