REMARK  Name = ZINC20917286
REMARK  9 active torsions:
REMARK  status: ('A' for Active; 'I' for Inactive)
REMARK    1  A    between atoms: C_1  and  C_2
REMARK    2  A    between atoms: C_5  and  C_8
REMARK    3  A    between atoms: N_9  and  N_10
REMARK    4  A    between atoms: C_14  and  S_17
REMARK    5  A    between atoms: N_15  and  N_16
REMARK    6  A    between atoms: S_17  and  C_18
REMARK    7  A    between atoms: C_18  and  C_19
REMARK    8  A    between atoms: N_21  and  C_22
REMARK    9  A    between atoms: C_22  and  C_23
REMARK                            x       y       z     vdW  Elec       q    Type
REMARK                         _______ _______ _______ _____ _____    ______ ____
ROOT
ATOM      1  N   UNL     1      -0.017   1.383   0.010  0.00  0.00    -0.204 N 
ATOM      2  C   UNL     1       0.002  -0.004   0.002  0.00  0.00    +0.254 A 
ATOM      3  N   UNL     1      -1.048  -0.789   0.014  0.00  0.00    -0.109 NA
ATOM      4  N   UNL     1      -0.597  -2.115  -0.003  0.00  0.00    -0.119 NA
ATOM      5  C   UNL     1       0.715  -2.097  -0.015  0.00  0.00    +0.210 A 
ATOM      6  N   UNL     1       1.119  -0.793  -0.013  0.00  0.00    -0.211 N 
ATOM      7  H   UNL     1       0.928   1.946   0.008  0.00  0.00    +0.177 HD
ENDROOT
BRANCH   6   8
ATOM      8  N   UNL     1       2.412  -0.353  -0.023  0.00  0.00    -0.294 N 
ATOM      9  H   UNL     1       3.240  -1.077  -0.035  0.00  0.00    +0.163 HD
ATOM     10  H   UNL     1       2.626   0.726  -0.020  0.00  0.00    +0.163 HD
ENDBRANCH   6   8
BRANCH   1  12
ATOM     11  C   UNL     1      -1.257   3.366   0.026  0.00  0.00    +0.138 C 
ATOM     12  N   UNL     1      -1.239   2.067   0.019  0.00  0.00    -0.188 NA
BRANCH  11  17
ATOM     13  C   UNL     1      -6.276   6.173   0.066  0.00  0.00    +0.044 C 
ATOM     14  C   UNL     1      -4.961   5.438   0.055  0.00  0.00    -0.050 A 
ATOM     15  C   UNL     1      -3.774   6.149   0.053  0.00  0.00    +0.004 A 
ATOM     16  C   UNL     1      -2.567   5.482   0.044  0.00  0.00    +0.010 A 
ATOM     17  C   UNL     1      -2.544   4.085   0.036  0.00  0.00    -0.005 A 
ATOM     18  C   UNL     1      -3.746   3.374   0.032  0.00  0.00    +0.010 A 
ATOM     19  C   UNL     1      -4.946   4.054   0.047  0.00  0.00    +0.004 A 
ENDBRANCH  11  17
ENDBRANCH   1  12
BRANCH   5  20
ATOM     20  S   UNL     1       1.770  -3.508  -0.033  0.00  0.00    -0.075 S 
BRANCH  20  21
ATOM     21  C   UNL     1       0.623  -4.914  -0.029  0.00  0.00    +0.173 C 
BRANCH  21  22
ATOM     22  C   UNL     1       1.406  -6.201  -0.042  0.00  0.00    +0.224 C 
ATOM     23  O   UNL     1       2.619  -6.173  -0.054  0.00  0.00    -0.275 OA
ATOM     24  N   UNL     1       0.759  -7.384  -0.042  0.00  0.00    -0.311 N 
ATOM     25  H   UNL     1      -0.340  -7.409  -0.032  0.00  0.00    +0.149 HD
BRANCH  24  26
ATOM     26  C   UNL     1       1.521  -8.635  -0.056  0.00  0.00    +0.139 C 
BRANCH  26  27
ATOM     27  C   UNL     1       0.568  -9.803  -0.052  0.00  0.00    -0.030 A 
ATOM     28  C   UNL     1       0.147 -10.348   1.146  0.00  0.00    +0.006 A 
ATOM     29  C   UNL     1      -0.731 -11.415   1.150  0.00  0.00    +0.020 A 
ATOM     30  C   UNL     1      -1.180 -11.945  -0.046  0.00  0.00    +0.041 A 
ATOM     31  C   UNL     1      -0.754 -11.403  -1.246  0.00  0.00    +0.020 A 
ATOM     32  C   UNL     1       0.120 -10.332  -1.248  0.00  0.00    +0.006 A 
ATOM     33 CL   UNL     1      -2.278 -13.290  -0.043  0.00  0.00    -0.084 Cl
ENDBRANCH  26  27
ENDBRANCH  24  26
ENDBRANCH  21  22
ENDBRANCH  20  21
ENDBRANCH   5  20
TORSDOF 8
