REMARK  Name = ZINC36080445
REMARK  9 active torsions:
REMARK  status: ('A' for Active; 'I' for Inactive)
REMARK    1  A    between atoms: C_1  and  C_2
REMARK    2  A    between atoms: C_2  and  O_3
REMARK    3  A    between atoms: O_3  and  C_4
REMARK    4  A    between atoms: N_9  and  C_12
REMARK    5  A    between atoms: C_12  and  C_13
REMARK    6  A    between atoms: N_15  and  C_16
REMARK    7  A    between atoms: C_25  and  C_26
REMARK    8  A    between atoms: C_26  and  O_28
REMARK    9  A    between atoms: O_28  and  C_29
REMARK                            x       y       z     vdW  Elec       q    Type
REMARK                         _______ _______ _______ _____ _____    ______ ____
ROOT
ATOM      1  C   UNL     1       4.883  -4.959   5.167  0.00  0.00    +0.231 C 
ATOM      2  O   UNL     1       3.814  -5.424   5.502  0.00  0.00    -0.274 OA
ATOM      3  N   UNL     1       6.005  -5.697   5.283  0.00  0.00    -0.282 N 
ATOM      4  H   UNL     1       6.847  -5.356   4.943  0.00  0.00    +0.155 HD
ENDROOT
BRANCH   3   5
ATOM      5  C   UNL     1       5.955  -6.948   5.891  0.00  0.00    +0.073 A 
ATOM      6  C   UNL     1       4.878  -7.934   5.776  0.00  0.00    +0.023 A 
ATOM      7  C   UNL     1       3.660  -7.954   5.089  0.00  0.00    +0.027 A 
ATOM      8  C   UNL     1       2.847  -9.048   5.181  0.00  0.00    +0.019 A 
ATOM      9  C   UNL     1       3.220 -10.142   5.952  0.00  0.00    +0.017 A 
ATOM     10  C   UNL     1       4.415 -10.144   6.637  0.00  0.00    +0.027 A 
ATOM     11  C   UNL     1       5.261  -9.040   6.558  0.00  0.00    +0.049 A 
ATOM     12  N   UNL     1       6.486  -8.760   7.117  0.00  0.00    -0.348 N 
ATOM     13  H   UNL     1       6.981  -9.355   7.703  0.00  0.00    +0.166 HD
ATOM     14  C   UNL     1       6.913  -7.503   6.714  0.00  0.00    +0.147 A 
ATOM     15 BR   UNL     1       1.200  -9.073   4.252  0.00  0.00    -0.050 Br
BRANCH  14  16
ATOM     16  C   UNL     1       8.134  -6.887   7.090  0.00  0.00    +0.357 C 
ATOM     17  O   UNL     1       8.362  -5.738   6.762  0.00  0.00    -0.243 OA
BRANCH  16  18
ATOM     18  O   UNL     1       9.043  -7.576   7.812  0.00  0.00    -0.463 OA
ATOM     19  C   UNL     1      10.250  -6.893   8.155  0.00  0.00    +0.280 C 
ENDBRANCH  16  18
ENDBRANCH  14  16
ENDBRANCH   3   5
BRANCH   1  20
ATOM     20  C   UNL     1       4.957  -3.557   4.620  0.00  0.00    +0.180 C 
BRANCH  20  26
ATOM     21  C   UNL     1       0.504  -1.076   2.762  0.00  0.00    +0.403 C 
ATOM     22  O   UNL     1      -0.272  -1.727   2.091  0.00  0.00    -0.226 OA
ATOM     23  N   UNL     1       1.329  -1.694   3.629  0.00  0.00    -0.265 N 
ATOM     24  C   UNL     1       2.272  -0.924   4.455  0.00  0.00    +0.126 C 
ATOM     25  C   UNL     1       3.669  -1.533   4.295  0.00  0.00    +0.104 C 
ATOM     26  N   UNL     1       3.611  -2.970   4.595  0.00  0.00    -0.291 NA
ATOM     27  C   UNL     1       2.745  -3.679   3.642  0.00  0.00    +0.104 C 
ATOM     28  C   UNL     1       1.306  -3.157   3.780  0.00  0.00    +0.126 C 
BRANCH  21  29
ATOM     29  O   UNL     1       0.540   0.265   2.638  0.00  0.00    -0.451 OA
BRANCH  29  31
ATOM     30  C   UNL     1      -0.177   2.372   1.698  0.00  0.00    +0.048 C 
ATOM     31  C   UNL     1      -0.362   0.854   1.699  0.00  0.00    +0.230 C 
ENDBRANCH  29  31
ENDBRANCH  21  29
ENDBRANCH  20  26
ENDBRANCH   1  20
TORSDOF 7
