REMARK  Name = ZINC12901822
REMARK  6 active torsions:
REMARK  status: ('A' for Active; 'I' for Inactive)
REMARK    1  A    between atoms: C_1  and  C_2
REMARK    2  A    between atoms: C_2  and  C_4
REMARK    3  A    between atoms: C_2  and  N_10
REMARK    4  A    between atoms: C_15  and  C_31
REMARK    5  A    between atoms: C_31  and  C_32
REMARK    6  A    between atoms: C_32  and  C_33
REMARK                            x       y       z     vdW  Elec       q    Type
REMARK                         _______ _______ _______ _____ _____    ______ ____
ROOT
ATOM      1  N   UNL     1      -1.152   2.044  -0.022  0.00  0.00    -0.235 N 
ATOM      2  C   UNL     1      -0.994   3.370   0.051  0.00  0.00    +0.225 C 
ATOM      3  O   UNL     1      -1.892   4.178   0.150  0.00  0.00    -0.275 OA
ATOM      4  C   UNL     1       0.478   3.705  -0.014  0.00  0.00    +0.073 C 
ATOM      5  C   UNL     1       0.794   4.433  -1.337  0.00  0.00    -0.057 C 
ATOM      6  C   UNL     1       1.783   2.326  -1.552  0.00  0.00    +0.050 C 
ATOM      7  C   UNL     1       1.157   2.313  -0.152  0.00  0.00    +0.088 C 
ATOM      8  C   UNL     1      -0.011   1.353  -0.129  0.00  0.00    +0.226 C 
ATOM      9  O   UNL     1       0.072   0.146  -0.201  0.00  0.00    -0.275 OA
ATOM     10  C   UNL     1       3.250   2.647  -1.498  0.00  0.00    -0.028 A 
ATOM     11  C   UNL     1       3.968   3.725  -1.031  0.00  0.00    +0.004 A 
ATOM     12  C   UNL     1       5.349   3.728  -1.122  0.00  0.00    +0.000 A 
ATOM     13  C   UNL     1       6.005   2.648  -1.684  0.00  0.00    +0.002 A 
ATOM     14  C   UNL     1       5.289   1.566  -2.153  0.00  0.00    +0.023 A 
ATOM     15  C   UNL     1       3.899   1.554  -2.066  0.00  0.00    +0.036 A 
ATOM     16  N   UNL     1       2.968   0.593  -2.465  0.00  0.00    -0.286 N 
ATOM     17  C   UNL     1       1.702   0.971  -2.200  0.00  0.00    +0.211 C 
ATOM     18  O   UNL     1       0.694   0.340  -2.438  0.00  0.00    -0.277 OA
ATOM     19  H   UNL     1       3.205  -0.249  -2.885  0.00  0.00    +0.155 HD
ATOM     20  N   UNL     1       1.065   3.348  -2.285  0.00  0.00    +0.394 N 
ATOM     21  H   UNL     1       1.637   3.693  -3.064  0.00  0.00    -0.083 HD
ATOM     22  H   UNL     1       0.183   2.968  -2.650  0.00  0.00    -0.083 HD
ENDROOT
BRANCH   1  24
ATOM     23  C   UNL     1      -3.310   1.891  -1.165  0.00  0.00    +0.033 C 
ATOM     24  C   UNL     1      -2.468   1.400   0.015  0.00  0.00    +0.111 C 
BRANCH  24  25
ATOM     25  C   UNL     1      -3.161   1.747   1.307  0.00  0.00    -0.027 A 
ATOM     26  C   UNL     1      -2.424   1.909   2.465  0.00  0.00    +0.005 A 
ATOM     27  C   UNL     1      -3.059   2.232   3.649  0.00  0.00    +0.000 A 
ATOM     28  C   UNL     1      -4.433   2.385   3.677  0.00  0.00    +0.000 A 
ATOM     29  C   UNL     1      -5.171   2.218   2.520  0.00  0.00    +0.000 A 
ATOM     30  C   UNL     1      -4.535   1.899   1.335  0.00  0.00    +0.005 A 
ENDBRANCH  24  25
ENDBRANCH   1  24
BRANCH   5  31
ATOM     31  C   UNL     1      -0.404   5.275  -1.780  0.00  0.00    -0.006 C 
BRANCH  31  32
ATOM     32  C   UNL     1      -0.027   6.084  -3.023  0.00  0.00    +0.094 C 
BRANCH  32  33
ATOM     33  C   UNL     1      -1.207   6.914  -3.459  0.00  0.00    +0.210 C 
ATOM     34  O   UNL     1      -2.247   6.863  -2.837  0.00  0.00    -0.276 OA
ATOM     35  N   UNL     1      -1.107   7.712  -4.540  0.00  0.00    -0.329 N 
ATOM     36  H   UNL     1      -0.275   7.752  -5.038  0.00  0.00    +0.145 HD
ATOM     37  H   UNL     1      -1.866   8.246  -4.821  0.00  0.00    +0.145 HD
ENDBRANCH  32  33
ENDBRANCH  31  32
ENDBRANCH   5  31
TORSDOF 5
