REMARK  Name = ZINC20829779
REMARK  10 active torsions:
REMARK  status: ('A' for Active; 'I' for Inactive)
REMARK    1  A    between atoms: C_4  and  O_35
REMARK    2  A    between atoms: C_5  and  C_7
REMARK    3  A    between atoms: C_10  and  S_13
REMARK    4  A    between atoms: N_11  and  N_12
REMARK    5  A    between atoms: S_13  and  C_14
REMARK    6  A    between atoms: C_14  and  C_15
REMARK    7  A    between atoms: C_15  and  C_16
REMARK    8  A    between atoms: N_18  and  C_19
REMARK    9  A    between atoms: C_22  and  S_25
REMARK   10  A    between atoms: S_25  and  N_28
REMARK                            x       y       z     vdW  Elec       q    Type
REMARK                         _______ _______ _______ _____ _____    ______ ____
ROOT
ATOM      1  C   UNL     1      -7.771   3.402  -0.532  0.00  0.00    +0.218 C 
ATOM      2  O   UNL     1      -8.856   3.529  -1.059  0.00  0.00    -0.275 OA
ATOM      3  N   UNL     1      -7.178   4.460   0.056  0.00  0.00    -0.285 N 
ATOM      4  H   UNL     1      -6.231   4.328   0.600  0.00  0.00    +0.155 HD
ENDROOT
BRANCH   3   5
ATOM      5  C   UNL     1      -7.768   5.726  -0.025  0.00  0.00    +0.033 A 
ATOM      6  C   UNL     1      -6.972   6.860  -0.113  0.00  0.00    +0.025 A 
ATOM      7  C   UNL     1      -7.557   8.108  -0.200  0.00  0.00    +0.030 A 
ATOM      8  C   UNL     1      -8.934   8.230  -0.187  0.00  0.00    +0.106 A 
ATOM      9  C   UNL     1      -9.730   7.103  -0.093  0.00  0.00    +0.030 A 
ATOM     10  C   UNL     1      -9.151   5.852  -0.013  0.00  0.00    +0.025 A 
BRANCH   8  11
ATOM     11  S   UNL     1      -9.677   9.825  -0.290  0.00  0.00    +0.061 S 
ATOM     12  O   UNL     1      -8.728  10.675  -0.918  0.00  0.00    -0.153 OA
ATOM     13  O   UNL     1     -10.986   9.630  -0.808  0.00  0.00    -0.153 OA
BRANCH  11  14
ATOM     14  N   UNL     1      -9.859  10.381   1.259  0.00  0.00    -0.177 NA
ATOM     15  C   UNL     1     -11.088  10.087   1.962  0.00  0.00    +0.109 C 
ATOM     16  C   UNL     1     -12.127  11.195   1.690  0.00  0.00    +0.017 C 
ATOM     17  C   UNL     1     -11.742  12.435   2.382  0.00  0.00    +0.001 C 
ATOM     18  C   UNL     1     -10.418  13.032   1.912  0.00  0.00    +0.001 C 
ATOM     19  C   UNL     1      -9.282  12.376   2.656  0.00  0.00    +0.017 C 
ATOM     20  C   UNL     1      -8.762  11.162   1.863  0.00  0.00    +0.109 C 
ENDBRANCH  11  14
ENDBRANCH   8  11
ENDBRANCH   3   5
BRANCH   1  21
ATOM     21  C   UNL     1      -7.085   2.060  -0.534  0.00  0.00    +0.107 C 
BRANCH  21  22
ATOM     22  C   UNL     1      -7.964   1.039  -1.260  0.00  0.00    +0.086 C 
BRANCH  22  23
ATOM     23  S   UNL     1      -7.141  -0.573  -1.262  0.00  0.00    -0.084 S 
BRANCH  23  27
ATOM     24  C   UNL     1      -9.409  -3.159  -3.117  0.00  0.00    +0.185 A 
ATOM     25  N   UNL     1     -10.113  -2.053  -3.189  0.00  0.00    -0.127 NA
ATOM     26  N   UNL     1      -9.482  -1.092  -2.615  0.00  0.00    -0.121 NA
ATOM     27  C   UNL     1      -8.338  -1.526  -2.135  0.00  0.00    +0.209 A 
ATOM     28  N   UNL     1      -8.249  -2.855  -2.442  0.00  0.00    -0.224 N 
BRANCH  24  33
ATOM     29  C   UNL     1      -9.300  -6.805  -4.010  0.00  0.00    +0.001 A 
ATOM     30  C   UNL     1     -10.507  -6.960  -4.669  0.00  0.00    +0.004 A 
ATOM     31  C   UNL     1     -11.360  -5.884  -4.827  0.00  0.00    +0.046 A 
ATOM     32  C   UNL     1     -11.013  -4.643  -4.320  0.00  0.00    +0.128 A 
ATOM     33  C   UNL     1      -9.791  -4.480  -3.657  0.00  0.00    +0.062 A 
ATOM     34  C   UNL     1      -8.938  -5.573  -3.504  0.00  0.00    +0.015 A 
BRANCH  32  35
ATOM     35  O   UNL     1     -11.853  -3.586  -4.470  0.00  0.00    -0.506 OA
ATOM     36  H   UNL     1     -11.575  -2.601  -4.067  0.00  0.00    +0.292 HD
ENDBRANCH  32  35
ENDBRANCH  24  33
BRANCH  28  37
ATOM     37  N   UNL     1      -7.224  -3.705  -2.138  0.00  0.00    -0.295 N 
ATOM     38  H   UNL     1      -6.346  -3.334  -1.590  0.00  0.00    +0.163 HD
ATOM     39  H   UNL     1      -7.278  -4.762  -2.440  0.00  0.00    +0.163 HD
ENDBRANCH  28  37
ENDBRANCH  23  27
ENDBRANCH  22  23
ENDBRANCH  21  22
ENDBRANCH   1  21
TORSDOF 10
