REMARK  Name = ZINC20534529
REMARK  4 active torsions:
REMARK  status: ('A' for Active; 'I' for Inactive)
REMARK    1  A    between atoms: N_10  and  C_13
REMARK    2  A    between atoms: C_13  and  C_14
REMARK    3  A    between atoms: N_16  and  C_17
REMARK    4  A    between atoms: C_20  and  C_22
REMARK                            x       y       z     vdW  Elec       q    Type
REMARK                         _______ _______ _______ _____ _____    ______ ____
ROOT
ATOM      1  C   UNL     1       6.691  -2.472  -2.035  0.00  0.00    +0.024 C 
ENDROOT
BRANCH   1  11
ATOM      2  C   UNL     1      -0.017   1.382   0.010  0.00  0.00    +0.039 A 
ATOM      3  C   UNL     1       1.192   2.061   0.002  0.00  0.00    +0.116 A 
ATOM      4  N   UNL     1       2.320   1.371  -0.013  0.00  0.00    -0.223 NA
ATOM      5  C   UNL     1       2.303   0.046  -0.020  0.00  0.00    +0.218 A 
ATOM      6  N   UNL     1       1.165  -0.633  -0.013  0.00  0.00    -0.223 NA
ATOM      7  C   UNL     1       0.002  -0.004   0.002  0.00  0.00    +0.116 A 
ATOM      8  N   UNL     1       3.502  -0.645  -0.035  0.00  0.00    -0.303 N 
ATOM      9  C   UNL     1       4.787   0.071  -0.037  0.00  0.00    +0.089 C 
ATOM     10  C   UNL     1       5.654  -0.492  -1.168  0.00  0.00    -0.059 C 
ATOM     11  N   UNL     1       5.772  -1.947  -1.016  0.00  0.00    +0.388 N 
ATOM     12  C   UNL     1       4.454  -2.575  -1.179  0.00  0.00    -0.059 C 
ATOM     13  C   UNL     1       3.528  -2.116  -0.043  0.00  0.00    +0.089 C 
ATOM     14  H   UNL     1       6.133  -2.160  -0.099  0.00  0.00    -0.081 HD
ENDBRANCH   1  11
BRANCH   1  15
ATOM     15  C   UNL     1       6.909  -3.945  -1.805  0.00  0.00    +0.232 C 
ATOM     16  O   UNL     1       7.721  -4.642  -2.624  0.00  0.00    -0.273 OA
ATOM     17  N   UNL     1       6.312  -4.544  -0.816  0.00  0.00    -0.187 NA
BRANCH  17  18
ATOM     18  C   UNL     1       6.509  -5.878  -0.608  0.00  0.00    +0.218 A 
ATOM     19  N   UNL     1       7.261  -6.747  -1.278  0.00  0.00    -0.121 NA
ATOM     20  N   UNL     1       7.328  -7.962  -0.943  0.00  0.00    -0.144 NA
ATOM     21  C   UNL     1       6.660  -8.445   0.087  0.00  0.00    +0.107 A 
ATOM     22  S   UNL     1       5.835  -6.959   0.651  0.00  0.00    -0.031 S 
BRANCH  21  23
ATOM     23  C   UNL     1       6.611  -9.847   0.637  0.00  0.00    +0.047 C 
ATOM     24  C   UNL     1       8.017 -10.279   1.058  0.00  0.00    +0.010 C 
ATOM     25  C   UNL     1       7.967 -11.703   1.616  0.00  0.00    +0.001 C 
ATOM     26  C   UNL     1       7.442 -12.655   0.539  0.00  0.00    +0.000 C 
ATOM     27  C   UNL     1       6.036 -12.222   0.118  0.00  0.00    +0.001 C 
ATOM     28  C   UNL     1       6.085 -10.799  -0.440  0.00  0.00    +0.010 C 
ENDBRANCH  21  23
ENDBRANCH  17  18
ENDBRANCH   1  15
TORSDOF 4
