REMARK  Name = ZINC36601268
REMARK  11 active torsions:
REMARK  status: ('A' for Active; 'I' for Inactive)
REMARK    1  A    between atoms: C_1  and  C_2
REMARK    2  A    between atoms: C_5  and  C_7
REMARK    3  A    between atoms: C_7  and  N_8
REMARK    4  A    between atoms: N_8  and  C_9
REMARK    5  A    between atoms: C_9  and  C_11
REMARK    6  A    between atoms: C_9  and  C_20
REMARK    7  A    between atoms: N_22  and  C_23
REMARK    8  A    between atoms: C_23  and  C_24
REMARK    9  A    between atoms: C_23  and  C_25
REMARK   10  A    between atoms: C_23  and  C_26
REMARK   11  A    between atoms: C_27  and  C_29
REMARK                            x       y       z     vdW  Elec       q    Type
REMARK                         _______ _______ _______ _____ _____    ______ ____
ROOT
ATOM      1  C   UNL     1       3.165  -2.982  -2.020  0.00  0.00    +0.193 C 
ENDROOT
BRANCH   1   2
ATOM      2  C   UNL     1       4.231  -4.014  -2.285  0.00  0.00    -0.015 A 
ATOM      3  C   UNL     1       4.755  -4.154  -3.556  0.00  0.00    +0.010 A 
ATOM      4  C   UNL     1       5.733  -5.099  -3.804  0.00  0.00    +0.050 A 
ATOM      5  C   UNL     1       6.190  -5.910  -2.777  0.00  0.00    +0.166 A 
ATOM      6  C   UNL     1       5.662  -5.769  -1.496  0.00  0.00    +0.167 A 
ATOM      7  C   UNL     1       4.686  -4.816  -1.254  0.00  0.00    +0.055 A 
ATOM      8  O   UNL     1       6.269  -6.672  -0.672  0.00  0.00    -0.453 OA
ATOM      9  C   UNL     1       6.878  -7.641  -1.546  0.00  0.00    +0.466 C 
ATOM     10  O   UNL     1       7.128  -6.901  -2.756  0.00  0.00    -0.453 OA
ENDBRANCH   1   2
BRANCH   1  11
ATOM     11  C   UNL     1       2.919  -2.182  -3.273  0.00  0.00    +0.238 C 
ATOM     12  O   UNL     1       1.817  -2.171  -3.780  0.00  0.00    -0.273 OA
ATOM     13  N   UNL     1       3.924  -1.477  -3.830  0.00  0.00    -0.309 N 
ATOM     14  H   UNL     1       4.805  -1.485  -3.425  0.00  0.00    +0.149 HD
BRANCH  13  15
ATOM     15  C   UNL     1       3.685  -0.698  -5.048  0.00  0.00    +0.026 C 
ATOM     16  C   UNL     1       2.603   0.350  -4.779  0.00  0.00    +0.031 C 
ATOM     17  C   UNL     1       4.979   0.001  -5.468  0.00  0.00    +0.031 C 
ATOM     18  C   UNL     1       3.223  -1.633  -6.168  0.00  0.00    +0.031 C 
ENDBRANCH  13  15
ENDBRANCH   1  11
BRANCH   1  19
ATOM     19  N   UNL     1       1.926  -3.652  -1.618  0.00  0.00    -0.277 N 
ATOM     20  C   UNL     1       1.364  -4.573  -2.426  0.00  0.00    +0.237 C 
ATOM     21  O   UNL     1       1.925  -4.905  -3.449  0.00  0.00    -0.274 OA
BRANCH  20  22
ATOM     22  C   UNL     1       0.040  -5.191  -2.058  0.00  0.00    +0.159 C 
ATOM     23  C   UNL     1       0.247  -6.328  -1.032  0.00  0.00    +0.041 C 
ATOM     24  C   UNL     1       0.345  -7.567  -1.952  0.00  0.00    +0.098 C 
ATOM     25  C   UNL     1      -0.405  -7.163  -3.201  0.00  0.00    +0.214 C 
ATOM     26  O   UNL     1      -0.803  -7.931  -4.051  0.00  0.00    -0.276 OA
ATOM     27  N   UNL     1      -0.567  -5.827  -3.233  0.00  0.00    -0.304 N 
ATOM     28  H   UNL     1      -1.026  -5.346  -3.940  0.00  0.00    +0.149 HD
ENDBRANCH  20  22
BRANCH  19  29
ATOM     29  C   UNL     1       1.297  -3.320  -0.337  0.00  0.00    +0.183 C 
BRANCH  29  34
ATOM     30  C   UNL     1      -0.591   1.346  -0.651  0.00  0.00    +0.086 C 
ATOM     31  C   UNL     1      -0.498  -0.158  -0.670  0.00  0.00    +0.102 A 
ATOM     32  C   UNL     1      -1.509  -1.006  -0.929  0.00  0.00    +0.045 A 
ATOM     33  C   UNL     1      -0.980  -2.314  -0.841  0.00  0.00    +0.046 A 
ATOM     34  C   UNL     1       0.323  -2.187  -0.534  0.00  0.00    +0.122 A 
ATOM     35  O   UNL     1       0.611  -0.879  -0.437  0.00  0.00    -0.463 OA
ENDBRANCH  29  34
ENDBRANCH  19  29
ENDBRANCH   1  19
TORSDOF 7
