REMARK  Name = ZINC21689958
REMARK  8 active torsions:
REMARK  status: ('A' for Active; 'I' for Inactive)
REMARK    1  A    between atoms: C_1  and  C_2
REMARK    2  A    between atoms: C_2  and  O_3
REMARK    3  A    between atoms: O_3  and  C_4
REMARK    4  A    between atoms: C_4  and  C_6
REMARK    5  A    between atoms: C_13  and  C_15
REMARK    6  A    between atoms: C_15  and  C_16
REMARK    7  A    between atoms: C_16  and  C_17
REMARK    8  A    between atoms: C_23  and  C_25
REMARK                            x       y       z     vdW  Elec       q    Type
REMARK                         _______ _______ _______ _____ _____    ______ ____
ROOT
ATOM      1  C   UNL     1       3.622  -2.250   9.351  0.00  0.00    +0.051 A 
ATOM      2  C   UNL     1       4.867  -1.923   9.777  0.00  0.00    +0.071 A 
ATOM      3  S   UNL     1       5.062  -3.059  11.140  0.00  0.00    -0.060 S 
ATOM      4  C   UNL     1       3.564  -3.819  11.026  0.00  0.00    +0.165 A 
ATOM      5  N   UNL     1       2.995  -3.208  10.009  0.00  0.00    -0.230 NA
ATOM      6  N   UNL     1       3.052  -4.840  11.816  0.00  0.00    -0.261 N 
ATOM      7  C   UNL     1       3.787  -5.343  12.828  0.00  0.00    +0.251 C 
ATOM      8  O   UNL     1       4.899  -4.903  13.048  0.00  0.00    -0.270 OA
ATOM      9  H   UNL     1       2.165  -5.191  11.640  0.00  0.00    +0.157 HD
ENDROOT
BRANCH   7  10
ATOM     10  C   UNL     1       3.243  -6.427  13.666  0.00  0.00    +0.053 A 
ATOM     11  C   UNL     1       1.952  -6.947  13.410  0.00  0.00    +0.020 A 
ATOM     12  C   UNL     1       1.475  -7.947  14.199  0.00  0.00    +0.071 A 
ATOM     13  C   UNL     1       2.272  -8.441  15.248  0.00  0.00    +0.249 A 
ATOM     14  O   UNL     1       1.849  -9.338  15.959  0.00  0.00    -0.268 OA
ATOM     15  N   UNL     1       3.497  -7.933  15.474  0.00  0.00    -0.328 N 
ATOM     16  H   UNL     1       4.034  -8.285  16.201  0.00  0.00    +0.168 HD
ATOM     17  C   UNL     1       3.992  -6.946  14.703  0.00  0.00    +0.099 A 
ENDBRANCH   7  10
BRANCH   1  18
ATOM     18  C   UNL     1       2.980  -1.549   8.182  0.00  0.00    +0.065 C 
BRANCH  18  19
ATOM     19  C   UNL     1       2.545  -2.583   7.142  0.00  0.00    +0.102 C 
BRANCH  19  26
ATOM     20  C   UNL     1       1.516  -2.381   2.500  0.00  0.00    +0.115 C 
ATOM     21  C   UNL     1       1.495  -3.909   2.424  0.00  0.00    +0.018 C 
ATOM     22  C   UNL     1       2.250  -4.491   3.621  0.00  0.00    +0.020 C 
ATOM     23  C   UNL     1       1.554  -4.062   4.917  0.00  0.00    +0.108 C 
ATOM     24  N   UNL     1       1.440  -2.597   4.929  0.00  0.00    -0.301 N 
ATOM     25  C   UNL     1       0.812  -1.927   3.783  0.00  0.00    +0.122 C 
ATOM     26  C   UNL     1       1.903  -1.882   5.973  0.00  0.00    +0.216 C 
ATOM     27  O   UNL     1       1.804  -0.673   5.972  0.00  0.00    -0.276 OA
BRANCH  20  28
ATOM     28  C   UNL     1       0.801  -1.808   1.304  0.00  0.00    +0.312 C 
ATOM     29  O   UNL     1       0.324  -2.546   0.475  0.00  0.00    -0.250 OA
BRANCH  28  30
ATOM     30  O   UNL     1       0.693  -0.477   1.160  0.00  0.00    -0.465 OA
BRANCH  30  32
ATOM     31  C   UNL     1      -0.019   1.526   0.010  0.00  0.00    +0.048 C 
ATOM     32  C   UNL     1       0.002  -0.004   0.002  0.00  0.00    +0.229 C 
ENDBRANCH  30  32
ENDBRANCH  28  30
ENDBRANCH  20  28
ENDBRANCH  19  26
ENDBRANCH  18  19
ENDBRANCH   1  18
TORSDOF 7
