REMARK  Name = ZINC02240082
REMARK  15 active torsions:
REMARK  status: ('A' for Active; 'I' for Inactive)
REMARK    1  A    between atoms: C_1  and  C_2
REMARK    2  A    between atoms: C_2  and  C_3
REMARK    3  A    between atoms: C_2  and  C_4
REMARK    4  A    between atoms: C_2  and  C_5
REMARK    5  A    between atoms: C_7  and  S_16
REMARK    6  A    between atoms: C_9  and  C_12
REMARK    7  A    between atoms: C_10  and  O_11
REMARK    8  A    between atoms: C_12  and  C_13
REMARK    9  A    between atoms: C_12  and  C_14
REMARK   10  A    between atoms: C_12  and  C_15
REMARK   11  A    between atoms: S_16  and  C_17
REMARK   12  A    between atoms: C_17  and  C_18
REMARK   13  A    between atoms: N_20  and  C_21
REMARK   14  A    between atoms: C_21  and  C_22
REMARK   15  A    between atoms: C_22  and  C_23
REMARK                            x       y       z     vdW  Elec       q    Type
REMARK                         _______ _______ _______ _____ _____    ______ ____
ROOT
ATOM      1  S   UNL     1      -1.700  -0.632   0.015  0.00  0.00    -0.116 S 
ENDROOT
BRANCH   1   4
ATOM      2  C   UNL     1      -2.477  -4.578   0.001  0.00  0.00    +0.001 A 
ATOM      3  C   UNL     1      -2.628  -3.205   0.010  0.00  0.00    +0.022 A 
ATOM      4  C   UNL     1      -1.508  -2.383   0.004  0.00  0.00    +0.009 A 
ATOM      5  C   UNL     1      -0.237  -2.943  -0.017  0.00  0.00    +0.022 A 
ATOM      6  C   UNL     1      -0.088  -4.316  -0.021  0.00  0.00    +0.001 A 
ATOM      7  C   UNL     1      -1.207  -5.136  -0.015  0.00  0.00    +0.124 A 
BRANCH   2   9
ATOM      8  C   UNL     1      -4.956  -4.609   0.024  0.00  0.00    +0.015 C 
ATOM      9  C   UNL     1      -3.691  -5.470   0.007  0.00  0.00    -0.009 C 
ATOM     10  C   UNL     1      -3.687  -6.346  -1.247  0.00  0.00    +0.015 C 
ATOM     11  C   UNL     1      -3.664  -6.360   1.251  0.00  0.00    +0.015 C 
ENDBRANCH   2   9
BRANCH   6  12
ATOM     12  C   UNL     1       1.291  -4.924  -0.038  0.00  0.00    -0.009 C 
ATOM     13  C   UNL     1       2.340  -3.810  -0.042  0.00  0.00    +0.015 C 
ATOM     14  C   UNL     1       1.479  -5.796   1.205  0.00  0.00    +0.015 C 
ATOM     15  C   UNL     1       1.455  -5.783  -1.293  0.00  0.00    +0.015 C 
ENDBRANCH   6  12
BRANCH   7  16
ATOM     16  O   UNL     1      -1.059  -6.488  -0.024  0.00  0.00    -0.506 OA
ATOM     17  H   UNL     1      -1.025  -6.874  -0.909  0.00  0.00    +0.292 HD
ENDBRANCH   7  16
ENDBRANCH   1   4
BRANCH   1  18
ATOM     18  C   UNL     1       0.002  -0.004   0.002  0.00  0.00    +0.170 C 
BRANCH  18  19
ATOM     19  C   UNL     1      -0.018   1.503   0.010  0.00  0.00    +0.223 C 
ATOM     20  O   UNL     1      -1.077   2.095   0.018  0.00  0.00    -0.275 OA
ATOM     21  N   UNL     1       1.139   2.192   0.003  0.00  0.00    -0.314 N 
ATOM     22  H   UNL     1       1.986   1.719  -0.008  0.00  0.00    +0.149 HD
BRANCH  21  23
ATOM     23  C   UNL     1       1.120   3.657   0.011  0.00  0.00    +0.109 C 
BRANCH  23  24
ATOM     24  C   UNL     1       2.555   4.187   0.000  0.00  0.00    +0.056 C 
BRANCH  24  25
ATOM     25  C   UNL     1       2.535   5.694   0.008  0.00  0.00    -0.021 A 
ATOM     26  C   UNL     1       2.613   6.499  -1.062  0.00  0.00    +0.087 A 
ATOM     27  N   UNL     1       2.561   7.808  -0.667  0.00  0.00    -0.360 N 
ATOM     28  H   UNL     1       2.598   8.572  -1.263  0.00  0.00    +0.165 HD
ATOM     29  C   UNL     1       2.453   7.879   0.704  0.00  0.00    +0.047 A 
ATOM     30  C   UNL     1       2.431   6.557   1.187  0.00  0.00    +0.003 A 
ATOM     31  C   UNL     1       2.326   6.319   2.559  0.00  0.00    +0.010 A 
ATOM     32  C   UNL     1       2.244   7.372   3.426  0.00  0.00    +0.001 A 
ATOM     33  C   UNL     1       2.265   8.677   2.955  0.00  0.00    +0.002 A 
ATOM     34  C   UNL     1       2.368   8.935   1.605  0.00  0.00    +0.026 A 
ENDBRANCH  24  25
ENDBRANCH  23  24
ENDBRANCH  21  23
ENDBRANCH  18  19
ENDBRANCH   1  18
TORSDOF 9
