REMARK  Name = ZINC12080237
REMARK  9 active torsions:
REMARK  status: ('A' for Active; 'I' for Inactive)
REMARK    1  A    between atoms: C_1  and  C_2
REMARK    2  A    between atoms: C_3  and  C_36
REMARK    3  A    between atoms: C_11  and  C_12
REMARK    4  A    between atoms: N_14  and  C_15
REMARK    5  A    between atoms: C_18  and  C_32
REMARK    6  A    between atoms: C_21  and  C_22
REMARK    7  A    between atoms: C_21  and  N_63
REMARK    8  A    between atoms: C_32  and  O_34
REMARK    9  A    between atoms: O_34  and  C_35
REMARK                            x       y       z     vdW  Elec       q    Type
REMARK                         _______ _______ _______ _____ _____    ______ ____
ROOT
ATOM      1  C   UNL     1       0.395  -6.782   1.302  0.00  0.00    +0.056 C 
ATOM      2  C   UNL     1      -0.181  -7.561   2.503  0.00  0.00    +0.016 C 
ATOM      3  C   UNL     1       0.886  -8.625   2.839  0.00  0.00    +0.045 C 
ATOM      4  C   UNL     1       1.761  -7.441   1.015  0.00  0.00    -0.055 C 
ATOM      5  N   UNL     1       1.622  -8.781   1.580  0.00  0.00    +0.393 N 
ATOM      6  H   UNL     1       1.093  -9.380   0.935  0.00  0.00    -0.080 HD
ENDROOT
BRANCH   1   9
ATOM      7  C   UNL     1       0.632  -4.438   0.679  0.00  0.00    +0.246 C 
ATOM      8  O   UNL     1       0.535  -4.769  -0.487  0.00  0.00    -0.270 OA
ATOM      9  N   UNL     1       0.575  -5.370   1.651  0.00  0.00    -0.310 N 
ATOM     10  H   UNL     1       0.653  -5.106   2.581  0.00  0.00    +0.149 HD
BRANCH   7  21
ATOM     11  C   UNL     1       1.231   1.548  -1.036  0.00  0.00    +0.046 C 
ATOM     12  C   UNL     1       1.068   0.058  -0.882  0.00  0.00    -0.022 A 
ATOM     13  C   UNL     1       0.909  -0.835  -1.871  0.00  0.00    +0.017 A 
ATOM     14  N   UNL     1       0.797  -2.095  -1.348  0.00  0.00    -0.357 N 
ATOM     15  H   UNL     1       0.677  -2.905  -1.867  0.00  0.00    +0.166 HD
ATOM     16  C   UNL     1       0.873  -2.042   0.020  0.00  0.00    +0.059 A 
ATOM     17  C   UNL     1       1.047  -0.693   0.377  0.00  0.00    +0.004 A 
ATOM     18  C   UNL     1       1.158  -0.334   1.720  0.00  0.00    +0.010 A 
ATOM     19  C   UNL     1       1.097  -1.302   2.700  0.00  0.00    +0.001 A 
ATOM     20  C   UNL     1       0.926  -2.633   2.365  0.00  0.00    +0.015 A 
ATOM     21  C   UNL     1       0.813  -3.017   1.030  0.00  0.00    +0.061 A 
ATOM     22  C   UNL     1       0.865  -0.501  -3.340  0.00  0.00    +0.063 C 
ENDBRANCH   7  21
ENDBRANCH   1   9
BRANCH   3  23
ATOM     23  C   UNL     1       0.227  -9.916   3.254  0.00  0.00    +0.293 C 
ATOM     24  O   UNL     1       0.360 -10.907   2.577  0.00  0.00    -0.253 OA
BRANCH  23  25
ATOM     25  O   UNL     1      -0.507  -9.964   4.377  0.00  0.00    -0.469 OA
ATOM     26  C   UNL     1      -1.112 -11.240   4.715  0.00  0.00    +0.280 C 
ENDBRANCH  23  25
ENDBRANCH   3  23
BRANCH   5  27
ATOM     27  C   UNL     1       2.964  -9.395   1.831  0.00  0.00    -0.041 C 
BRANCH  27  28
ATOM     28  C   UNL     1       3.694  -9.580   0.525  0.00  0.00    -0.056 A 
ATOM     29  C   UNL     1       4.688  -8.721   0.170  0.00  0.00    +0.002 A 
ATOM     30  C   UNL     1       5.379  -8.880  -1.030  0.00  0.00    +0.001 A 
ATOM     31  C   UNL     1       5.071  -9.892  -1.887  0.00  0.00    +0.008 A 
ATOM     32  C   UNL     1       4.046 -10.795  -1.557  0.00  0.00    -0.018 A 
ATOM     33  C   UNL     1       3.348 -10.637  -0.333  0.00  0.00    -0.017 A 
ATOM     34  C   UNL     1       2.323 -11.540  -0.004  0.00  0.00    +0.009 A 
ATOM     35  C   UNL     1       2.015 -12.551  -0.861  0.00  0.00    +0.001 A 
ATOM     36  C   UNL     1       2.701 -12.706  -2.064  0.00  0.00    +0.001 A 
ATOM     37  C   UNL     1       3.699 -11.851  -2.417  0.00  0.00    +0.008 A 
ENDBRANCH  27  28
ENDBRANCH   5  27
TORSDOF 6
