REMARK  Name = ZINC18157641
REMARK  4 active torsions:
REMARK  status: ('A' for Active; 'I' for Inactive)
REMARK    1  A    between atoms: C_4  and  N_7
REMARK    2  A    between atoms: C_12  and  C_26
REMARK    3  A    between atoms: C_28  and  N_33
REMARK    4  A    between atoms: C_31  and  O_32
REMARK                            x       y       z     vdW  Elec       q    Type
REMARK                         _______ _______ _______ _____ _____    ______ ____
ROOT
ATOM      1  N   UNL     1       3.624  -0.652  -0.037  0.00  0.00    -0.209 N 
ATOM      2  C   UNL     1       3.720  -2.008  -0.051  0.00  0.00    +0.232 C 
ATOM      3  O   UNL     1       2.825  -2.800  -0.255  0.00  0.00    -0.274 OA
ATOM      4  C   UNL     1       5.153  -2.325   0.236  0.00  0.00    +0.110 C 
ATOM      5  C   UNL     1       5.775  -3.551  -0.384  0.00  0.00    +0.075 C 
ATOM      6  C   UNL     1       7.234  -3.578  -0.026  0.00  0.00    +0.033 A 
ATOM      7  C   UNL     1       8.037  -2.571   0.383  0.00  0.00    +0.088 A 
ATOM      8  N   UNL     1       9.334  -2.935   0.651  0.00  0.00    -0.311 N 
ATOM      9  H   UNL     1       9.969  -2.271   0.961  0.00  0.00    +0.170 HD
ATOM     10  C   UNL     1       9.722  -4.213   0.483  0.00  0.00    +0.289 A 
ATOM     11  O   UNL     1      10.824  -4.699   0.670  0.00  0.00    -0.260 OA
ATOM     12  S   UNL     1       8.321  -4.980  -0.045  0.00  0.00    -0.030 S 
ATOM     13  S   UNL     1       7.418  -0.902   0.536  0.00  0.00    -0.093 S 
ATOM     14  C   UNL     1       5.850  -1.073  -0.376  0.00  0.00    +0.152 C 
ATOM     15  C   UNL     1       4.827  -0.022  -0.047  0.00  0.00    +0.240 C 
ATOM     16  O   UNL     1       5.034   1.153   0.169  0.00  0.00    -0.274 OA
ENDROOT
BRANCH   1  20
ATOM     17  C   UNL     1      -0.017   1.379   0.010  0.00  0.00    +0.000 A 
ATOM     18  C   UNL     1       1.170   2.089   0.002  0.00  0.00    +0.002 A 
ATOM     19  C   UNL     1       2.377   1.419  -0.013  0.00  0.00    +0.024 A 
ATOM     20  C   UNL     1       2.399   0.031  -0.021  0.00  0.00    +0.044 A 
ATOM     21  C   UNL     1       1.207  -0.680  -0.013  0.00  0.00    +0.024 A 
ATOM     22  C   UNL     1       0.002  -0.004   0.002  0.00  0.00    +0.002 A 
ENDBRANCH   1  20
BRANCH   5  23
ATOM     23  C   UNL     1       5.096  -4.787   0.147  0.00  0.00    +0.005 A 
ATOM     24  C   UNL     1       5.108  -5.054   1.503  0.00  0.00    +0.040 A 
ATOM     25  C   UNL     1       4.485  -6.188   1.990  0.00  0.00    +0.127 A 
ATOM     26  C   UNL     1       3.849  -7.058   1.124  0.00  0.00    +0.036 A 
ATOM     27  C   UNL     1       3.834  -6.795  -0.232  0.00  0.00    +0.048 A 
ATOM     28  C   UNL     1       4.454  -5.655  -0.724  0.00  0.00    +0.121 A 
BRANCH  25  29
ATOM     29  N   UNL     1       4.500  -6.472   3.443  0.00  0.00    +0.056 N 
ATOM     30  O   UNL     1       5.056  -5.712   4.202  0.00  0.00    -0.126 OA
ATOM     31  O   UNL     1       3.956  -7.463   3.871  0.00  0.00    -0.126 OA
ENDBRANCH  25  29
BRANCH  28  32
ATOM     32  O   UNL     1       4.436  -5.392  -2.057  0.00  0.00    -0.506 OA
ATOM     33  H   UNL     1       5.182  -5.771  -2.543  0.00  0.00    +0.292 HD
ENDBRANCH  28  32
ENDBRANCH   5  23
TORSDOF 4
