REMARK  Name = ZINC24474252
REMARK  9 active torsions:
REMARK  status: ('A' for Active; 'I' for Inactive)
REMARK    1  A    between atoms: C_1  and  C_2
REMARK    2  A    between atoms: C_3  and  S_8
REMARK    3  A    between atoms: C_4  and  C_7
REMARK    4  A    between atoms: S_8  and  N_11
REMARK    5  A    between atoms: N_11  and  C_12
REMARK    6  A    between atoms: C_12  and  C_14
REMARK    7  A    between atoms: C_12  and  C_15
REMARK    8  A    between atoms: N_17  and  N_18
REMARK    9  A    between atoms: C_19  and  C_21
REMARK                            x       y       z     vdW  Elec       q    Type
REMARK                         _______ _______ _______ _____ _____    ______ ____
ROOT
ATOM      1  C   UNL     1       3.844  -0.877  -2.967  0.00  0.00    +0.247 C 
ATOM      2  O   UNL     1       4.087   0.265  -2.639  0.00  0.00    -0.273 OA
ATOM      3  N   UNL     1       4.825  -1.801  -2.971  0.00  0.00    -0.233 N 
ATOM      4  H   UNL     1       4.630  -2.714  -3.233  0.00  0.00    +0.173 HD
ENDROOT
BRANCH   3   5
ATOM      5  N   UNL     1       6.126  -1.442  -2.595  0.00  0.00    -0.230 N 
ATOM      6  C   UNL     1       7.107  -2.366  -2.598  0.00  0.00    +0.267 C 
ATOM      7  O   UNL     1       6.863  -3.512  -2.928  0.00  0.00    -0.268 OA
ATOM      8  H   UNL     1       6.321  -0.529  -2.332  0.00  0.00    +0.173 HD
BRANCH   6   9
ATOM      9  C   UNL     1       8.469  -1.990  -2.205  0.00  0.00    +0.076 A 
ATOM     10  C   UNL     1       9.606  -2.772  -2.146  0.00  0.00    +0.024 A 
ATOM     11  C   UNL     1      10.780  -2.149  -1.732  0.00  0.00    -0.036 A 
ATOM     12  C   UNL     1      10.690  -0.828  -1.426  0.00  0.00    -0.006 A 
ATOM     13  S   UNL     1       9.092  -0.404  -1.686  0.00  0.00    -0.088 S 
ATOM     14  C   UNL     1      11.784   0.082  -0.952  0.00  0.00    +0.043 C 
ATOM     15  C   UNL     1      13.129  -0.410  -1.497  0.00  0.00    +0.005 C 
ATOM     16  C   UNL     1      13.723  -1.404  -0.504  0.00  0.00    +0.001 C 
ATOM     17  C   UNL     1      12.799  -2.605  -0.328  0.00  0.00    +0.005 C 
ATOM     18  C   UNL     1      12.089  -2.927  -1.639  0.00  0.00    +0.036 C 
ENDBRANCH   6   9
ENDBRANCH   3   5
BRANCH   1  19
ATOM     19  C   UNL     1       2.444  -1.263  -3.371  0.00  0.00    +0.160 C 
ATOM     20  C   UNL     1       2.454  -1.786  -4.809  0.00  0.00    +0.035 C 
BRANCH  19  21
ATOM     21  N   UNL     1       1.570  -0.091  -3.285  0.00  0.00    -0.178 NA
ATOM     22  H   UNL     1       1.915   0.789  -3.504  0.00  0.00    +0.149 HD
BRANCH  21  23
ATOM     23  S   UNL     1      -0.008  -0.267  -2.813  0.00  0.00    +0.064 S 
ATOM     24  O   UNL     1      -0.547  -1.328  -3.589  0.00  0.00    -0.153 OA
ATOM     25  O   UNL     1      -0.577   1.035  -2.802  0.00  0.00    -0.153 OA
BRANCH  23  28
ATOM     26  C   UNL     1      -0.018   1.503   0.010  0.00  0.00    +0.071 C 
ATOM     27  C   UNL     1       0.002  -0.004   0.002  0.00  0.00    +0.107 A 
ATOM     28  C   UNL     1       0.008  -0.824  -1.141  0.00  0.00    +0.169 A 
ATOM     29  C   UNL     1       0.027  -2.108  -0.735  0.00  0.00    +0.161 A 
ATOM     30  O   UNL     1       0.034  -2.119   0.606  0.00  0.00    -0.358 OA
ATOM     31  N   UNL     1       0.023  -0.775   1.052  0.00  0.00    -0.081 NA
ATOM     32  C   UNL     1       0.039  -3.320  -1.631  0.00  0.00    +0.091 C 
ENDBRANCH  23  28
ENDBRANCH  21  23
ENDBRANCH  19  21
ENDBRANCH   1  19
TORSDOF 6
