REMARK  Name = ZINC43510160
REMARK  18 active torsions:
REMARK  status: ('A' for Active; 'I' for Inactive)
REMARK    1  A    between atoms: C_1  and  C_2
REMARK    2  A    between atoms: C_2  and  C_3
REMARK    3  A    between atoms: C_3  and  C_4
REMARK    4  A    between atoms: C_4  and  O_6
REMARK    5  A    between atoms: O_6  and  C_7
REMARK    6  A    between atoms: C_10  and  C_36
REMARK    7  A    between atoms: C_10  and  O_37
REMARK    8  A    between atoms: C_14  and  O_29
REMARK    9  A    between atoms: C_16  and  C_28
REMARK   10  A    between atoms: C_20  and  O_27
REMARK   11  A    between atoms: C_21  and  C_25
REMARK   12  A    between atoms: C_21  and  O_26
REMARK   13  A    between atoms: O_29  and  C_30
REMARK   14  A    between atoms: C_30  and  C_32
REMARK   15  A    between atoms: C_32  and  C_35
REMARK   16  A    between atoms: C_33  and  C_34
REMARK   17  A    between atoms: O_37  and  C_38
REMARK   18  A    between atoms: C_38  and  C_40
REMARK                            x       y       z     vdW  Elec       q    Type
REMARK                         _______ _______ _______ _____ _____    ______ ____
ROOT
ATOM      1  C   UNL     1       1.336  -4.211   1.974  0.00  0.00    +0.219 C 
ATOM      2  C   UNL     1       0.054  -4.765   2.510  0.00  0.00    +0.096 C 
ATOM      3  C   UNL     1      -0.183  -6.214   2.155  0.00  0.00    +0.121 C 
ATOM      4  C   UNL     1       0.524  -7.157   3.062  0.00  0.00    +0.066 C 
ATOM      5  C   UNL     1       0.023  -8.604   3.000  0.00  0.00    +0.061 C 
ATOM      6  C   UNL     1       1.285  -9.357   3.493  0.00  0.00    +0.203 C 
ATOM      7  C   UNL     1       2.432  -8.446   3.130  0.00  0.00    -0.029 C 
ATOM      8  C   UNL     1       2.016  -7.229   2.855  0.00  0.00    -0.017 C 
ATOM      9  C   UNL     1       2.901  -6.163   2.352  0.00  0.00    +0.242 C 
ATOM     10  C   UNL     1       2.590  -4.712   2.686  0.00  0.00    +0.182 C 
ATOM     11  C   UNL     1       3.779  -4.052   1.903  0.00  0.00    +0.195 C 
ATOM     12  C   UNL     1       4.137  -5.096   0.858  0.00  0.00    +0.343 C 
ATOM     13  O   UNL     1       5.008  -4.987   0.028  0.00  0.00    -0.247 OA
ATOM     14  O   UNL     1       3.305  -6.164   0.996  0.00  0.00    -0.452 OA
ATOM     15  C   UNL     1       3.329  -2.752   1.234  0.00  0.00    +0.057 C 
ATOM     16  C   UNL     1       3.874  -8.883   3.076  0.00  0.00    +0.043 C 
ATOM     17  C   UNL     1      -1.685  -6.498   2.223  0.00  0.00    +0.056 C 
ENDROOT
BRANCH  11  18
ATOM     18  O   UNL     1       4.886  -3.814   2.776  0.00  0.00    -0.375 OA
ATOM     19  H   UNL     1       5.648  -3.406   2.342  0.00  0.00    +0.211 HD
ENDBRANCH  11  18
BRANCH  10  20
ATOM     20  O   UNL     1       2.582  -4.443   4.090  0.00  0.00    -0.378 OA
ATOM     21  H   UNL     1       2.514  -3.503   4.309  0.00  0.00    +0.211 HD
ENDBRANCH  10  20
BRANCH   1  22
ATOM     22  O   UNL     1       1.293  -2.787   2.082  0.00  0.00    -0.458 OA
BRANCH  22  23
ATOM     23  C   UNL     1       0.743  -2.114   1.059  0.00  0.00    +0.307 C 
ATOM     24  O   UNL     1       0.311  -2.715   0.104  0.00  0.00    -0.251 OA
BRANCH  23  25
ATOM     25  C   UNL     1       0.663  -0.610   1.103  0.00  0.00    +0.120 C 
BRANCH  25  27
ATOM     26  C   UNL     1      -0.084   1.430  -0.132  0.00  0.00    +0.004 C 
ATOM     27  C   UNL     1      -0.003  -0.097  -0.176  0.00  0.00    +0.008 C 
ENDBRANCH  25  27
ENDBRANCH  23  25
ENDBRANCH  22  23
ENDBRANCH   1  22
BRANCH   6  28
ATOM     28  O   UNL     1       1.228  -9.553   4.907  0.00  0.00    -0.454 OA
BRANCH  28  29
ATOM     29  C   UNL     1       1.843 -10.648   5.398  0.00  0.00    +0.335 C 
ATOM     30  O   UNL     1       2.412 -11.414   4.645  0.00  0.00    -0.245 OA
BRANCH  29  31
ATOM     31  C   UNL     1       1.826 -10.914   6.843  0.00  0.00    +0.029 C 
ATOM     32  C   UNL     1       2.433 -11.995   7.327  0.00  0.00    -0.020 C 
ATOM     33  C   UNL     1       2.416 -12.268   8.809  0.00  0.00    +0.036 C 
ATOM     34  C   UNL     1       1.121  -9.964   7.776  0.00  0.00    +0.051 C 
ENDBRANCH  29  31
ENDBRANCH  28  29
ENDBRANCH   6  28
BRANCH   3  35
ATOM     35  O   UNL     1       0.265  -6.440   0.817  0.00  0.00    -0.458 OA
BRANCH  35  36
ATOM     36  C   UNL     1      -0.323  -5.721  -0.152  0.00  0.00    +0.304 C 
ATOM     37  O   UNL     1      -1.190  -4.927   0.127  0.00  0.00    -0.251 OA
ATOM     38  C   UNL     1       0.097  -5.906  -1.587  0.00  0.00    +0.136 C 
ENDBRANCH  35  36
ENDBRANCH   3  35
TORSDOF 11
