REMARK  Name = ZINC01197921
REMARK  9 active torsions:
REMARK  status: ('A' for Active; 'I' for Inactive)
REMARK    1  A    between atoms: C_1  and  C_2
REMARK    2  A    between atoms: C_2  and  O_3
REMARK    3  A    between atoms: O_3  and  C_4
REMARK    4  A    between atoms: C_6  and  C_22
REMARK    5  A    between atoms: C_9  and  O_10
REMARK    6  A    between atoms: O_10  and  C_11
REMARK    7  A    between atoms: C_11  and  C_13
REMARK    8  A    between atoms: C_16  and  O_19
REMARK    9  A    between atoms: O_19  and  C_20
REMARK                            x       y       z     vdW  Elec       q    Type
REMARK                         _______ _______ _______ _____ _____    ______ ____
ROOT
ATOM      1  C   UNL     1      -0.808  -2.159  -0.555  0.00  0.00    +0.164 A 
ATOM      2  C   UNL     1      -0.961  -0.826  -0.236  0.00  0.00    +0.057 A 
ATOM      3  C   UNL     1       0.137   0.043  -0.327  0.00  0.00    -0.019 A 
ATOM      4  C   UNL     1       1.382  -0.449  -0.747  0.00  0.00    +0.027 A 
ATOM      5  C   UNL     1       1.524  -1.782  -1.057  0.00  0.00    +0.064 A 
ATOM      6  C   UNL     1       0.435  -2.642  -0.966  0.00  0.00    +0.187 A 
ATOM      7 BR   UNL     1       3.205  -2.446  -1.615  0.00  0.00    -0.046 Br
ENDROOT
BRANCH   3   8
ATOM      8  C   UNL     1      -0.018   1.459   0.010  0.00  0.00    +0.026 C 
ATOM      9  C   UNL     1       0.920   2.085   0.808  0.00  0.00    +0.100 C 
ATOM     10  C   UNL     1       1.961   1.319   1.521  0.00  0.00    +0.256 C 
ATOM     11  O   UNL     1       2.022   0.108   1.425  0.00  0.00    -0.270 OA
ATOM     12  N   UNL     1       2.846   2.000   2.278  0.00  0.00    -0.236 N 
ATOM     13  C   UNL     1       2.787   3.333   2.398  0.00  0.00    +0.313 C 
ATOM     14  O   UNL     1       3.612   3.884   3.100  0.00  0.00    -0.252 OA
ATOM     15  N   UNL     1       1.868   4.092   1.786  0.00  0.00    -0.236 N 
ATOM     16  C   UNL     1       0.921   3.550   0.991  0.00  0.00    +0.256 C 
ATOM     17  O   UNL     1       0.092   4.250   0.441  0.00  0.00    -0.270 OA
ATOM     18  H   UNL     1       3.539   1.512   2.750  0.00  0.00    +0.159 HD
ATOM     19  H   UNL     1       1.883   5.053   1.916  0.00  0.00    +0.159 HD
ENDBRANCH   3   8
BRANCH   1  20
ATOM     20  O   UNL     1      -1.870  -3.004  -0.468  0.00  0.00    -0.488 OA
BRANCH  20  22
ATOM     21  C   UNL     1      -4.181  -3.537  -0.005  0.00  0.00    +0.048 C 
ATOM     22  C   UNL     1      -3.113  -2.443  -0.041  0.00  0.00    +0.226 C 
ENDBRANCH  20  22
ENDBRANCH   1  20
BRANCH   6  23
ATOM     23  O   UNL     1       0.581  -3.954  -1.280  0.00  0.00    -0.417 OA
BRANCH  23  24
ATOM     24  C   UNL     1       0.362  -4.305  -2.562  0.00  0.00    +0.345 C 
ATOM     25  O   UNL     1       0.049  -3.461  -3.378  0.00  0.00    -0.245 OA
BRANCH  24  26
ATOM     26  C   UNL     1       0.502  -5.714  -2.976  0.00  0.00    +0.060 A 
ATOM     27  C   UNL     1       0.868  -6.686  -2.040  0.00  0.00    +0.018 A 
ATOM     28  C   UNL     1       0.992  -8.001  -2.429  0.00  0.00    +0.046 A 
ATOM     29  C   UNL     1       0.767  -8.361  -3.752  0.00  0.00    +0.120 A 
ATOM     30  C   UNL     1       0.408  -7.396  -4.687  0.00  0.00    +0.046 A 
ATOM     31  C   UNL     1       0.276  -6.080  -4.306  0.00  0.00    +0.018 A 
BRANCH  29  32
ATOM     32  O   UNL     1       0.896  -9.657  -4.133  0.00  0.00    -0.495 OA
ATOM     33  C   UNL     1       1.267 -10.596  -3.121  0.00  0.00    +0.277 C 
ENDBRANCH  29  32
ENDBRANCH  24  26
ENDBRANCH  23  24
ENDBRANCH   6  23
TORSDOF 7
