REMARK  Name = ZINC43675568
REMARK  5 active torsions:
REMARK  status: ('A' for Active; 'I' for Inactive)
REMARK    1  A    between atoms: C_3  and  C_15
REMARK    2  A    between atoms: C_5  and  O_7
REMARK    3  A    between atoms: O_7  and  C_8
REMARK    4  A    between atoms: C_8  and  C_9
REMARK    5  A    between atoms: C_15  and  N_17
REMARK                            x       y       z     vdW  Elec       q    Type
REMARK                         _______ _______ _______ _____ _____    ______ ____
ROOT
ATOM      1  C   UNL     1      -0.017   1.378   0.010  0.00  0.00    +0.004 A 
ATOM      2  C   UNL     1       1.166   2.089   0.002  0.00  0.00    +0.010 A 
ATOM      3  C   UNL     1       2.387   1.411  -0.013  0.00  0.00    +0.006 A 
ATOM      4  C   UNL     1       2.404   0.015  -0.021  0.00  0.00    +0.056 A 
ATOM      5  C   UNL     1       1.211  -0.687  -0.013  0.00  0.00    +0.122 A 
ATOM      6  C   UNL     1       0.002  -0.004   0.002  0.00  0.00    +0.046 A 
ENDROOT
BRANCH   3   7
ATOM      7  C   UNL     1       3.655   2.167  -0.022  0.00  0.00    +0.077 C 
ATOM      8  S   UNL     1       5.020   1.559   0.812  0.00  0.00    -0.035 S 
BRANCH   7   9
ATOM      9  N   UNL     1       3.737   3.337  -0.686  0.00  0.00    -0.352 N 
ATOM     10  H   UNL     1       2.963   3.682  -1.159  0.00  0.00    +0.143 HD
ATOM     11  H   UNL     1       4.570   3.834  -0.692  0.00  0.00    +0.143 HD
ENDBRANCH   7   9
ENDBRANCH   3   7
BRANCH   5  12
ATOM     12  O   UNL     1       1.223  -2.046  -0.021  0.00  0.00    -0.487 OA
BRANCH  12  13
ATOM     13  C   UNL     1      -0.045  -2.706  -0.012  0.00  0.00    +0.272 C 
BRANCH  13  14
ATOM     14  C   UNL     1       0.166  -4.199  -0.023  0.00  0.00    +0.041 A 
ATOM     15  C   UNL     1       0.290  -5.051   1.024  0.00  0.00    +0.031 A 
ATOM     16  C   UNL     1       0.479  -6.397   0.774  0.00  0.00    +0.023 A 
ATOM     17  C   UNL     1       0.534  -6.825  -0.511  0.00  0.00    +0.046 A 
ATOM     18  S   UNL     1       0.309  -5.304  -1.417  0.00  0.00    -0.097 S 
ATOM     19 BR   UNL     1       0.207  -4.407   2.801  0.00  0.00    -0.049 Br
ENDBRANCH  13  14
ENDBRANCH  12  13
ENDBRANCH   5  12
TORSDOF 5
