REMARK  Name = ZINC21689721
REMARK  7 active torsions:
REMARK  status: ('A' for Active; 'I' for Inactive)
REMARK    1  A    between atoms: C_1  and  O_2
REMARK    2  A    between atoms: O_2  and  C_3
REMARK    3  A    between atoms: C_7  and  N_9
REMARK    4  A    between atoms: C_15  and  C_17
REMARK    5  A    between atoms: C_17  and  C_18
REMARK    6  A    between atoms: C_18  and  C_19
REMARK    7  A    between atoms: C_25  and  C_27
REMARK                            x       y       z     vdW  Elec       q    Type
REMARK                         _______ _______ _______ _____ _____    ______ ____
ROOT
ATOM      1  C   UNL     1       0.880  -9.999  -4.061  0.00  0.00    +0.065 C 
ENDROOT
BRANCH   1   2
ATOM      2  C   UNL     1       1.466 -10.654  -5.285  0.00  0.00    +0.051 A 
ATOM      3  C   UNL     1       2.494 -11.533  -5.195  0.00  0.00    +0.071 A 
ATOM      4  S   UNL     1       2.730 -11.946  -6.916  0.00  0.00    -0.060 S 
ATOM      5  C   UNL     1       1.517 -10.973  -7.558  0.00  0.00    +0.165 A 
ATOM      6  N   UNL     1       0.997 -10.401  -6.494  0.00  0.00    -0.230 NA
ATOM      7  N   UNL     1       1.150 -10.815  -8.889  0.00  0.00    -0.261 N 
ATOM      8  C   UNL     1       1.802 -11.495  -9.852  0.00  0.00    +0.255 C 
ATOM      9  O   UNL     1       2.641 -12.323  -9.551  0.00  0.00    -0.270 OA
ATOM     10  H   UNL     1       0.425 -10.215  -9.124  0.00  0.00    +0.157 HD
BRANCH   8  11
ATOM     11  C   UNL     1       1.498 -11.238 -11.268  0.00  0.00    +0.101 A 
ATOM     12  C   UNL     1       2.075 -12.016 -12.270  0.00  0.00    +0.020 A 
ATOM     13  C   UNL     1       1.763 -11.742 -13.601  0.00  0.00    +0.018 A 
ATOM     14  C   UNL     1       0.911 -10.730 -13.907  0.00  0.00    +0.086 A 
ATOM     15  N   UNL     1       0.348  -9.969 -12.939  0.00  0.00    -0.328 N 
ATOM     16  H   UNL     1      -0.257  -9.252 -13.186  0.00  0.00    +0.168 HD
ATOM     17  C   UNL     1       0.609 -10.195 -11.637  0.00  0.00    +0.261 A 
ATOM     18  O   UNL     1       0.088  -9.503 -10.780  0.00  0.00    -0.267 OA
ENDBRANCH   8  11
ENDBRANCH   1   2
BRANCH   1  19
ATOM     19  C   UNL     1       0.908  -8.479  -4.233  0.00  0.00    +0.102 C 
BRANCH  19  26
ATOM     20  N   UNL     1       1.184  -3.993  -2.303  0.00  0.00    -0.327 N 
ATOM     21  C   UNL     1       0.703  -4.832  -1.196  0.00  0.00    +0.124 C 
ATOM     22  C   UNL     1      -0.325  -5.828  -1.748  0.00  0.00    +0.126 C 
ATOM     23  N   UNL     1       0.243  -6.481  -2.936  0.00  0.00    -0.298 N 
ATOM     24  C   UNL     1       0.724  -5.642  -4.042  0.00  0.00    +0.126 C 
ATOM     25  C   UNL     1       1.747  -4.646  -3.494  0.00  0.00    +0.124 C 
ATOM     26  C   UNL     1       0.323  -7.824  -3.009  0.00  0.00    +0.216 C 
ATOM     27  O   UNL     1      -0.077  -8.506  -2.089  0.00  0.00    -0.276 OA
BRANCH  20  32
ATOM     28  C   UNL     1       0.386  -0.618  -1.079  0.00  0.00    +0.122 A 
ATOM     29  C   UNL     1       0.943   0.161  -2.084  0.00  0.00    +0.046 A 
ATOM     30  C   UNL     1       1.576  -0.439  -3.155  0.00  0.00    +0.005 A 
ATOM     31  C   UNL     1       1.657  -1.816  -3.230  0.00  0.00    +0.023 A 
ATOM     32  C   UNL     1       1.102  -2.601  -2.228  0.00  0.00    +0.033 A 
ATOM     33  C   UNL     1       0.470  -2.000  -1.147  0.00  0.00    +0.068 A 
BRANCH  28  35
ATOM     34  C   UNL     1      -0.286   1.402  -0.020  0.00  0.00    +0.277 C 
ATOM     35  O   UNL     1      -0.237  -0.026  -0.026  0.00  0.00    -0.495 OA
ENDBRANCH  28  35
ENDBRANCH  20  32
ENDBRANCH  19  26
ENDBRANCH   1  19
TORSDOF 6
