REMARK  Name = ZINC22324892
REMARK  7 active torsions:
REMARK  status: ('A' for Active; 'I' for Inactive)
REMARK    1  A    between atoms: C_1  and  C_2
REMARK    2  A    between atoms: C_5  and  C_31
REMARK    3  A    between atoms: N_8  and  C_10
REMARK    4  A    between atoms: C_10  and  C_11
REMARK    5  A    between atoms: N_16  and  C_17
REMARK    6  A    between atoms: C_17  and  C_19
REMARK    7  A    between atoms: C_19  and  N_20
REMARK                            x       y       z     vdW  Elec       q    Type
REMARK                         _______ _______ _______ _____ _____    ______ ____
ROOT
ATOM      1  C   UNL     1       2.146   0.211   3.650  0.00  0.00    +0.008 A 
ATOM      2  C   UNL     1       1.517  -0.522   4.575  0.00  0.00    +0.067 A 
ATOM      3  S   UNL     1       0.947   0.727   5.713  0.00  0.00    -0.061 S 
ATOM      4  C   UNL     1       1.552   2.084   4.924  0.00  0.00    +0.163 A 
ATOM      5  N   UNL     1       2.170   1.558   3.832  0.00  0.00    -0.341 N 
ATOM      6  N   UNL     1       1.455   3.365   5.285  0.00  0.00    -0.155 NA
ATOM      7  H   UNL     1       2.616   2.135   3.193  0.00  0.00    +0.167 HD
ENDROOT
BRANCH   6   8
ATOM      8  C   UNL     1       0.812   3.693   6.399  0.00  0.00    +0.258 C 
ATOM      9  O   UNL     1       0.311   2.827   7.090  0.00  0.00    -0.272 OA
BRANCH   8  10
ATOM     10  C   UNL     1       0.701   5.140   6.806  0.00  0.00    +0.224 C 
BRANCH  10  11
ATOM     11  N   UNL     1      -0.049   5.238   8.061  0.00  0.00    -0.290 N 
ATOM     12  C   UNL     1      -1.400   5.372   8.028  0.00  0.00    +0.203 A 
ATOM     13  N   UNL     1      -2.135   5.466   9.095  0.00  0.00    -0.237 NA
ATOM     14  C   UNL     1      -1.591   5.434  10.337  0.00  0.00    +0.078 A 
ATOM     15  C   UNL     1      -2.381   5.534  11.485  0.00  0.00    +0.028 A 
ATOM     16  C   UNL     1      -1.786   5.497  12.726  0.00  0.00    +0.002 A 
ATOM     17  C   UNL     1      -0.410   5.362  12.852  0.00  0.00    +0.001 A 
ATOM     18  C   UNL     1       0.390   5.262  11.735  0.00  0.00    +0.015 A 
ATOM     19  C   UNL     1      -0.192   5.297  10.469  0.00  0.00    +0.065 A 
ATOM     20  C   UNL     1       0.610   5.189   9.242  0.00  0.00    +0.262 A 
ATOM     21  O   UNL     1       1.820   5.064   9.286  0.00  0.00    -0.267 OA
ENDBRANCH  10  11
ENDBRANCH   8  10
ENDBRANCH   6   8
BRANCH   1  22
ATOM     22  C   UNL     1       2.808  -0.431   2.458  0.00  0.00    -0.024 C 
BRANCH  22  28
ATOM     23  C   UNL     1      -0.019   1.526   0.010  0.00  0.00    +0.005 C 
ATOM     24  C   UNL     1       0.002  -0.004   0.002  0.00  0.00    -0.031 C 
ATOM     25  C   UNL     1       0.721  -0.499  -1.257  0.00  0.00    +0.003 C 
ATOM     26  C   UNL     1       2.177  -0.027  -1.220  0.00  0.00    -0.031 C 
ATOM     27  C   UNL     1       2.839  -0.534   0.063  0.00  0.00    -0.075 C 
ATOM     28  N   UNL     1       2.123  -0.005   1.230  0.00  0.00    +0.384 N 
ATOM     29  C   UNL     1       0.744  -0.512   1.240  0.00  0.00    -0.075 C 
ATOM     30  C   UNL     1       2.924  -0.581  -2.434  0.00  0.00    +0.005 C 
ATOM     31  H   UNL     1       2.109   1.003   1.187  0.00  0.00    -0.081 HD
ENDBRANCH  22  28
ENDBRANCH   1  22
TORSDOF 5
