REMARK  Name = ZINC32847883
REMARK  3 active torsions:
REMARK  status: ('A' for Active; 'I' for Inactive)
REMARK    1  A    between atoms: C_9  and  C_12
REMARK    2  A    between atoms: C_15  and  C_17
REMARK    3  A    between atoms: C_17  and  C_18
REMARK                            x       y       z     vdW  Elec       q    Type
REMARK                         _______ _______ _______ _____ _____    ______ ____
ROOT
ATOM      1  C   UNL     1       7.852   5.548   1.751  0.00  0.00    +0.002 A 
ATOM      2  C   UNL     1       8.986   6.279   1.451  0.00  0.00    +0.004 A 
ATOM      3  C   UNL     1       9.411   6.400   0.141  0.00  0.00    +0.047 A 
ATOM      4  C   UNL     1       8.698   5.789  -0.880  0.00  0.00    +0.143 A 
ATOM      5  C   UNL     1       7.552   5.061  -0.576  0.00  0.00    +0.078 A 
ATOM      6  C   UNL     1       7.134   4.936   0.740  0.00  0.00    +0.027 A 
ATOM      7  N   UNL     1       6.826   4.439  -1.607  0.00  0.00    -0.264 N 
ATOM      8  C   UNL     1       7.467   4.335  -2.929  0.00  0.00    +0.168 C 
ATOM      9  C   UNL     1       8.176   5.668  -3.206  0.00  0.00    +0.276 C 
ATOM     10  O   UNL     1       9.124   5.912  -2.164  0.00  0.00    -0.476 OA
ATOM     11  C   UNL     1       5.584   3.960  -1.393  0.00  0.00    +0.224 C 
ATOM     12  O   UNL     1       5.035   4.150  -0.329  0.00  0.00    -0.275 OA
ENDROOT
BRANCH   9  13
ATOM     13  C   UNL     1       8.890   5.594  -4.531  0.00  0.00    +0.253 C 
ATOM     14  O   UNL     1      10.101   5.657  -4.572  0.00  0.00    -0.272 OA
ATOM     15  N   UNL     1       8.184   5.457  -5.671  0.00  0.00    -0.326 N 
ATOM     16  H   UNL     1       8.705   5.403  -6.638  0.00  0.00    +0.145 HD
ATOM     17  H   UNL     1       7.086   5.400  -5.634  0.00  0.00    +0.145 HD
ENDBRANCH   9  13
BRANCH  11  18
ATOM     18  C   UNL     1       4.878   3.188  -2.478  0.00  0.00    +0.131 C 
BRANCH  18  19
ATOM     19  C   UNL     1       3.574   2.654  -1.947  0.00  0.00    -0.034 A 
ATOM     20  C   UNL     1       2.422   3.411  -2.055  0.00  0.00    +0.053 A 
ATOM     21  C   UNL     1       1.220   2.922  -1.567  0.00  0.00    +0.164 A 
ATOM     22  C   UNL     1       1.175   1.667  -0.971  0.00  0.00    +0.180 A 
ATOM     23  C   UNL     1       2.334   0.912  -0.864  0.00  0.00    +0.086 A 
ATOM     24  C   UNL     1       3.530   1.407  -1.352  0.00  0.00    +0.028 A 
ATOM     25 CL   UNL     1       2.283  -0.654  -0.117  0.00  0.00    -0.080 Cl
ATOM     26  O   UNL     1       0.004   1.166  -0.489  0.00  0.00    -0.483 OA
ATOM     27  C   UNL     1      -1.059   2.103  -0.280  0.00  0.00    +0.270 C 
ATOM     28  C   UNL     1      -1.156   3.004  -1.518  0.00  0.00    +0.270 C 
ATOM     29  O   UNL     1       0.095   3.680  -1.679  0.00  0.00    -0.485 OA
ENDBRANCH  18  19
ENDBRANCH  11  18
TORSDOF 3
