REMARK  Name = ZINC11363234
REMARK  6 active torsions:
REMARK  status: ('A' for Active; 'I' for Inactive)
REMARK    1  A    between atoms: N_9  and  C_14
REMARK    2  A    between atoms: C_14  and  C_15
REMARK    3  A    between atoms: C_15  and  C_16
REMARK    4  A    between atoms: N_18  and  C_19
REMARK    5  A    between atoms: C_22  and  N_25
REMARK    6  A    between atoms: C_26  and  C_28
REMARK                            x       y       z     vdW  Elec       q    Type
REMARK                         _______ _______ _______ _____ _____    ______ ____
ROOT
ATOM      1  C   UNL     1       6.458   5.438  -1.441  0.00  0.00    +0.219 C 
ATOM      2  O   UNL     1       6.974   5.776  -0.397  0.00  0.00    -0.275 OA
ATOM      3  N   UNL     1       7.012   5.800  -2.615  0.00  0.00    -0.285 N 
ATOM      4  H   UNL     1       6.638   5.474  -3.449  0.00  0.00    +0.155 HD
ENDROOT
BRANCH   3   5
ATOM      5  C   UNL     1       8.127   6.648  -2.631  0.00  0.00    +0.033 A 
ATOM      6  C   UNL     1       8.278   7.576  -3.653  0.00  0.00    +0.025 A 
ATOM      7  C   UNL     1       9.375   8.415  -3.667  0.00  0.00    +0.025 A 
ATOM      8  C   UNL     1      10.331   8.324  -2.664  0.00  0.00    +0.034 A 
ATOM      9  C   UNL     1      10.182   7.392  -1.645  0.00  0.00    +0.025 A 
ATOM     10  C   UNL     1       9.083   6.557  -1.629  0.00  0.00    +0.025 A 
BRANCH   8  11
ATOM     11  N   UNL     1      11.446   9.171  -2.680  0.00  0.00    -0.279 N 
ATOM     12  C   UNL     1      12.641   8.720  -2.249  0.00  0.00    +0.284 C 
ATOM     13  O   UNL     1      12.734   7.606  -1.768  0.00  0.00    -0.266 OA
ATOM     14  H   UNL     1      11.358  10.082  -3.002  0.00  0.00    +0.155 HD
BRANCH  12  15
ATOM     15  C   UNL     1      13.829   9.572  -2.361  0.00  0.00    +0.189 A 
ATOM     16  C   UNL     1      15.093   9.242  -1.965  0.00  0.00    +0.054 A 
ATOM     17  C   UNL     1      15.909  10.346  -2.257  0.00  0.00    +0.042 A 
ATOM     18  C   UNL     1      15.117  11.290  -2.812  0.00  0.00    +0.196 A 
ATOM     19  O   UNL     1      13.865  10.818  -2.877  0.00  0.00    -0.458 OA
ENDBRANCH  12  15
ENDBRANCH   8  11
ENDBRANCH   3   5
BRANCH   1  20
ATOM     20  C   UNL     1       5.198   4.612  -1.425  0.00  0.00    +0.118 C 
BRANCH  20  21
ATOM     21  C   UNL     1       4.783   4.340   0.022  0.00  0.00    +0.136 C 
BRANCH  21  30
ATOM     22  C   UNL     1       1.217  -0.676   0.081  0.00  0.00    +0.001 A 
ATOM     23  C   UNL     1       0.012   0.010   0.087  0.00  0.00    +0.002 A 
ATOM     24  C   UNL     1      -0.012   1.391   0.078  0.00  0.00    +0.026 A 
ATOM     25  C   UNL     1       1.180   2.100   0.065  0.00  0.00    +0.053 A 
ATOM     26  C   UNL     1       2.402   1.405   0.059  0.00  0.00    +0.063 A 
ATOM     27  C   UNL     1       2.412   0.012   0.067  0.00  0.00    +0.015 A 
ATOM     28  C   UNL     1       3.650   2.189   0.044  0.00  0.00    +0.262 A 
ATOM     29  O   UNL     1       4.733   1.638   0.039  0.00  0.00    -0.267 OA
ATOM     30  N   UNL     1       3.558   3.537   0.037  0.00  0.00    -0.288 N 
ATOM     31  C   UNL     1       2.367   4.154   0.043  0.00  0.00    +0.161 A 
ATOM     32  S   UNL     1       2.330   5.866   0.033  0.00  0.00    -0.013 S 
ATOM     33  N   UNL     1       1.200   3.486   0.057  0.00  0.00    -0.335 N 
ATOM     34  H   UNL     1       0.365   3.979   0.060  0.00  0.00    +0.168 HD
ENDBRANCH  21  30
ENDBRANCH  20  21
ENDBRANCH   1  20
TORSDOF 6
