REMARK  Name = ZINC19084397
REMARK  8 active torsions:
REMARK  status: ('A' for Active; 'I' for Inactive)
REMARK    1  A    between atoms: C_1  and  C_2
REMARK    2  A    between atoms: C_2  and  C_3
REMARK    3  A    between atoms: C_2  and  C_4
REMARK    4  A    between atoms: C_2  and  C_5
REMARK    5  A    between atoms: C_8  and  C_13
REMARK    6  A    between atoms: N_15  and  C_16
REMARK    7  A    between atoms: C_16  and  C_17
REMARK    8  A    between atoms: C_17  and  C_23
REMARK                            x       y       z     vdW  Elec       q    Type
REMARK                         _______ _______ _______ _____ _____    ______ ____
ROOT
ATOM      1  C   UNL     1       2.021  -0.304   5.927  0.00  0.00    +0.249 C 
ATOM      2  O   UNL     1       2.963  -1.066   5.823  0.00  0.00    -0.270 OA
ATOM      3  N   UNL     1       1.612   0.101   7.146  0.00  0.00    -0.310 N 
ATOM      4  H   UNL     1       0.816   0.648   7.234  0.00  0.00    +0.149 HD
ENDROOT
BRANCH   1   8
ATOM      5  C   UNL     1       0.004   1.085   2.487  0.00  0.00    +0.024 A 
ATOM      6  C   UNL     1       1.122   0.330   2.334  0.00  0.00    +0.022 A 
ATOM      7  C   UNL     1       1.810  -0.137   3.453  0.00  0.00    +0.020 A 
ATOM      8  C   UNL     1       1.326   0.175   4.722  0.00  0.00    +0.101 A 
ATOM      9  C   UNL     1       0.151   0.963   4.831  0.00  0.00    +0.261 A 
ATOM     10  O   UNL     1      -0.293   1.249   5.929  0.00  0.00    -0.267 OA
ATOM     11  N   UNL     1      -0.472   1.393   3.717  0.00  0.00    -0.325 N 
ATOM     12  H   UNL     1      -1.275   1.931   3.797  0.00  0.00    +0.169 HD
BRANCH   5  14
ATOM     13  C   UNL     1       0.005   1.110   0.008  0.00  0.00    +0.017 C 
ATOM     14  C   UNL     1      -0.723   1.587   1.266  0.00  0.00    +0.002 C 
ATOM     15  C   UNL     1      -0.760   3.116   1.286  0.00  0.00    +0.017 C 
ATOM     16  C   UNL     1      -2.153   1.042   1.265  0.00  0.00    +0.017 C 
ENDBRANCH   5  14
ENDBRANCH   1   8
BRANCH   3  17
ATOM     17  C   UNL     1       2.371  -0.286   8.338  0.00  0.00    +0.116 C 
BRANCH  17  18
ATOM     18  C   UNL     1       1.699   0.300   9.582  0.00  0.00    +0.018 C 
ATOM     19  C   UNL     1       1.673   1.828   9.479  0.00  0.00    +0.041 C 
ATOM     20  C   UNL     1       3.110   2.354   9.450  0.00  0.00    +0.160 C 
ATOM     21  O   UNL     1       3.799   1.918  10.623  0.00  0.00    -0.380 OA
ATOM     22  C   UNL     1       3.896   0.498  10.748  0.00  0.00    +0.160 C 
ATOM     23  C   UNL     1       2.491  -0.103  10.829  0.00  0.00    +0.041 C 
BRANCH  18  24
ATOM     24  C   UNL     1       0.290  -0.225   9.688  0.00  0.00    -0.004 A 
ATOM     25  C   UNL     1      -0.196  -1.099   8.734  0.00  0.00    +0.007 A 
ATOM     26  C   UNL     1      -1.488  -1.580   8.831  0.00  0.00    +0.000 A 
ATOM     27  C   UNL     1      -2.296  -1.188   9.882  0.00  0.00    +0.003 A 
ATOM     28  C   UNL     1      -1.812  -0.315  10.838  0.00  0.00    +0.038 A 
ATOM     29  C   UNL     1      -0.516   0.165  10.743  0.00  0.00    +0.127 A 
ATOM     30  F   UNL     1      -0.040   1.015  11.680  0.00  0.00    -0.205 F 
ENDBRANCH  18  24
ENDBRANCH  17  18
ENDBRANCH   3  17
TORSDOF 5
