REMARK  Name = ZINC09183611
REMARK  5 active torsions:
REMARK  status: ('A' for Active; 'I' for Inactive)
REMARK    1  A    between atoms: C_6  and  C_7
REMARK    2  A    between atoms: C_7  and  C_9
REMARK    3  A    between atoms: C_7  and  C_21
REMARK    4  A    between atoms: C_10  and  O_20
REMARK    5  A    between atoms: C_27  and  O_28
REMARK                            x       y       z     vdW  Elec       q    Type
REMARK                         _______ _______ _______ _____ _____    ______ ____
ROOT
ATOM      1  C   UNL     1      -0.013   1.086   0.008  0.00  0.00    +0.100 C 
ENDROOT
BRANCH   1   2
ATOM      2  C   UNL     1       0.019   2.421  -0.691  0.00  0.00    +0.090 A 
ATOM      3  C   UNL     1       1.155   2.843  -1.362  0.00  0.00    +0.224 A 
ATOM      4  N   UNL     1       1.129   4.000  -2.019  0.00  0.00    -0.189 NA
ATOM      5  C   UNL     1       0.057   4.782  -2.035  0.00  0.00    +0.175 A 
ATOM      6  N   UNL     1      -1.028   4.480  -1.281  0.00  0.00    -0.287 N 
ATOM      7  C   UNL     1      -1.096   3.258  -0.683  0.00  0.00    +0.262 A 
ATOM      8  O   UNL     1      -2.128   2.899  -0.138  0.00  0.00    -0.267 OA
ATOM      9  C   UNL     1      -2.145   5.380  -1.014  0.00  0.00    +0.128 C 
ATOM     10  C   UNL     1      -2.413   6.361  -2.143  0.00  0.00    +0.033 C 
ATOM     11  C   UNL     1      -1.159   7.221  -2.352  0.00  0.00    +0.079 C 
ATOM     12  S   UNL     1       0.100   6.173  -3.122  0.00  0.00    -0.087 S 
BRANCH   3  13
ATOM     13  O   UNL     1       2.278   2.087  -1.350  0.00  0.00    -0.492 OA
ATOM     14  H   UNL     1       3.014   2.469  -1.847  0.00  0.00    +0.294 HD
ENDBRANCH   3  13
ENDBRANCH   1   2
BRANCH   1  15
ATOM     15  C   UNL     1       1.334   0.421  -0.117  0.00  0.00    +0.090 A 
ATOM     16  C   UNL     1       1.706  -0.238  -1.309  0.00  0.00    +0.282 A 
ATOM     17  O   UNL     1       0.951  -0.255  -2.271  0.00  0.00    -0.265 OA
ATOM     18  N   UNL     1       2.897  -0.839  -1.372  0.00  0.00    -0.185 NA
ATOM     19  C   UNL     1       3.751  -0.832  -0.353  0.00  0.00    +0.175 A 
ATOM     20  N   UNL     1       3.448  -0.176   0.791  0.00  0.00    -0.291 N 
ATOM     21  C   UNL     1       2.214   0.436   0.913  0.00  0.00    +0.204 A 
ATOM     22  C   UNL     1       4.327  -0.029   1.947  0.00  0.00    +0.128 C 
ATOM     23  C   UNL     1       5.395  -1.105   2.038  0.00  0.00    +0.033 C 
ATOM     24  C   UNL     1       6.250  -1.051   0.765  0.00  0.00    +0.079 C 
ATOM     25  S   UNL     1       5.256  -1.722  -0.590  0.00  0.00    -0.087 S 
BRANCH  21  26
ATOM     26  O   UNL     1       1.883   1.053   2.069  0.00  0.00    -0.493 OA
ATOM     27  H   UNL     1       1.442   0.478   2.710  0.00  0.00    +0.294 HD
ENDBRANCH  21  26
ENDBRANCH   1  15
BRANCH   1  33
ATOM     28  C   UNL     1      -1.773   0.667  -1.722  0.00  0.00    +0.006 A 
ATOM     29  C   UNL     1      -2.734  -0.135  -2.306  0.00  0.00    +0.020 A 
ATOM     30  C   UNL     1      -2.997  -1.390  -1.785  0.00  0.00    +0.041 A 
ATOM     31  C   UNL     1      -2.292  -1.843  -0.684  0.00  0.00    +0.020 A 
ATOM     32  C   UNL     1      -1.327  -1.041  -0.104  0.00  0.00    +0.006 A 
ATOM     33  C   UNL     1      -1.065   0.212  -0.625  0.00  0.00    -0.035 A 
ATOM     34 CL   UNL     1      -4.209  -2.396  -2.514  0.00  0.00    -0.084 Cl
ENDBRANCH   1  33
TORSDOF 5
