REMARK  Name = ZINC04623965
REMARK  4 active torsions:
REMARK  status: ('A' for Active; 'I' for Inactive)
REMARK    1  A    between atoms: C_1  and  C_2
REMARK    2  A    between atoms: C_4  and  C_25
REMARK    3  A    between atoms: C_4  and  O_26
REMARK    4  A    between atoms: C_5  and  C_19
REMARK                            x       y       z     vdW  Elec       q    Type
REMARK                         _______ _______ _______ _____ _____    ______ ____
ROOT
ATOM      1  C   UNL     1      -0.285  -3.151  -2.853  0.00  0.00    +0.034 C 
ATOM      2  C   UNL     1      -0.134  -2.375  -1.543  0.00  0.00    +0.121 C 
ATOM      3  C   UNL     1      -1.223  -1.314  -1.470  0.00  0.00    +0.110 C 
ATOM      4  C   UNL     1      -1.083  -0.485  -0.185  0.00  0.00    +0.202 C 
ATOM      5  S   UNL     1      -1.562  -1.558   1.210  0.00  0.00    +0.040 S 
ATOM      6  O   UNL     1      -0.939  -1.122   2.410  0.00  0.00    -0.166 OA
ATOM      7  O   UNL     1      -2.953  -1.842   1.166  0.00  0.00    -0.166 OA
ATOM      8  C   UNL     1      -0.762  -3.083   0.797  0.00  0.00    +0.253 A 
ATOM      9  N   UNL     1      -0.194  -3.316  -0.427  0.00  0.00    -0.303 N 
ATOM     10  C   UNL     1       0.308  -4.589  -0.390  0.00  0.00    +0.070 A 
ATOM     11  C   UNL     1       0.975  -5.366  -1.331  0.00  0.00    +0.028 A 
ATOM     12  C   UNL     1       1.349  -6.641  -0.939  0.00  0.00    +0.002 A 
ATOM     13  C   UNL     1       1.075  -7.128   0.328  0.00  0.00    +0.002 A 
ATOM     14  C   UNL     1       0.418  -6.382   1.274  0.00  0.00    +0.030 A 
ATOM     15  C   UNL     1       0.028  -5.089   0.905  0.00  0.00    +0.091 A 
ATOM     16  N   UNL     1      -0.624  -4.118   1.572  0.00  0.00    -0.212 NA
ATOM     17  C   UNL     1      -1.110  -0.389  -2.683  0.00  0.00    +0.046 C 
ENDROOT
BRANCH   4  18
ATOM     18  C   UNL     1       0.346  -0.035  -0.019  0.00  0.00    -0.020 A 
ATOM     19  C   UNL     1       1.300  -0.921   0.443  0.00  0.00    +0.005 A 
ATOM     20  C   UNL     1       2.611  -0.509   0.595  0.00  0.00    +0.000 A 
ATOM     21  C   UNL     1       2.967   0.791   0.286  0.00  0.00    +0.000 A 
ATOM     22  C   UNL     1       2.012   1.677  -0.177  0.00  0.00    +0.000 A 
ATOM     23  C   UNL     1       0.702   1.264  -0.330  0.00  0.00    +0.005 A 
ENDBRANCH   4  18
BRANCH   3  24
ATOM     24  O   UNL     1      -2.502  -1.951  -1.482  0.00  0.00    -0.385 OA
ATOM     25  H   UNL     1      -2.664  -2.495  -2.265  0.00  0.00    +0.210 HD
ENDBRANCH   3  24
TORSDOF 2
