REMARK  Name = ZINC08722151
REMARK  6 active torsions:
REMARK  status: ('A' for Active; 'I' for Inactive)
REMARK    1  A    between atoms: C_1  and  C_2
REMARK    2  A    between atoms: C_2  and  O_3
REMARK    3  A    between atoms: O_3  and  C_4
REMARK    4  A    between atoms: C_17  and  C_20
REMARK    5  A    between atoms: C_21  and  C_32
REMARK    6  A    between atoms: N_23  and  C_26
REMARK                            x       y       z     vdW  Elec       q    Type
REMARK                         _______ _______ _______ _____ _____    ______ ____
ROOT
ATOM      1  C   UNL     1      -0.141   2.431  -2.044  0.00  0.00    +0.403 C 
ATOM      2  O   UNL     1       0.994   2.817  -1.842  0.00  0.00    -0.226 OA
ATOM      3  N   UNL     1      -0.724   1.573  -1.184  0.00  0.00    -0.262 N 
ATOM      4  C   UNL     1      -0.013   1.086   0.008  0.00  0.00    +0.116 C 
ATOM      5  C   UNL     1      -0.728   1.579   1.267  0.00  0.00    +0.056 C 
ATOM      6  C   UNL     1      -2.222   1.307   1.136  0.00  0.00    -0.020 A 
ATOM      7  C   UNL     1      -2.790   1.097  -0.072  0.00  0.00    +0.013 A 
ATOM      8  S   UNL     1      -4.511   0.839   0.266  0.00  0.00    -0.076 S 
ATOM      9  C   UNL     1      -4.476   1.002   1.970  0.00  0.00    +0.080 A 
ATOM     10  C   UNL     1      -3.130   1.260   2.271  0.00  0.00    +0.068 A 
ATOM     11  C   UNL     1      -2.775   1.459   3.695  0.00  0.00    +0.248 C 
ATOM     12  O   UNL     1      -1.671   1.853   4.025  0.00  0.00    -0.270 OA
ATOM     13  N   UNL     1      -3.726   1.186   4.613  0.00  0.00    -0.289 N 
ATOM     14  C   UNL     1      -5.005   0.561   4.291  0.00  0.00    +0.195 C 
ATOM     15  N   UNL     1      -5.449   0.918   2.931  0.00  0.00    -0.316 N 
ATOM     16  C   UNL     1      -2.100   1.085  -1.402  0.00  0.00    +0.153 C 
ATOM     17  H   UNL     1      -3.550   1.417   5.538  0.00  0.00    +0.151 HD
ATOM     18  H   UNL     1      -6.382   1.086   2.727  0.00  0.00    +0.149 HD
ENDROOT
BRANCH  14  19
ATOM     19  C   UNL     1      -4.860  -0.936   4.385  0.00  0.00    +0.050 A 
ATOM     20  C   UNL     1      -3.962  -1.626   5.206  0.00  0.00    +0.068 A 
ATOM     21  N   UNL     1      -4.130  -2.909   5.015  0.00  0.00    -0.170 NA
ATOM     22  N   UNL     1      -5.143  -3.082   4.063  0.00  0.00    -0.221 N 
ATOM     23  C   UNL     1      -5.581  -1.851   3.694  0.00  0.00    +0.140 A 
ATOM     24 CL   UNL     1      -6.835  -1.511   2.542  0.00  0.00    -0.061 Cl
ATOM     25  C   UNL     1      -2.969  -0.998   6.150  0.00  0.00    +0.068 C 
BRANCH  22  26
ATOM     26  C   UNL     1      -5.623  -4.308   3.582  0.00  0.00    +0.067 A 
ATOM     27  C   UNL     1      -6.969  -4.455   3.272  0.00  0.00    +0.028 A 
ATOM     28  C   UNL     1      -7.438  -5.662   2.792  0.00  0.00    +0.002 A 
ATOM     29  C   UNL     1      -6.572  -6.728   2.633  0.00  0.00    +0.000 A 
ATOM     30  C   UNL     1      -5.232  -6.587   2.946  0.00  0.00    +0.002 A 
ATOM     31  C   UNL     1      -4.756  -5.380   3.421  0.00  0.00    +0.028 A 
ENDBRANCH  22  26
ENDBRANCH  14  19
BRANCH   1  32
ATOM     32  O   UNL     1      -0.815   2.860  -3.128  0.00  0.00    -0.451 OA
BRANCH  32  34
ATOM     33  C   UNL     1      -1.043   4.157  -5.176  0.00  0.00    +0.048 C 
ATOM     34  C   UNL     1      -0.125   3.784  -4.011  0.00  0.00    +0.230 C 
ENDBRANCH  32  34
ENDBRANCH   1  32
TORSDOF 4
