REMARK  Name = ZINC12534768
REMARK  3 active torsions:
REMARK  status: ('A' for Active; 'I' for Inactive)
REMARK    1  A    between atoms: C_9  and  S_10
REMARK    2  A    between atoms: S_10  and  C_11
REMARK    3  A    between atoms: C_11  and  C_12
REMARK                            x       y       z     vdW  Elec       q    Type
REMARK                         _______ _______ _______ _____ _____    ______ ____
ROOT
ATOM      1  C   UNL     1      -6.928   0.611   0.577  0.00  0.00    +0.143 A 
ATOM      2  N   UNL     1      -6.482   0.451  -0.653  0.00  0.00    -0.216 NA
ATOM      3  C   UNL     1      -5.191   0.428  -0.980  0.00  0.00    +0.128 A 
ATOM      4  C   UNL     1      -4.275   0.591   0.099  0.00  0.00    +0.051 A 
ATOM      5  C   UNL     1      -2.823   0.604   0.024  0.00  0.00    -0.025 A 
ATOM      6  C   UNL     1      -2.157   0.774   1.188  0.00  0.00    -0.004 A 
ATOM      7  S   UNL     1      -3.416   0.924   2.430  0.00  0.00    -0.073 S 
ATOM      8  C   UNL     1      -4.832   0.759   1.392  0.00  0.00    +0.114 A 
ATOM      9  N   UNL     1      -6.129   0.769   1.626  0.00  0.00    -0.224 NA
ATOM     10  C   UNL     1      -0.669   0.823   1.388  0.00  0.00    +0.043 C 
ATOM     11  C   UNL     1       0.005   0.282   0.119  0.00  0.00    +0.005 C 
ATOM     12  C   UNL     1      -0.634   0.952  -1.102  0.00  0.00    +0.005 C 
ATOM     13  C   UNL     1      -2.061   0.438  -1.288  0.00  0.00    +0.037 C 
ATOM     14  N   UNL     1      -4.767   0.258  -2.285  0.00  0.00    -0.343 N 
ATOM     15  H   UNL     1      -5.390   0.384  -3.018  0.00  0.00    +0.144 HD
ATOM     16  H   UNL     1      -3.847   0.012  -2.467  0.00  0.00    +0.144 HD
ENDROOT
BRANCH   1  17
ATOM     17  C   UNL     1      -8.418   0.617   0.804  0.00  0.00    +0.153 C 
BRANCH  17  18
ATOM     18  S   UNL     1      -9.044   2.313   0.663  0.00  0.00    -0.078 S 
BRANCH  18  27
ATOM     19  C   UNL     1     -13.972   4.702   1.082  0.00  0.00    +0.005 A 
ATOM     20  C   UNL     1     -12.718   5.280   0.809  0.00  0.00    +0.018 A 
ATOM     21  C   UNL     1     -11.611   4.513   0.747  0.00  0.00    +0.095 A 
ATOM     22  N   UNL     1     -11.691   3.164   0.954  0.00  0.00    -0.278 N 
ATOM     23  C   UNL     1     -12.906   2.569   1.217  0.00  0.00    +0.162 A 
ATOM     24  C   UNL     1     -14.070   3.361   1.284  0.00  0.00    +0.049 A 
ATOM     25  N   UNL     1     -12.677   1.277   1.363  0.00  0.00    -0.129 NA
ATOM     26  N   UNL     1     -11.423   1.038   1.205  0.00  0.00    -0.122 NA
ATOM     27  C   UNL     1     -10.776   2.153   0.950  0.00  0.00    +0.196 A 
ENDBRANCH  18  27
ENDBRANCH  17  18
ENDBRANCH   1  17
TORSDOF 3
