REMARK  Name = ZINC25325929
REMARK  11 active torsions:
REMARK  status: ('A' for Active; 'I' for Inactive)
REMARK    1  A    between atoms: C_1  and  C_2
REMARK    2  A    between atoms: C_2  and  C_31
REMARK    3  A    between atoms: N_9  and  C_30
REMARK    4  A    between atoms: C_11  and  C_12
REMARK    5  A    between atoms: N_13  and  C_14
REMARK    6  A    between atoms: C_14  and  C_16
REMARK    7  A    between atoms: C_14  and  C_18
REMARK    8  A    between atoms: C_16  and  O_17
REMARK    9  A    between atoms: C_18  and  C_20
REMARK   10  A    between atoms: C_18  and  O_29
REMARK   11  A    between atoms: C_23  and  N_26
REMARK                            x       y       z     vdW  Elec       q    Type
REMARK                         _______ _______ _______ _____ _____    ______ ____
ROOT
ATOM      1  C   UNK A   0       1.579  -0.579  -0.053  0.00  0.00    +0.080 C 
ATOM      2  N   UNK A   1       0.422   0.017  -0.062  0.00  0.00    -0.382 N 
ATOM      3  H   UNK A   1      -0.500  -0.574  -0.168  0.00  0.00    +0.160 HD
ENDROOT
BRANCH   1  14
ATOM      4  C   UNK A   0       2.377  -4.728   1.171  0.00  0.00    +0.022 C 
ATOM      5  C   UNK A   0       3.073  -4.107  -0.041  0.00  0.00    +0.030 C 
ATOM      6  C   UNK A   0       4.573  -4.246   0.078  0.00  0.00    -0.015 A 
ATOM      7  C   UNK A   0       5.403  -5.343   0.156  0.00  0.00    +0.006 A 
ATOM      8  C   UNK A   0       6.771  -5.168   0.267  0.00  0.00    +0.000 A 
ATOM      9  C   UNK A   0       7.301  -3.890   0.301  0.00  0.00    +0.002 A 
ATOM     10  C   UNK A   0       6.473  -2.790   0.225  0.00  0.00    +0.024 A 
ATOM     11  C   UNK A   0       5.093  -2.959   0.111  0.00  0.00    +0.038 A 
ATOM     12  N   UNK A   0       4.069  -2.018   0.019  0.00  0.00    -0.306 N 
ATOM     13  C   UNK A   0       2.840  -2.611  -0.078  0.00  0.00    +0.022 C 
ATOM     14  C   UNK A   0       1.651  -1.986  -0.181  0.00  0.00    +0.037 C 
ATOM     15  C   UNK A   0       4.283  -0.568   0.025  0.00  0.00    +0.135 C 
ATOM     16  C   UNK A   0       2.579  -4.758  -1.335  0.00  0.00    +0.022 C 
ENDBRANCH   1  14
BRANCH   2  17
ATOM     17  C   UNK A   1       0.348   1.474   0.070  0.00  0.00    +0.137 C 
BRANCH  17  18
ATOM     18  C   UNK A   1      -0.466   1.833   1.315  0.00  0.00    +0.183 C 
BRANCH  18  19
ATOM     19  O   UNK A   1      -1.814   1.387   1.147  0.00  0.00    -0.393 OA
ATOM     20  H   UNK A   1      -2.553   1.558   1.944  0.00  0.00    +0.209 HD
ENDBRANCH  18  19
ENDBRANCH  17  18
BRANCH  17  21
ATOM     21  C   UNK A   1      -0.328   2.064  -1.169  0.00  0.00    +0.169 C 
BRANCH  21  22
ATOM     22  C   UNK A   1       0.529   1.804  -2.381  0.00  0.00    -0.017 A 
ATOM     23  C   UNK A   1       1.621   2.611  -2.642  0.00  0.00    +0.008 A 
ATOM     24  C   UNK A   1       2.409   2.370  -3.751  0.00  0.00    +0.033 A 
ATOM     25  C   UNK A   1       2.101   1.328  -4.605  0.00  0.00    +0.126 A 
ATOM     26  C   UNK A   1       1.006   0.524  -4.348  0.00  0.00    +0.033 A 
ATOM     27  C   UNK A   1       0.220   0.762  -3.236  0.00  0.00    +0.008 A 
BRANCH  25  28
ATOM     28  N   UNK A   1       2.942   1.073  -5.796  0.00  0.00    +0.056 N 
ATOM     29  O   UNK A   1       2.670   0.156  -6.549  0.00  0.00    -0.126 OA
ATOM     30  O   UNK A   1       3.907   1.782  -6.023  0.00  0.00    -0.126 OA
ENDBRANCH  25  28
ENDBRANCH  21  22
BRANCH  21  31
ATOM     31  O   UNK A   1      -0.494   3.473  -0.996  0.00  0.00    -0.385 OA
ATOM     32  H   UNK A   1      -0.965   4.073  -1.788  0.00  0.00    +0.210 HD
ENDBRANCH  21  31
ENDBRANCH  17  21
ENDBRANCH   2  17
TORSDOF 8
