REMARK  Name = ZINC18261195
REMARK  8 active torsions:
REMARK  status: ('A' for Active; 'I' for Inactive)
REMARK    1  A    between atoms: C_1  and  O_2
REMARK    2  A    between atoms: O_2  and  C_3
REMARK    3  A    between atoms: C_8  and  C_9
REMARK    4  A    between atoms: C_12  and  S_15
REMARK    5  A    between atoms: N_13  and  N_14
REMARK    6  A    between atoms: S_15  and  C_16
REMARK    7  A    between atoms: C_16  and  C_17
REMARK    8  A    between atoms: C_25  and  N_27
REMARK                            x       y       z     vdW  Elec       q    Type
REMARK                         _______ _______ _______ _____ _____    ______ ____
ROOT
ATOM      1  C   UNL     1      -0.582  -2.090  -0.198  0.00  0.00    +0.185 A 
ATOM      2  N   UNL     1       0.722  -2.008  -0.068  0.00  0.00    -0.127 NA
ATOM      3  N   UNL     1       1.067  -0.787   0.136  0.00  0.00    -0.121 NA
ATOM      4  C   UNL     1       0.004  -0.016   0.158  0.00  0.00    +0.209 A 
ATOM      5  N   UNL     1      -1.082  -0.816  -0.057  0.00  0.00    -0.224 N 
ENDROOT
BRANCH   1  11
ATOM      6  C   UNL     1      -1.111  -4.478   0.295  0.00  0.00    +0.131 A 
ATOM      7  C   UNL     1      -1.854  -5.622   0.057  0.00  0.00    +0.046 A 
ATOM      8  C   UNL     1      -2.834  -5.622  -0.918  0.00  0.00    +0.004 A 
ATOM      9  C   UNL     1      -3.084  -4.480  -1.658  0.00  0.00    +0.001 A 
ATOM     10  C   UNL     1      -2.356  -3.330  -1.429  0.00  0.00    +0.015 A 
ATOM     11  C   UNL     1      -1.364  -3.318  -0.448  0.00  0.00    +0.062 A 
BRANCH   6  13
ATOM     12  C   UNL     1       0.060  -5.698   1.966  0.00  0.00    +0.277 C 
ATOM     13  O   UNL     1      -0.143  -4.479   1.248  0.00  0.00    -0.494 OA
ENDBRANCH   6  13
ENDBRANCH   1  11
BRANCH   5  14
ATOM     14  N   UNL     1      -2.391  -0.432  -0.119  0.00  0.00    -0.295 N 
ATOM     15  H   UNL     1      -2.677  -0.276  -1.074  0.00  0.00    +0.163 HD
ATOM     16  H   UNL     1      -2.989  -1.109   0.332  0.00  0.00    +0.163 HD
ENDBRANCH   5  14
BRANCH   4  17
ATOM     17  S   UNL     1      -0.016   1.728   0.411  0.00  0.00    -0.077 S 
BRANCH  17  18
ATOM     18  C   UNL     1       1.756   2.037   0.616  0.00  0.00    +0.153 C 
BRANCH  18  19
ATOM     19  C   UNL     1       1.985   3.507   0.852  0.00  0.00    +0.142 A 
ATOM     20  N   UNL     1       2.189   4.284  -0.186  0.00  0.00    -0.231 NA
ATOM     21  C   UNL     1       2.392   5.599  -0.022  0.00  0.00    +0.076 A 
ATOM     22  C   UNL     1       2.607   6.458  -1.108  0.00  0.00    +0.028 A 
ATOM     23  C   UNL     1       2.814   7.787  -0.884  0.00  0.00    +0.002 A 
ATOM     24  C   UNL     1       2.816   8.305   0.408  0.00  0.00    +0.001 A 
ATOM     25  C   UNL     1       2.610   7.497   1.487  0.00  0.00    +0.013 A 
ATOM     26  C   UNL     1       2.394   6.128   1.292  0.00  0.00    +0.040 A 
ATOM     27  C   UNL     1       2.174   5.239   2.372  0.00  0.00    +0.127 A 
ATOM     28  N   UNL     1       1.978   3.956   2.097  0.00  0.00    -0.216 NA
BRANCH  27  29
ATOM     29  N   UNL     1       2.164   5.694   3.673  0.00  0.00    -0.343 N 
ATOM     30  H   UNL     1       2.012   5.073   4.403  0.00  0.00    +0.144 HD
ATOM     31  H   UNL     1       2.309   6.635   3.859  0.00  0.00    +0.144 HD
ENDBRANCH  27  29
ENDBRANCH  18  19
ENDBRANCH  17  18
ENDBRANCH   4  17
TORSDOF 7
