REMARK  Name = ZINC30874954
REMARK  4 active torsions:
REMARK  status: ('A' for Active; 'I' for Inactive)
REMARK    1  A    between atoms: C_1  and  C_2
REMARK    2  A    between atoms: C_8  and  N_10
REMARK    3  A    between atoms: N_16  and  S_17
REMARK    4  A    between atoms: S_17  and  C_20
REMARK                            x       y       z     vdW  Elec       q    Type
REMARK                         _______ _______ _______ _____ _____    ______ ____
ROOT
ATOM      1  N   UNL     1      -1.168   5.855  -2.310  0.00  0.00    -0.268 NA
ATOM      2  C   UNL     1      -2.336   5.004  -2.602  0.00  0.00    +0.193 C 
ATOM      3  N   UNL     1      -1.892   3.603  -2.520  0.00  0.00    -0.303 N 
ATOM      4  C   UNL     1      -1.047   3.247  -1.492  0.00  0.00    +0.202 C 
ATOM      5  N   UNL     1      -0.466   4.147  -0.761  0.00  0.00    -0.303 N 
ATOM      6  C   UNL     1      -0.663   5.579  -0.959  0.00  0.00    +0.193 C 
ATOM      7  N   UNL     1      -0.819   1.916  -1.234  0.00  0.00    -0.097 NA
ATOM      8  H   UNL     1      -2.236   2.872  -3.267  0.00  0.00    +0.150 HD
ATOM      9  H   UNL     1       0.199   3.788   0.038  0.00  0.00    +0.150 HD
ENDROOT
BRANCH   1  16
ATOM     10  C   UNL     1      -0.767   7.185  -4.854  0.00  0.00    +0.009 C 
ATOM     11  C   UNL     1      -1.919   7.546  -3.914  0.00  0.00    +0.003 C 
ATOM     12  C   UNL     1      -2.265   9.027  -4.078  0.00  0.00    +0.005 C 
ATOM     13  C   UNL     1      -3.417   9.389  -3.138  0.00  0.00    +0.000 C 
ATOM     14  C   UNL     1      -2.998   9.120  -1.691  0.00  0.00    +0.002 C 
ATOM     15  C   UNL     1      -2.652   7.638  -1.528  0.00  0.00    +0.019 C 
ATOM     16  C   UNL     1      -1.500   7.277  -2.467  0.00  0.00    +0.062 C 
ENDBRANCH   1  16
BRANCH   7  17
ATOM     17  S   UNL     1       0.195   1.473  -0.002  0.00  0.00    +0.102 S 
ATOM     18  O   UNL     1       0.201   0.053   0.028  0.00  0.00    -0.146 OA
ATOM     19  O   UNL     1       1.382   2.237  -0.159  0.00  0.00    -0.146 OA
BRANCH  17  20
ATOM     20  C   UNL     1      -0.552   2.005   1.503  0.00  0.00    +0.113 A 
ATOM     21  C   UNL     1      -0.272   3.262   2.006  0.00  0.00    +0.032 A 
ATOM     22  C   UNL     1      -0.860   3.682   3.184  0.00  0.00    +0.040 A 
ATOM     23  C   UNL     1      -1.722   2.839   3.866  0.00  0.00    +0.124 A 
ATOM     24  C   UNL     1      -1.997   1.579   3.364  0.00  0.00    +0.040 A 
ATOM     25  C   UNL     1      -1.412   1.163   2.183  0.00  0.00    +0.032 A 
ATOM     26  F   UNL     1      -2.294   3.247   5.020  0.00  0.00    -0.205 F 
ENDBRANCH  17  20
ENDBRANCH   7  17
TORSDOF 3
