REMARK  Name = ZINC04387123
REMARK  2 active torsions:
REMARK  status: ('A' for Active; 'I' for Inactive)
REMARK    1  A    between atoms: C_4  and  C_7
REMARK    2  A    between atoms: C_21  and  C_23
REMARK                            x       y       z     vdW  Elec       q    Type
REMARK                         _______ _______ _______ _____ _____    ______ ____
ROOT
ATOM      1  C   UNL     1       3.492  -2.000   3.620  0.00  0.00    +0.080 A 
ATOM      2  C   UNL     1       4.769  -1.491   3.801  0.00  0.00    +0.098 A 
ATOM      3  C   UNL     1       5.173  -0.394   3.025  0.00  0.00    +0.253 A 
ATOM      4  O   UNL     1       6.290   0.081   3.156  0.00  0.00    -0.268 OA
ATOM      5  N   UNL     1       4.306   0.126   2.132  0.00  0.00    -0.295 N 
ATOM      6  H   UNL     1       4.577   0.908   1.570  0.00  0.00    +0.172 HD
ATOM      7  C   UNL     1       3.064  -0.411   1.993  0.00  0.00    +0.199 A 
ATOM      8  N   UNL     1       2.674  -1.437   2.720  0.00  0.00    -0.216 NA
ATOM      9  N   UNL     1       2.198   0.130   1.080  0.00  0.00    -0.298 N 
ATOM     10  C   UNL     1       0.878  -0.509   1.163  0.00  0.00    +0.127 C 
ATOM     11  C   UNL     1      -0.003  -0.007   0.014  0.00  0.00    +0.127 C 
ATOM     12  N   UNL     1      -0.020   1.464   0.046  0.00  0.00    -0.292 N 
ATOM     13  C   UNL     1       1.267   2.174   0.103  0.00  0.00    +0.127 C 
ATOM     14  C   UNL     1       2.097   1.586   1.249  0.00  0.00    +0.127 C 
ATOM     15  C   UNL     1      -1.184   2.143   0.019  0.00  0.00    +0.282 C 
ATOM     16  O   UNL     1      -2.236   1.543  -0.103  0.00  0.00    -0.267 OA
ENDROOT
BRANCH   1  20
ATOM     17  C   UNL     1       2.170  -5.320   5.921  0.00  0.00    +0.000 A 
ATOM     18  C   UNL     1       1.323  -4.746   4.990  0.00  0.00    +0.001 A 
ATOM     19  C   UNL     1       1.746  -3.668   4.240  0.00  0.00    +0.010 A 
ATOM     20  C   UNL     1       3.031  -3.157   4.423  0.00  0.00    +0.001 A 
ATOM     21  C   UNL     1       3.882  -3.743   5.359  0.00  0.00    +0.010 A 
ATOM     22  C   UNL     1       3.445  -4.817   6.107  0.00  0.00    +0.001 A 
ENDBRANCH   1  20
BRANCH  15  23
ATOM     23  C   UNL     1      -1.183   3.604   0.138  0.00  0.00    +0.189 A 
ATOM     24  C   UNL     1      -2.286   4.400   0.256  0.00  0.00    +0.054 A 
ATOM     25  C   UNL     1      -1.823   5.722   0.342  0.00  0.00    +0.042 A 
ATOM     26  C   UNL     1      -0.474   5.676   0.273  0.00  0.00    +0.196 A 
ATOM     27  O   UNL     1      -0.092   4.398   0.155  0.00  0.00    -0.458 OA
ENDBRANCH  15  23
TORSDOF 2
