REMARK  Name = ZINC23389718
REMARK  3 active torsions:
REMARK  status: ('A' for Active; 'I' for Inactive)
REMARK    1  A    between atoms: C_3  and  N_20
REMARK    2  A    between atoms: C_6  and  C_7
REMARK    3  A    between atoms: C_10  and  C_12
REMARK                            x       y       z     vdW  Elec       q    Type
REMARK                         _______ _______ _______ _____ _____    ______ ____
ROOT
ATOM      1  C   UNL     1       1.044   3.200   0.009  0.00  0.00    +0.020 A 
ATOM      2  C   UNL     1       1.113   1.782   0.001  0.00  0.00    +0.017 A 
ATOM      3  C   UNL     1      -0.013   1.076   0.008  0.00  0.00    +0.016 A 
ATOM      4  C   UNL     1      -1.282   1.825   0.018  0.00  0.00    +0.014 A 
ATOM      5  S   UNL     1      -0.712   3.518   0.028  0.00  0.00    -0.089 S 
ENDROOT
BRANCH   4   6
ATOM      6  C   UNL     1      -2.581   1.342   0.021  0.00  0.00    +0.035 C 
ATOM      7  C   UNL     1      -3.664   2.237   0.030  0.00  0.00    +0.079 C 
ATOM      8  C   UNL     1      -5.128   1.948   0.035  0.00  0.00    +0.275 C 
ATOM      9  O   UNL     1      -5.559   0.812   0.029  0.00  0.00    -0.267 OA
ATOM     10  N   UNL     1      -5.930   3.001   0.045  0.00  0.00    -0.161 NA
ATOM     11  C   UNL     1      -5.416   4.246   0.051  0.00  0.00    +0.139 C 
ATOM     12  S   UNL     1      -6.255   5.738   0.066  0.00  0.00    -0.026 S 
ATOM     13  S   UNL     1      -3.653   3.973   0.049  0.00  0.00    -0.059 S 
ENDBRANCH   4   6
BRANCH   1  19
ATOM     14  C   UNL     1       3.478   3.720  -0.004  0.00  0.00    +0.011 A 
ATOM     15  C   UNL     1       4.505   4.636  -0.015  0.00  0.00    +0.033 A 
ATOM     16  C   UNL     1       4.229   5.995  -0.005  0.00  0.00    +0.126 A 
ATOM     17  C   UNL     1       2.918   6.445   0.010  0.00  0.00    +0.033 A 
ATOM     18  C   UNL     1       1.876   5.545   0.014  0.00  0.00    +0.011 A 
ATOM     19  C   UNL     1       2.145   4.166   0.004  0.00  0.00    -0.011 A 
BRANCH  16  20
ATOM     20  N   UNL     1       5.342   6.971  -0.010  0.00  0.00    +0.056 N 
ATOM     21  O   UNL     1       5.084   8.263  -0.002  0.00  0.00    -0.126 OA
ATOM     22  O   UNL     1       6.589   6.548  -0.024  0.00  0.00    -0.126 OA
ENDBRANCH  16  20
ENDBRANCH   1  19
TORSDOF 3
