REMARK  Name = ZINC06382973
REMARK  5 active torsions:
REMARK  status: ('A' for Active; 'I' for Inactive)
REMARK    1  A    between atoms: C_1  and  C_2
REMARK    2  A    between atoms: C_2  and  C_4
REMARK    3  A    between atoms: C_2  and  S_16
REMARK    4  A    between atoms: N_6  and  C_7
REMARK    5  A    between atoms: S_16  and  C_17
REMARK                            x       y       z     vdW  Elec       q    Type
REMARK                         _______ _______ _______ _____ _____    ______ ____
ROOT
ATOM      1  C   UNL     1       0.733  -0.497   1.225  0.00  0.00    +0.230 C 
ATOM      2  O   UNL     1       1.912  -0.773   1.157  0.00  0.00    -0.274 OA
ATOM      3  N   UNL     1       0.071  -0.647   2.389  0.00  0.00    -0.283 N 
ATOM      4  H   UNL     1      -0.854  -0.366   2.461  0.00  0.00    +0.155 HD
ENDROOT
BRANCH   3   5
ATOM      5  C   UNL     1       0.720  -1.209   3.496  0.00  0.00    +0.053 A 
ATOM      6  C   UNL     1       2.071  -0.968   3.706  0.00  0.00    +0.046 A 
ATOM      7  C   UNL     1       2.709  -1.523   4.799  0.00  0.00    +0.061 A 
ATOM      8  C   UNL     1       2.002  -2.320   5.684  0.00  0.00    +0.061 A 
ATOM      9  C   UNL     1       0.656  -2.562   5.477  0.00  0.00    +0.043 A 
ATOM     10  C   UNL     1       0.012  -2.005   4.388  0.00  0.00    +0.064 A 
ATOM     11 CL   UNL     1      -1.679  -2.303   4.132  0.00  0.00    -0.082 Cl
ATOM     12 CL   UNL     1       2.806  -3.015   7.057  0.00  0.00    -0.082 Cl
ATOM     13 CL   UNL     1       4.399  -1.222   5.063  0.00  0.00    -0.082 Cl
ENDBRANCH   3   5
BRANCH   1  15
ATOM     14  C   UNL     1      -0.008   1.543   0.026  0.00  0.00    +0.029 C 
ATOM     15  C   UNL     1       0.007   0.013   0.006  0.00  0.00    +0.137 C 
BRANCH  15  16
ATOM     16  S   UNL     1       0.856  -0.565  -1.489  0.00  0.00    -0.072 S 
BRANCH  16  17
ATOM     17  C   UNL     1      -0.181  -0.020  -2.805  0.00  0.00    +0.211 A 
ATOM     18  N   UNL     1       0.046  -0.220  -4.108  0.00  0.00    -0.188 NA
ATOM     19  C   UNL     1      -0.925   0.317  -4.815  0.00  0.00    +0.209 A 
ATOM     20  N   UNL     1      -1.803   0.879  -3.957  0.00  0.00    -0.246 N 
ATOM     21  H   UNL     1      -2.620   1.348  -4.188  0.00  0.00    +0.192 HD
ATOM     22  N   UNL     1      -1.304   0.644  -2.666  0.00  0.00    -0.144 NA
ATOM     23  N   UNL     1      -1.028   0.308  -6.194  0.00  0.00    -0.328 N 
ATOM     24  H   UNL     1      -0.344  -0.123  -6.729  0.00  0.00    +0.145 HD
ATOM     25  H   UNL     1      -1.786   0.733  -6.626  0.00  0.00    +0.145 HD
ENDBRANCH  16  17
ENDBRANCH  15  16
ENDBRANCH   1  15
TORSDOF 4
