REMARK  Name = ZINC63303350
REMARK  9 active torsions:
REMARK  status: ('A' for Active; 'I' for Inactive)
REMARK    1  A    between atoms: C_1  and  C_2
REMARK    2  A    between atoms: C_2  and  O_3
REMARK    3  A    between atoms: O_3  and  C_4
REMARK    4  A    between atoms: C_4  and  C_6
REMARK    5  A    between atoms: C_8  and  C_28
REMARK    6  A    between atoms: C_11  and  N_14
REMARK    7  A    between atoms: C_15  and  C_17
REMARK    8  A    between atoms: C_17  and  S_18
REMARK    9  A    between atoms: S_18  and  C_19
REMARK                            x       y       z     vdW  Elec       q    Type
REMARK                         _______ _______ _______ _____ _____    ______ ____
ROOT
ATOM      1  C   UNL     1       1.694  -2.312   2.470  0.00  0.00    +0.179 C 
ATOM      2  C   UNL     1       2.107  -3.771   2.177  0.00  0.00    +0.110 C 
ATOM      3  N   UNL     1       1.315  -4.768   2.902  0.00  0.00    -0.282 NA
ATOM      4  C   UNL     1       0.871  -4.277   4.240  0.00  0.00    +0.203 C 
ATOM      5  S   UNL     1       0.434  -2.536   3.798  0.00  0.00    -0.106 S 
ATOM      6  H   UNL     1       0.528  -5.075   2.350  0.00  0.00    +0.125 HD
ENDROOT
BRANCH   2   7
ATOM      7  C   UNL     1       1.958  -4.026   0.699  0.00  0.00    -0.029 A 
ATOM      8  C   UNL     1       0.720  -4.343   0.174  0.00  0.00    +0.005 A 
ATOM      9  C   UNL     1       0.584  -4.577  -1.182  0.00  0.00    +0.000 A 
ATOM     10  C   UNL     1       1.686  -4.492  -2.012  0.00  0.00    +0.000 A 
ATOM     11  C   UNL     1       2.924  -4.174  -1.486  0.00  0.00    +0.000 A 
ATOM     12  C   UNL     1       3.060  -3.936  -0.132  0.00  0.00    +0.005 A 
ENDBRANCH   2   7
BRANCH   4  13
ATOM     13  N   UNL     1      -0.298  -5.018   4.720  0.00  0.00    -0.291 N 
ATOM     14  C   UNL     1      -0.662  -4.939   6.015  0.00  0.00    +0.225 C 
ATOM     15  O   UNL     1      -0.021  -4.254   6.784  0.00  0.00    -0.275 OA
ATOM     16  H   UNL     1      -0.811  -5.566   4.105  0.00  0.00    +0.151 HD
BRANCH  14  17
ATOM     17  C   UNL     1      -1.865  -5.700   6.508  0.00  0.00    +0.168 C 
BRANCH  17  18
ATOM     18  S   UNL     1      -2.092  -5.390   8.281  0.00  0.00    -0.106 S 
BRANCH  18  19
ATOM     19  C   UNL     1      -3.559  -6.365   8.713  0.00  0.00    +0.236 C 
ATOM     20  N   UNL     1      -3.347  -7.776   8.365  0.00  0.00    -0.355 N 
ATOM     21  C   UNL     1      -4.256  -8.104   7.492  0.00  0.00    +0.061 A 
ATOM     22  C   UNL     1      -4.553  -9.355   6.782  0.00  0.00    +0.027 A 
ATOM     23  C   UNL     1      -5.584  -9.399   5.914  0.00  0.00    +0.002 A 
ATOM     24  C   UNL     1      -6.402  -8.285   5.652  0.00  0.00    +0.002 A 
ATOM     25  C   UNL     1      -6.216  -7.091   6.249  0.00  0.00    +0.027 A 
ATOM     26  C   UNL     1      -5.121  -6.925   7.214  0.00  0.00    +0.061 A 
ATOM     27  N   UNL     1      -4.714  -5.914   7.926  0.00  0.00    -0.355 N 
ATOM     28  H   UNL     1      -2.656  -8.357   8.720  0.00  0.00    +0.162 HD
ATOM     29  H   UNL     1      -5.103  -5.025   7.935  0.00  0.00    +0.162 HD
ENDBRANCH  18  19
ENDBRANCH  17  18
ENDBRANCH  14  17
ENDBRANCH   4  13
BRANCH   1  30
ATOM     30  C   UNL     1       1.084  -1.669   1.251  0.00  0.00    +0.322 C 
ATOM     31  O   UNL     1       1.782  -1.058   0.477  0.00  0.00    -0.250 OA
BRANCH  30  32
ATOM     32  O   UNL     1      -0.235  -1.774   1.026  0.00  0.00    -0.464 OA
BRANCH  32  34
ATOM     33  C   UNL     1      -2.255  -1.368  -0.236  0.00  0.00    +0.048 C 
ATOM     34  C   UNL     1      -0.745  -1.140  -0.149  0.00  0.00    +0.229 C 
ENDBRANCH  32  34
ENDBRANCH  30  32
ENDBRANCH   1  30
TORSDOF 8
