REMARK  Name = ZINC27585077
REMARK  8 active torsions:
REMARK  status: ('A' for Active; 'I' for Inactive)
REMARK    1  A    between atoms: C_1  and  C_2
REMARK    2  A    between atoms: C_2  and  C_3
REMARK    3  A    between atoms: C_3  and  C_5
REMARK    4  A    between atoms: C_3  and  N_6
REMARK    5  A    between atoms: N_6  and  C_7
REMARK    6  A    between atoms: C_9  and  C_23
REMARK    7  A    between atoms: C_14  and  C_22
REMARK    8  A    between atoms: C_15  and  C_16
REMARK                            x       y       z     vdW  Elec       q    Type
REMARK                         _______ _______ _______ _____ _____    ______ ____
ROOT
ATOM      1  C   UNL     1      -0.592   1.490   3.671  0.00  0.00    +0.125 A 
ATOM      2  C   UNL     1      -1.937   1.702   3.784  0.00  0.00    +0.072 A 
ATOM      3  C   UNL     1      -2.553   1.547   5.038  0.00  0.00    +0.077 A 
ATOM      4  N   UNL     1      -1.832   1.199   6.094  0.00  0.00    -0.227 NA
ATOM      5  C   UNL     1      -0.517   0.990   5.989  0.00  0.00    +0.166 A 
ATOM      6  N   UNL     1       0.122   1.126   4.784  0.00  0.00    -0.200 N 
ATOM      7  N   UNL     1       1.477   0.841   4.981  0.00  0.00    -0.168 NA
ATOM      8  C   UNL     1       1.677   0.537   6.239  0.00  0.00    +0.070 A 
ATOM      9  C   UNL     1       0.459   0.623   6.925  0.00  0.00    +0.049 A 
ATOM     10  C   UNL     1       3.004   0.169   6.852  0.00  0.00    +0.068 C 
ENDROOT
BRANCH   9  11
ATOM     11  C   UNL     1       0.241   0.359   8.365  0.00  0.00    -0.013 A 
ATOM     12  C   UNL     1      -0.169   1.389   9.212  0.00  0.00    +0.009 A 
ATOM     13  C   UNL     1      -0.376   1.135  10.552  0.00  0.00    +0.001 A 
ATOM     14  C   UNL     1      -0.167  -0.135  11.059  0.00  0.00    +0.000 A 
ATOM     15  C   UNL     1       0.244  -1.160  10.226  0.00  0.00    +0.001 A 
ATOM     16  C   UNL     1       0.449  -0.920   8.883  0.00  0.00    +0.009 A 
ENDBRANCH   9  11
BRANCH   3  17
ATOM     17  C   UNL     1      -4.010   1.773   5.179  0.00  0.00    +0.001 A 
ATOM     18  C   UNL     1      -4.772   2.145   4.072  0.00  0.00    +0.010 A 
ATOM     19  C   UNL     1      -6.130   2.349   4.209  0.00  0.00    +0.001 A 
ATOM     20  C   UNL     1      -6.734   2.195   5.444  0.00  0.00    +0.000 A 
ATOM     21  C   UNL     1      -5.983   1.831   6.547  0.00  0.00    +0.001 A 
ATOM     22  C   UNL     1      -4.625   1.620   6.422  0.00  0.00    +0.010 A 
ENDBRANCH   3  17
BRANCH   1  23
ATOM     23  N   UNL     1       0.038   1.636   2.453  0.00  0.00    -0.326 N 
ATOM     24  H   UNL     1       1.122   1.463   2.370  0.00  0.00    +0.148 HD
BRANCH  23  25
ATOM     25  C   UNL     1      -0.735   2.019   1.269  0.00  0.00    +0.068 C 
ATOM     26  C   UNL     1      -0.866   3.543   1.217  0.00  0.00    +0.028 C 
BRANCH  25  28
ATOM     27  C   UNL     1       0.002  -0.004   0.002  0.00  0.00    +0.005 C 
ATOM     28  C   UNL     1      -0.019   1.526   0.010  0.00  0.00    +0.018 C 
ENDBRANCH  25  28
ENDBRANCH  23  25
ENDBRANCH   1  23
TORSDOF 5
