REMARK  Name = ZINC13064403
REMARK  11 active torsions:
REMARK  status: ('A' for Active; 'I' for Inactive)
REMARK    1  A    between atoms: C_1  and  C_2
REMARK    2  A    between atoms: C_2  and  C_3
REMARK    3  A    between atoms: C_3  and  C_5
REMARK    4  A    between atoms: C_3  and  N_73
REMARK    5  A    between atoms: N_9  and  C_10
REMARK    6  A    between atoms: C_15  and  C_16
REMARK    7  A    between atoms: C_15  and  N_73
REMARK    8  A    between atoms: C_21  and  O_22
REMARK    9  A    between atoms: O_22  and  C_23
REMARK   10  A    between atoms: C_24  and  C_25
REMARK   11  A    between atoms: C_24  and  N_73
REMARK                            x       y       z     vdW  Elec       q    Type
REMARK                         _______ _______ _______ _____ _____    ______ ____
ROOT
ATOM      1  N   UNL     1      -1.391   1.335  -0.928  0.00  0.00    +0.392 N 
ATOM      2  H   UNL     1      -1.980   0.998  -0.158  0.00  0.00    -0.080 HD
ENDROOT
BRANCH   1   3
ATOM      3  C   UNL     1      -1.620   2.784  -1.109  0.00  0.00    +0.003 C 
BRANCH   3   4
ATOM      4  C   UNL     1      -0.916   3.280  -2.345  0.00  0.00    +0.138 A 
ATOM      5  N   UNL     1      -0.892   2.697  -3.519  0.00  0.00    -0.115 NA
ATOM      6  N   UNL     1      -0.188   3.429  -4.312  0.00  0.00    -0.023 NA
ATOM      7  N   UNL     1       0.239   4.463  -3.675  0.00  0.00    -0.044 NA
ATOM      8  N   UNL     1      -0.194   4.410  -2.460  0.00  0.00    -0.228 N 
BRANCH   8   9
ATOM      9  C   UNL     1       0.058   5.393  -1.403  0.00  0.00    +0.111 C 
ATOM     10  C   UNL     1      -0.447   6.782  -1.844  0.00  0.00    +0.027 C 
ATOM     11  C   UNL     1       0.603   7.767  -1.269  0.00  0.00    +0.002 C 
ATOM     12  C   UNL     1       1.934   6.999  -1.462  0.00  0.00    +0.002 C 
ATOM     13  C   UNL     1       1.571   5.530  -1.160  0.00  0.00    +0.027 C 
ENDBRANCH   8   9
ENDBRANCH   3   4
BRANCH   3  15
ATOM     14  C   UNL     1      -3.824   2.651   0.062  0.00  0.00    +0.002 C 
ATOM     15  C   UNL     1      -3.124   3.032  -1.244  0.00  0.00    -0.011 C 
ENDBRANCH   3  15
ENDBRANCH   1   3
BRANCH   1  16
ATOM     16  C   UNL     1       0.027   1.086  -0.592  0.00  0.00    -0.038 C 
BRANCH  16  17
ATOM     17  C   UNL     1       0.295   1.605   0.797  0.00  0.00    -0.022 A 
ATOM     18  C   UNL     1       1.030   2.762   0.973  0.00  0.00    +0.005 A 
ATOM     19  C   UNL     1       1.272   3.241   2.247  0.00  0.00    +0.000 A 
ATOM     20  C   UNL     1       0.789   2.559   3.348  0.00  0.00    +0.004 A 
ATOM     21  C   UNL     1       0.058   1.400   3.178  0.00  0.00    +0.046 A 
ATOM     22  C   UNL     1      -0.191   0.919   1.900  0.00  0.00    +0.121 A 
BRANCH  22  23
ATOM     23  O   UNL     1      -0.910  -0.221   1.730  0.00  0.00    -0.495 OA
ATOM     24  C   UNL     1      -1.379  -0.875   2.911  0.00  0.00    +0.277 C 
ENDBRANCH  22  23
ENDBRANCH  16  17
ENDBRANCH   1  16
BRANCH   1  25
ATOM     25  C   UNL     1      -1.752   0.608  -2.163  0.00  0.00    -0.036 C 
BRANCH  25  26
ATOM     26  C   UNL     1      -1.986  -0.841  -1.819  0.00  0.00    +0.001 A 
ATOM     27  C   UNL     1      -3.243  -1.276  -1.547  0.00  0.00    +0.017 A 
ATOM     28  C   UNL     1      -3.438  -2.689  -1.222  0.00  0.00    +0.002 A 
ATOM     29  C   UNL     1      -4.712  -3.196  -0.938  0.00  0.00    +0.059 A 
ATOM     30  C   UNL     1      -4.864  -4.531  -0.628  0.00  0.00    +0.163 A 
ATOM     31  C   UNL     1      -3.752  -5.378  -0.597  0.00  0.00    +0.164 A 
ATOM     32  C   UNL     1      -2.489  -4.885  -0.877  0.00  0.00    +0.075 A 
ATOM     33  C   UNL     1      -2.319  -3.543  -1.191  0.00  0.00    +0.053 A 
ATOM     34  N   UNL     1      -1.067  -3.035  -1.472  0.00  0.00    -0.322 N 
ATOM     35  H   UNL     1      -0.296  -3.624  -1.451  0.00  0.00    +0.169 HD
ATOM     36  C   UNL     1      -0.899  -1.736  -1.776  0.00  0.00    +0.251 A 
ATOM     37  O   UNL     1       0.222  -1.323  -2.020  0.00  0.00    -0.268 OA
ATOM     38  O   UNL     1      -3.894  -6.697  -0.295  0.00  0.00    -0.485 OA
ATOM     39  C   UNL     1      -5.114  -7.083   0.346  0.00  0.00    +0.270 C 
ATOM     40  C   UNL     1      -6.281  -6.428  -0.406  0.00  0.00    +0.270 C 
ATOM     41  O   UNL     1      -6.109  -5.008  -0.350  0.00  0.00    -0.485 OA
ENDBRANCH  25  26
ENDBRANCH   1  25
TORSDOF 9
