REMARK  Name = ZINC36609309
REMARK  12 active torsions:
REMARK  status: ('A' for Active; 'I' for Inactive)
REMARK    1  A    between atoms: C_1  and  C_2
REMARK    2  A    between atoms: C_2  and  C_3
REMARK    3  A    between atoms: C_2  and  C_4
REMARK    4  A    between atoms: C_2  and  N_5
REMARK    5  A    between atoms: C_6  and  C_8
REMARK    6  A    between atoms: C_8  and  C_10
REMARK    7  A    between atoms: C_8  and  N_17
REMARK    8  A    between atoms: C_14  and  O_16
REMARK    9  A    between atoms: N_17  and  C_18
REMARK   10  A    between atoms: C_24  and  C_26
REMARK   11  A    between atoms: C_28  and  N_33
REMARK   12  A    between atoms: C_31  and  O_32
REMARK                            x       y       z     vdW  Elec       q    Type
REMARK                         _______ _______ _______ _____ _____    ______ ____
ROOT
ATOM      1  N   UNL     1       3.473   0.363  -4.254  0.00  0.00    -0.251 N 
ATOM      2  C   UNL     1       3.641   1.644  -3.872  0.00  0.00    +0.255 C 
ATOM      3  O   UNL     1       4.602   2.276  -4.268  0.00  0.00    -0.269 OA
ENDROOT
BRANCH   1   4
ATOM      4  C   UNL     1       4.382  -0.229  -5.137  0.00  0.00    +0.038 A 
ATOM      5  C   UNL     1       4.027  -0.439  -6.464  0.00  0.00    +0.023 A 
ATOM      6  C   UNL     1       4.928  -1.023  -7.333  0.00  0.00    +0.002 A 
ATOM      7  C   UNL     1       6.181  -1.398  -6.884  0.00  0.00    +0.000 A 
ATOM      8  C   UNL     1       6.537  -1.190  -5.564  0.00  0.00    +0.002 A 
ATOM      9  C   UNL     1       5.643  -0.602  -4.691  0.00  0.00    +0.023 A 
ENDBRANCH   1   4
BRANCH   2  10
ATOM     10  C   UNL     1       2.659   2.281  -2.974  0.00  0.00    +0.081 A 
ATOM     11  C   UNL     1       2.269   1.644  -1.794  0.00  0.00    +0.049 A 
ATOM     12  C   UNL     1       1.351   2.244  -0.960  0.00  0.00    +0.127 A 
ATOM     13  C   UNL     1       0.813   3.478  -1.286  0.00  0.00    +0.036 A 
ATOM     14  C   UNL     1       1.189   4.119  -2.449  0.00  0.00    +0.048 A 
ATOM     15  C   UNL     1       2.116   3.532  -3.298  0.00  0.00    +0.129 A 
BRANCH  12  16
ATOM     16  N   UNL     1       0.939   1.567   0.291  0.00  0.00    +0.056 N 
ATOM     17  O   UNL     1       1.315   0.441   0.521  0.00  0.00    -0.126 OA
ATOM     18  O   UNL     1       0.226   2.140   1.081  0.00  0.00    -0.126 OA
ENDBRANCH  12  16
BRANCH  15  19
ATOM     19  O   UNL     1       2.491   4.163  -4.438  0.00  0.00    -0.506 OA
ATOM     20  H   UNL     1       1.942   3.949  -5.205  0.00  0.00    +0.292 HD
ENDBRANCH  15  19
ENDBRANCH   2  10
BRANCH   1  21
ATOM     21  C   UNL     1       2.337  -0.410  -3.745  0.00  0.00    +0.198 C 
BRANCH  21  22
ATOM     22  C   UNL     1       1.426  -0.777  -4.888  0.00  0.00    -0.014 A 
ATOM     23  C   UNL     1       1.650  -1.937  -5.606  0.00  0.00    +0.006 A 
ATOM     24  C   UNL     1       0.816  -2.276  -6.654  0.00  0.00    +0.004 A 
ATOM     25  C   UNL     1      -0.245  -1.455  -6.988  0.00  0.00    +0.045 A 
ATOM     26  C   UNL     1      -0.472  -0.291  -6.269  0.00  0.00    +0.117 A 
ATOM     27  C   UNL     1       0.363   0.044  -5.213  0.00  0.00    +0.051 A 
BRANCH  26  28
ATOM     28  O   UNL     1      -1.514   0.518  -6.595  0.00  0.00    -0.507 OA
ATOM     29  H   UNL     1      -2.336   0.306  -6.132  0.00  0.00    +0.292 HD
ENDBRANCH  26  28
ENDBRANCH  21  22
BRANCH  21  31
ATOM     30  N   UNL     1       1.970  -2.538  -2.537  0.00  0.00    -0.309 N 
ATOM     31  C   UNL     1       2.842  -1.666  -3.082  0.00  0.00    +0.239 C 
ATOM     32  O   UNL     1       4.033  -1.893  -3.040  0.00  0.00    -0.273 OA
ATOM     33  H   UNL     1       1.018  -2.356  -2.571  0.00  0.00    +0.149 HD
BRANCH  30  35
ATOM     34  C   UNL     1       3.386  -3.387  -0.733  0.00  0.00    +0.031 C 
ATOM     35  C   UNL     1       2.461  -3.759  -1.893  0.00  0.00    +0.026 C 
ATOM     36  C   UNL     1       3.233  -4.598  -2.913  0.00  0.00    +0.031 C 
ATOM     37  C   UNL     1       1.275  -4.566  -1.361  0.00  0.00    +0.031 C 
ENDBRANCH  30  35
ENDBRANCH  21  31
ENDBRANCH   1  21
TORSDOF 9
