REMARK  Name = ZINC39698103
REMARK  4 active torsions:
REMARK  status: ('A' for Active; 'I' for Inactive)
REMARK    1  A    between atoms: C_1  and  C_2
REMARK    2  A    between atoms: C_5  and  C_7
REMARK    3  A    between atoms: C_7  and  C_24
REMARK    4  A    between atoms: N_8  and  N_9
REMARK                            x       y       z     vdW  Elec       q    Type
REMARK                         _______ _______ _______ _____ _____    ______ ____
ROOT
ATOM      1  N   UNL     1       2.057  -5.524  -0.038  0.00  0.00    -0.205 N 
ATOM      2  C   UNL     1       1.552  -6.808  -0.043  0.00  0.00    +0.227 C 
ATOM      3  N   UNL     1       0.249  -6.960  -0.043  0.00  0.00    -0.220 NA
ATOM      4  C   UNL     1      -0.276  -8.321  -0.128  0.00  0.00    +0.253 C 
ATOM      5  C   UNL     1       0.775  -9.225   0.501  0.00  0.00    +0.115 C 
ATOM      6  C   UNL     1       0.098 -10.017   1.378  0.00  0.00    +0.025 A 
ATOM      7  C   UNL     1       0.503 -11.117   2.175  0.00  0.00    +0.012 A 
ATOM      8  C   UNL     1      -0.437 -11.690   2.973  0.00  0.00    +0.001 A 
ATOM      9  C   UNL     1      -1.766 -11.263   3.055  0.00  0.00    +0.002 A 
ATOM     10  C   UNL     1      -2.265 -10.225   2.332  0.00  0.00    +0.026 A 
ATOM     11  C   UNL     1      -1.319  -9.546   1.432  0.00  0.00    +0.046 A 
ATOM     12  N   UNL     1      -1.505  -8.552   0.617  0.00  0.00    -0.358 N 
ATOM     13  N   UNL     1       2.077  -9.051   0.253  0.00  0.00    -0.171 NA
ATOM     14  N   UNL     1       2.431  -7.838  -0.053  0.00  0.00    -0.247 N 
ATOM     15  H   UNL     1       3.016  -5.379  -0.042  0.00  0.00    +0.177 HD
ATOM     16  H   UNL     1       3.355  -7.665  -0.292  0.00  0.00    +0.192 HD
ATOM     17  H   UNL     1      -2.328  -8.047   0.520  0.00  0.00    +0.162 HD
ENDROOT
BRANCH   1  19
ATOM     18  C   UNL     1       1.659  -3.217  -0.024  0.00  0.00    +0.098 C 
ATOM     19  N   UNL     1       1.183  -4.428  -0.028  0.00  0.00    -0.181 NA
ATOM     20  C   UNL     1       3.149  -2.992  -0.030  0.00  0.00    +0.071 C 
BRANCH  18  25
ATOM     21  C   UNL     1      -0.018   1.503   0.010  0.00  0.00    +0.086 C 
ATOM     22  C   UNL     1       0.002  -0.004   0.002  0.00  0.00    +0.103 A 
ATOM     23  C   UNL     1      -1.084  -0.804   0.003  0.00  0.00    +0.045 A 
ATOM     24  C   UNL     1      -0.619  -2.132  -0.007  0.00  0.00    +0.051 A 
ATOM     25  C   UNL     1       0.745  -2.071  -0.013  0.00  0.00    +0.150 A 
ATOM     26  O   UNL     1       1.104  -0.771  -0.013  0.00  0.00    -0.459 OA
ENDBRANCH  18  25
ENDBRANCH   1  19
TORSDOF 2
