REMARK  Name = ZINC08430192
REMARK  7 active torsions:
REMARK  status: ('A' for Active; 'I' for Inactive)
REMARK    1  A    between atoms: C_1  and  C_2
REMARK    2  A    between atoms: C_5  and  N_9
REMARK    3  A    between atoms: C_10  and  S_13
REMARK    4  A    between atoms: N_11  and  C_12
REMARK    5  A    between atoms: S_13  and  C_14
REMARK    6  A    between atoms: N_19  and  C_22
REMARK    7  A    between atoms: C_25  and  C_28
REMARK                            x       y       z     vdW  Elec       q    Type
REMARK                         _______ _______ _______ _____ _____    ______ ____
ROOT
ATOM      1  C   UNL     1       2.018   0.333  -0.215  0.00  0.00    +0.149 C 
ATOM      2  C   UNL     1       1.056   1.538  -0.273  0.00  0.00    +0.120 C 
ATOM      3  C   UNL     1      -0.269   0.915  -0.654  0.00  0.00    +0.228 C 
ATOM      4  O   UNL     1      -1.308   1.518  -0.814  0.00  0.00    -0.275 OA
ATOM      5  N   UNL     1      -0.111  -0.407  -0.793  0.00  0.00    -0.209 N 
ATOM      6  C   UNL     1       1.135  -0.843  -0.570  0.00  0.00    +0.240 C 
ATOM      7  O   UNL     1       1.498  -1.998  -0.640  0.00  0.00    -0.274 OA
ENDROOT
BRANCH   5   8
ATOM      8  C   UNL     1      -1.160  -1.262  -1.143  0.00  0.00    +0.044 A 
ATOM      9  C   UNL     1      -2.222  -1.452  -0.265  0.00  0.00    +0.025 A 
ATOM     10  C   UNL     1      -3.260  -2.289  -0.608  0.00  0.00    +0.017 A 
ATOM     11  C   UNL     1      -3.240  -2.958  -1.835  0.00  0.00    +0.063 A 
ATOM     12  C   UNL     1      -2.168  -2.769  -2.713  0.00  0.00    +0.017 A 
ATOM     13  C   UNL     1      -1.137  -1.925  -2.365  0.00  0.00    +0.025 A 
BRANCH  11  14
ATOM     14  C   UNL     1      -4.346  -3.861  -2.204  0.00  0.00    +0.387 C 
ATOM     15  O   UNL     1      -4.327  -4.441  -3.271  0.00  0.00    -0.241 OA
ATOM     16  O   UNL     1      -5.379  -4.042  -1.357  0.00  0.00    -0.241 OA
ENDBRANCH  11  14
ENDBRANCH   5   8
BRANCH   1  17
ATOM     17  S   UNL     1       3.347   0.521  -1.430  0.00  0.00    -0.077 S 
BRANCH  17  19
ATOM     18  N   UNL     1       3.854  -1.791  -0.187  0.00  0.00    -0.226 NA
ATOM     19  C   UNL     1       4.259  -0.954  -1.115  0.00  0.00    +0.155 C 
ATOM     20  N   UNL     1       5.393  -1.228  -1.841  0.00  0.00    -0.327 N 
ATOM     21  C   UNL     1       5.779  -0.356  -2.953  0.00  0.00    +0.127 C 
ATOM     22  H   UNL     1       5.938  -1.998  -1.616  0.00  0.00    +0.148 HD
BRANCH  18  27
ATOM     23  C   UNL     1       6.452  -6.764   0.455  0.00  0.00    +0.045 C 
ATOM     24  C   UNL     1       5.759  -5.436   0.284  0.00  0.00    -0.032 A 
ATOM     25  C   UNL     1       5.243  -5.083  -0.951  0.00  0.00    +0.007 A 
ATOM     26  C   UNL     1       4.603  -3.872  -1.113  0.00  0.00    +0.028 A 
ATOM     27  C   UNL     1       4.484  -2.997  -0.031  0.00  0.00    +0.068 A 
ATOM     28  C   UNL     1       5.007  -3.359   1.212  0.00  0.00    +0.048 A 
ATOM     29  C   UNL     1       5.641  -4.576   1.362  0.00  0.00    +0.046 A 
ATOM     30 CL   UNL     1       6.292  -5.029   2.907  0.00  0.00    -0.083 Cl
ENDBRANCH  18  27
ENDBRANCH  17  19
ENDBRANCH   1  17
TORSDOF 5
