REMARK  Name = ZINC42949306
REMARK  3 active torsions:
REMARK  status: ('A' for Active; 'I' for Inactive)
REMARK    1  A    between atoms: C_4  and  C_7
REMARK    2  A    between atoms: C_10  and  N_13
REMARK    3  A    between atoms: C_19  and  C_22
REMARK                            x       y       z     vdW  Elec       q    Type
REMARK                         _______ _______ _______ _____ _____    ______ ____
ROOT
ATOM      1  N   UNL     1       4.130  -4.176  -0.055  0.00  0.00    -0.296 N 
ATOM      2  C   UNL     1       4.264  -5.344   0.603  0.00  0.00    +0.302 C 
ATOM      3  O   UNL     1       5.327  -5.636   1.115  0.00  0.00    -0.253 OA
ATOM      4  N   UNL     1       3.218  -6.189   0.694  0.00  0.00    -0.286 N 
ATOM      5  C   UNL     1       3.310  -7.409   1.509  0.00  0.00    +0.110 C 
ATOM      6  C   UNL     1       2.927  -8.612   0.640  0.00  0.00    +0.032 C 
ATOM      7  C   UNL     1       1.548  -8.371   0.022  0.00  0.00    +0.078 C 
ATOM      8  C   UNL     1       1.597  -7.128  -0.869  0.00  0.00    +0.032 C 
ATOM      9  C   UNL     1       1.962  -5.905  -0.013  0.00  0.00    +0.110 C 
ATOM     10  H   UNL     1       3.306  -3.975  -0.525  0.00  0.00    +0.151 HD
ENDROOT
BRANCH   1  14
ATOM     11  C   UNL     1       3.711  -0.705  -0.022  0.00  0.00    +0.019 C 
ATOM     12  C   UNL     1       3.787  -1.573  -1.279  0.00  0.00    +0.010 C 
ATOM     13  C   UNL     1       5.122  -2.321  -1.303  0.00  0.00    +0.023 C 
ATOM     14  C   UNL     1       5.231  -3.209  -0.062  0.00  0.00    +0.074 C 
ATOM     15  C   UNL     1       5.155  -2.341   1.195  0.00  0.00    +0.023 C 
ATOM     16  C   UNL     1       3.820  -1.593   1.219  0.00  0.00    +0.010 C 
BRANCH  11  20
ATOM     17  C   UNL     1      -0.016   1.382   0.042  0.00  0.00    +0.000 A 
ATOM     18  C   UNL     1       1.172   2.088   0.034  0.00  0.00    +0.000 A 
ATOM     19  C   UNL     1       2.378   1.413   0.013  0.00  0.00    +0.004 A 
ATOM     20  C   UNL     1       2.396   0.031   0.002  0.00  0.00    -0.044 A 
ATOM     21  C   UNL     1       1.209  -0.676   0.011  0.00  0.00    +0.004 A 
ATOM     22  C   UNL     1       0.003  -0.001   0.030  0.00  0.00    +0.000 A 
ENDBRANCH  11  20
ENDBRANCH   1  14
BRANCH   7  23
ATOM     23  C   UNL     1       1.154  -9.567  -0.806  0.00  0.00    +0.214 C 
ATOM     24  O   UNL     1       1.902 -10.518  -0.893  0.00  0.00    -0.276 OA
ATOM     25  N   UNL     1      -0.030  -9.580  -1.450  0.00  0.00    -0.329 N 
ATOM     26  H   UNL     1      -0.628  -8.820  -1.380  0.00  0.00    +0.145 HD
ATOM     27  H   UNL     1      -0.284 -10.350  -1.983  0.00  0.00    +0.145 HD
ENDBRANCH   7  23
TORSDOF 3
