REMARK  Name = ZINC64883110
REMARK  10 active torsions:
REMARK  status: ('A' for Active; 'I' for Inactive)
REMARK    1  A    between atoms: C_1  and  C_2
REMARK    2  A    between atoms: C_2  and  C_3
REMARK    3  A    between atoms: C_3  and  C_4
REMARK    4  A    between atoms: C_4  and  N_5
REMARK    5  A    between atoms: N_8  and  N_9
REMARK    6  A    between atoms: C_10  and  C_12
REMARK    7  A    between atoms: C_13  and  C_24
REMARK    8  A    between atoms: C_14  and  C_23
REMARK    9  A    between atoms: C_16  and  N_17
REMARK   10  A    between atoms: C_18  and  C_20
REMARK                            x       y       z     vdW  Elec       q    Type
REMARK                         _______ _______ _______ _____ _____    ______ ____
ROOT
ATOM      1  N   UNL     1      -5.357  -3.470   0.035  0.00  0.00    -0.229 N 
ATOM      2  C   UNL     1      -6.621  -3.936   0.044  0.00  0.00    +0.263 C 
ATOM      3  O   UNL     1      -6.827  -5.136   0.040  0.00  0.00    -0.269 OA
ATOM      4  H   UNL     1      -5.192  -2.514   0.038  0.00  0.00    +0.173 HD
ENDROOT
BRANCH   2   5
ATOM      5  C   UNL     1      -7.748  -2.998   0.060  0.00  0.00    +0.070 A 
ATOM      6  C   UNL     1      -8.348  -2.510  -1.161  0.00  0.00    -0.027 A 
ATOM      7  C   UNL     1      -9.375  -1.655  -1.009  0.00  0.00    -0.008 A 
ATOM      8  S   UNL     1      -9.530  -1.511   0.758  0.00  0.00    -0.078 S 
ATOM      9  C   UNL     1      -8.298  -2.539   1.248  0.00  0.00    +0.084 A 
ATOM     10  C   UNL     1     -10.197  -0.980  -2.077  0.00  0.00    +0.052 C 
ATOM     11  C   UNL     1      -7.853  -2.933  -2.520  0.00  0.00    +0.045 C 
BRANCH   9  12
ATOM     12  N   UNL     1      -7.916  -2.855   2.543  0.00  0.00    -0.279 N 
ATOM     13  C   UNL     1      -8.567  -2.311   3.589  0.00  0.00    +0.221 C 
ATOM     14  O   UNL     1      -9.488  -1.545   3.399  0.00  0.00    -0.275 OA
ATOM     15  H   UNL     1      -7.179  -3.468   2.695  0.00  0.00    +0.155 HD
BRANCH  13  16
ATOM     16  C   UNL     1      -8.152  -2.654   4.997  0.00  0.00    +0.075 C 
ATOM     17  C   UNL     1      -9.120  -3.491   5.835  0.00  0.00    +0.013 C 
ATOM     18  C   UNL     1      -8.931  -2.004   6.142  0.00  0.00    +0.013 C 
ENDBRANCH  13  16
ENDBRANCH   9  12
ENDBRANCH   2   5
BRANCH   1  22
ATOM     19  N   UNL     1      -2.787  -2.571   0.015  0.00  0.00    -0.298 N 
ATOM     20  C   UNL     1      -3.015  -3.899   0.010  0.00  0.00    +0.316 C 
ATOM     21  O   UNL     1      -2.080  -4.676  -0.003  0.00  0.00    -0.251 OA
ATOM     22  N   UNL     1      -4.280  -4.365   0.019  0.00  0.00    -0.218 N 
ATOM     23  H   UNL     1      -3.533  -1.950   0.025  0.00  0.00    +0.150 HD
ATOM     24  H   UNL     1      -4.444  -5.321   0.016  0.00  0.00    +0.174 HD
BRANCH  19  25
ATOM     25  C   UNL     1      -1.413  -2.063   0.004  0.00  0.00    +0.106 C 
BRANCH  25  26
ATOM     26  C   UNL     1      -1.433  -0.534   0.013  0.00  0.00    +0.018 C 
BRANCH  26  28
ATOM     27  C   UNL     1      -0.019   1.526   0.010  0.00  0.00    +0.004 C 
ATOM     28  C   UNL     1       0.002  -0.004   0.002  0.00  0.00    -0.002 C 
ENDBRANCH  26  28
ENDBRANCH  25  26
ENDBRANCH  19  25
ENDBRANCH   1  22
TORSDOF 7
