REMARK  Name = ZINC08879496
REMARK  10 active torsions:
REMARK  status: ('A' for Active; 'I' for Inactive)
REMARK    1  A    between atoms: C_1  and  C_2
REMARK    2  A    between atoms: C_6  and  C_20
REMARK    3  A    between atoms: C_7  and  C_11
REMARK    4  A    between atoms: C_11  and  C_12
REMARK    5  A    between atoms: N_14  and  C_15
REMARK    6  A    between atoms: C_15  and  C_16
REMARK    7  A    between atoms: C_15  and  C_17
REMARK    8  A    between atoms: C_15  and  C_18
REMARK    9  A    between atoms: C_18  and  O_19
REMARK   10  A    between atoms: C_23  and  C_26
REMARK                            x       y       z     vdW  Elec       q    Type
REMARK                         _______ _______ _______ _____ _____    ______ ____
ROOT
ATOM      1  C   UNL     1      -6.915  -3.697  -0.845  0.00  0.00    +0.044 C 
ATOM      2  C   UNL     1      -5.851  -2.633  -0.936  0.00  0.00    -0.036 A 
ATOM      3  C   UNL     1      -5.324  -2.104   0.206  0.00  0.00    +0.051 A 
ATOM      4  C   UNL     1      -4.340  -1.120   0.141  0.00  0.00    +0.143 A 
ATOM      5  C   UNL     1      -3.885  -0.666  -1.108  0.00  0.00    +0.064 A 
ATOM      6  C   UNL     1      -2.856   0.372  -1.157  0.00  0.00    -0.026 A 
ATOM      7  C   UNL     1      -2.370   0.852   0.019  0.00  0.00    +0.049 A 
ATOM      8  C   UNL     1      -2.872   0.351   1.238  0.00  0.00    +0.341 A 
ATOM      9  O   UNL     1      -2.433   0.792   2.285  0.00  0.00    -0.245 OA
ATOM     10  O   UNL     1      -3.819  -0.597   1.273  0.00  0.00    -0.422 OA
ATOM     11  C   UNL     1      -2.343   0.892  -2.475  0.00  0.00    +0.045 C 
ATOM     12  C   UNL     1      -4.425  -1.207  -2.287  0.00  0.00    +0.146 A 
ATOM     13  C   UNL     1      -5.413  -2.196  -2.189  0.00  0.00    +0.027 A 
ATOM     14  C   UNL     1      -5.759  -2.543  -3.573  0.00  0.00    -0.005 A 
ATOM     15  C   UNL     1      -4.989  -1.773  -4.354  0.00  0.00    +0.199 A 
ATOM     16  O   UNL     1      -4.204  -0.987  -3.596  0.00  0.00    -0.462 OA
ATOM     17  C   UNL     1      -6.776  -3.559  -4.024  0.00  0.00    +0.047 C 
ENDROOT
BRANCH   7  18
ATOM     18  C   UNL     1      -1.305   1.918   0.019  0.00  0.00    +0.138 C 
BRANCH  18  19
ATOM     19  C   UNL     1       0.055   1.269   0.021  0.00  0.00    +0.218 C 
ATOM     20  O   UNL     1       0.150   0.060   0.021  0.00  0.00    -0.275 OA
ATOM     21  N   UNL     1       1.166   2.033   0.016  0.00  0.00    -0.308 N 
ATOM     22  H   UNL     1       1.090   3.000   0.015  0.00  0.00    +0.149 HD
BRANCH  21  23
ATOM     23  C   UNL     1       2.488   1.402   0.011  0.00  0.00    +0.052 C 
ATOM     24  C   UNL     1       2.643   0.532   1.260  0.00  0.00    +0.033 C 
ATOM     25  C   UNL     1       2.633   0.530  -1.238  0.00  0.00    +0.033 C 
BRANCH  23  26
ATOM     26  C   UNL     1       3.569   2.484   0.006  0.00  0.00    +0.181 C 
BRANCH  26  27
ATOM     27  O   UNL     1       4.859   1.869   0.001  0.00  0.00    -0.393 OA
ATOM     28  H   UNL     1       5.594   2.497  -0.002  0.00  0.00    +0.209 HD
ENDBRANCH  26  27
ENDBRANCH  23  26
ENDBRANCH  21  23
ENDBRANCH  18  19
ENDBRANCH   7  18
TORSDOF 5
