REMARK  Name = ZINC44023168
REMARK  2 active torsions:
REMARK  status: ('A' for Active; 'I' for Inactive)
REMARK    1  A    between atoms: N_9  and  C_10
REMARK    2  A    between atoms: N_14  and  C_18
REMARK                            x       y       z     vdW  Elec       q    Type
REMARK                         _______ _______ _______ _____ _____    ______ ____
ROOT
ATOM      1  C   UNL     1       4.809  -0.560  -0.047  0.00  0.00    +0.149 A 
ATOM      2  C   UNL     1       5.214   0.761  -0.143  0.00  0.00    +0.117 A 
ATOM      3  C   UNL     1       6.586   1.044  -0.152  0.00  0.00    +0.259 A 
ATOM      4  O   UNL     1       6.983   2.195  -0.235  0.00  0.00    -0.267 OA
ATOM      5  N   UNL     1       7.462   0.020  -0.067  0.00  0.00    -0.256 N 
ATOM      6  C   UNL     1       7.010  -1.258   0.025  0.00  0.00    +0.353 A 
ATOM      7  O   UNL     1       7.900  -2.268   0.110  0.00  0.00    -0.244 OA
ATOM      8  N   UNL     1       5.725  -1.531   0.040  0.00  0.00    -0.175 NA
ENDROOT
BRANCH   1  17
ATOM      9  C   UNL     1       1.327  -4.414  -0.080  0.00  0.00    +0.001 A 
ATOM     10  C   UNL     1       2.709  -4.537  -0.102  0.00  0.00    +0.002 A 
ATOM     11  C   UNL     1       3.514  -3.419  -0.089  0.00  0.00    +0.027 A 
ATOM     12  C   UNL     1       2.939  -2.154  -0.055  0.00  0.00    +0.055 A 
ATOM     13  C   UNL     1       1.538  -2.034  -0.033  0.00  0.00    +0.000 A 
ATOM     14  C   UNL     1       0.741  -3.180  -0.046  0.00  0.00    +0.010 A 
ATOM     15  C   UNL     1       1.253  -0.597   0.001  0.00  0.00    +0.028 A 
ATOM     16  C   UNL     1       2.434   0.040  -0.002  0.00  0.00    +0.094 A 
ATOM     17  N   UNL     1       3.457  -0.874  -0.035  0.00  0.00    -0.301 N 
ENDBRANCH   1  17
BRANCH   5  18
ATOM     18  C   UNL     1       8.902   0.288  -0.075  0.00  0.00    +0.095 C 
ATOM     19  C   UNL     1       9.546  -0.420  -1.269  0.00  0.00    +0.025 C 
ATOM     20  C   UNL     1      11.050  -0.141  -1.277  0.00  0.00    +0.002 C 
ATOM     21  C   UNL     1      11.672  -0.661   0.021  0.00  0.00    +0.000 C 
ATOM     22  C   UNL     1      11.029   0.048   1.214  0.00  0.00    +0.002 C 
ATOM     23  C   UNL     1       9.524  -0.232   1.223  0.00  0.00    +0.025 C 
ENDBRANCH   5  18
TORSDOF 2
