REMARK  Name = ZINC63856233
REMARK  3 active torsions:
REMARK  status: ('A' for Active; 'I' for Inactive)
REMARK    1  A    between atoms: C_4  and  C_7
REMARK    2  A    between atoms: N_10  and  C_13
REMARK    3  A    between atoms: C_19  and  C_21
REMARK                            x       y       z     vdW  Elec       q    Type
REMARK                         _______ _______ _______ _____ _____    ______ ____
ROOT
ATOM      1  C   UNL     1       4.566  -3.718  -3.324  0.00  0.00    +0.046 C 
ATOM      2  C   UNL     1       6.066  -4.021  -3.286  0.00  0.00    +0.036 C 
ATOM      3  C   UNL     1       6.362  -5.227  -4.183  0.00  0.00    +0.109 C 
ATOM      4  N   UNL     1       5.835  -4.957  -5.527  0.00  0.00    -0.297 N 
ATOM      5  C   UNL     1       4.426  -4.567  -5.669  0.00  0.00    +0.109 C 
ATOM      6  C   UNL     1       4.151  -3.369  -4.755  0.00  0.00    +0.036 C 
ATOM      7  C   UNL     1       6.630  -5.064  -6.610  0.00  0.00    +0.246 C 
ATOM      8  O   UNL     1       6.209  -4.749  -7.707  0.00  0.00    -0.270 OA
ENDROOT
BRANCH   7   9
ATOM      9  C   UNL     1       8.014  -5.563  -6.465  0.00  0.00    +0.035 C 
ATOM     10  C   UNL     1       8.218  -6.899  -6.399  0.00  0.00    +0.017 C 
ATOM     11  C   UNL     1       9.609  -7.409  -6.163  0.00  0.00    +0.159 C 
ATOM     12  C   UNL     1      10.576  -6.389  -6.735  0.00  0.00    -0.018 C 
ATOM     13  C   UNL     1      11.437  -7.094  -7.489  0.00  0.00    +0.025 C 
ATOM     14  C   UNL     1      10.999  -8.435  -7.570  0.00  0.00    +0.106 C 
ATOM     15  N   UNL     1       9.933  -8.651  -6.851  0.00  0.00    -0.279 NA
ATOM     16  C   UNL     1      10.402  -5.001  -6.563  0.00  0.00    +0.007 C 
ATOM     17  C   UNL     1       9.112  -4.591  -6.405  0.00  0.00    +0.013 C 
ENDBRANCH   7   9
BRANCH   1  20
ATOM     18  C   UNL     1       2.648  -0.821  -2.262  0.00  0.00    +0.056 C 
ATOM     19  C   UNL     1       2.812  -2.352  -2.336  0.00  0.00    +0.086 C 
ATOM     20  N   UNL     1       4.273  -2.582  -2.439  0.00  0.00    -0.331 NA
ATOM     21  N   UNL     1       4.806  -1.330  -2.995  0.00  0.00    +0.400 N 
ATOM     22  N   UNL     1       4.025  -0.276  -2.329  0.00  0.00    -0.345 NA
ATOM     23  H   UNL     1       5.786  -1.235  -2.775  0.00  0.00    -0.033 HD
ATOM     24  H   UNL     1       4.048   0.583  -2.859  0.00  0.00    +0.104 HD
ATOM     25  H   UNL     1       4.662  -1.298  -3.993  0.00  0.00    -0.033 HD
BRANCH  18  29
ATOM     26  C   UNL     1      -0.199   0.873   0.523  0.00  0.00    +0.000 C 
ATOM     27  C   UNL     1       1.194   1.501   0.444  0.00  0.00    +0.000 C 
ATOM     28  C   UNL     1       1.859   1.102  -0.875  0.00  0.00    +0.005 C 
ATOM     29  C   UNL     1       1.983  -0.422  -0.943  0.00  0.00    +0.006 C 
ATOM     30  C   UNL     1       0.590  -1.050  -0.864  0.00  0.00    +0.005 C 
ATOM     31  C   UNL     1      -0.075  -0.651   0.455  0.00  0.00    +0.000 C 
ENDBRANCH  18  29
ENDBRANCH   1  20
TORSDOF 3
