REMARK  Name = ZINC39673828
REMARK  10 active torsions:
REMARK  status: ('A' for Active; 'I' for Inactive)
REMARK    1  A    between atoms: C_1  and  C_2
REMARK    2  A    between atoms: C_2  and  C_3
REMARK    3  A    between atoms: C_3  and  C_4
REMARK    4  A    between atoms: C_4  and  C_6
REMARK    5  A    between atoms: C_4  and  N_7
REMARK    6  A    between atoms: C_8  and  C_10
REMARK    7  A    between atoms: C_21  and  C_23
REMARK    8  A    between atoms: C_23  and  O_24
REMARK    9  A    between atoms: O_24  and  C_25
REMARK   10  A    between atoms: C_35  and  C_36
REMARK                            x       y       z     vdW  Elec       q    Type
REMARK                         _______ _______ _______ _____ _____    ______ ____
ROOT
ATOM      1  C   UNL     1      -2.325  -4.294   1.028  0.00  0.00    +0.100 C 
ATOM      2  C   UNL     1      -3.322  -3.337   0.337  0.00  0.00    +0.121 C 
ATOM      3  N   UNL     1      -3.507  -3.905  -1.019  0.00  0.00    -0.297 N 
ATOM      4  C   UNL     1      -3.542  -5.372  -0.804  0.00  0.00    +0.115 C 
ATOM      5  C   UNL     1      -2.475  -5.629   0.279  0.00  0.00    -0.004 C 
ATOM      6  C   UNL     1      -2.945  -6.722   1.234  0.00  0.00    -0.010 C 
ATOM      7  C   UNL     1      -3.030  -8.051   0.480  0.00  0.00    -0.082 C 
ATOM      8  N   UNL     1      -1.712  -8.389  -0.071  0.00  0.00    +0.379 N 
ATOM      9  C   UNL     1      -1.309  -7.381  -1.059  0.00  0.00    -0.082 C 
ATOM     10  C   UNL     1      -1.151  -6.023  -0.369  0.00  0.00    -0.010 C 
ATOM     11  C   UNL     1      -3.619  -3.239  -2.185  0.00  0.00    +0.253 C 
ATOM     12  O   UNL     1      -3.768  -3.851  -3.222  0.00  0.00    -0.272 OA
ATOM     13  H   UNL     1      -1.034  -8.416   0.676  0.00  0.00    -0.086 HD
ATOM     14  H   UNL     1      -1.756  -9.294  -0.515  0.00  0.00    -0.086 HD
ENDROOT
BRANCH   1  16
ATOM     15  N   UNL     1       0.003  -4.067   1.833  0.00  0.00    -0.312 N 
ATOM     16  C   UNL     1      -0.918  -3.772   0.893  0.00  0.00    +0.218 C 
ATOM     17  O   UNL     1      -0.614  -3.087  -0.060  0.00  0.00    -0.275 OA
ATOM     18  H   UNL     1      -0.240  -4.615   2.595  0.00  0.00    +0.149 HD
BRANCH  15  19
ATOM     19  C   UNL     1       1.371  -3.559   1.702  0.00  0.00    +0.070 C 
ATOM     20  C   UNL     1       2.184  -4.506   0.817  0.00  0.00    +0.028 C 
BRANCH  19  21
ATOM     21  C   UNL     1       2.018  -3.473   3.086  0.00  0.00    +0.022 C 
BRANCH  21  23
ATOM     22  C   UNL     1       1.925  -2.346   5.314  0.00  0.00    +0.004 C 
ATOM     23  C   UNL     1       1.279  -2.432   3.930  0.00  0.00    -0.002 C 
ENDBRANCH  21  23
ENDBRANCH  19  21
ENDBRANCH  15  19
ENDBRANCH   1  16
BRANCH  11  24
ATOM     24  C   UNL     1      -3.559  -1.733  -2.202  0.00  0.00    +0.324 C 
BRANCH  24  25
ATOM     25  O   UNL     1      -3.700  -1.265  -3.544  0.00  0.00    -0.479 OA
BRANCH  25  26
ATOM     26  C   UNL     1      -3.668   0.081  -3.736  0.00  0.00    +0.164 A 
ATOM     27  C   UNL     1      -3.499   0.930  -2.657  0.00  0.00    +0.049 A 
ATOM     28  C   UNL     1      -3.464   2.305  -2.840  0.00  0.00    +0.004 A 
ATOM     29  C   UNL     1      -3.598   2.845  -4.099  0.00  0.00    +0.012 A 
ATOM     30  C   UNL     1      -3.770   2.000  -5.200  0.00  0.00    +0.024 A 
ATOM     31  C   UNL     1      -3.800   0.607  -5.019  0.00  0.00    +0.181 A 
ATOM     32  O   UNL     1      -3.961  -0.207  -6.085  0.00  0.00    -0.418 OA
ATOM     33  C   UNL     1      -4.090   0.283  -7.328  0.00  0.00    +0.338 A 
ATOM     34  O   UNL     1      -4.234  -0.489  -8.258  0.00  0.00    -0.245 OA
ATOM     35  C   UNL     1      -4.063   1.672  -7.583  0.00  0.00    +0.096 A 
ATOM     36  C   UNL     1      -3.916   2.544  -6.554  0.00  0.00    -0.033 A 
ATOM     37  C   UNL     1      -3.884   4.031  -6.798  0.00  0.00    +0.045 C 
ENDBRANCH  25  26
ENDBRANCH  24  25
ENDBRANCH  11  24
TORSDOF 7
