REMARK  Name = ZINC29168227
REMARK  11 active torsions:
REMARK  status: ('A' for Active; 'I' for Inactive)
REMARK    1  A    between atoms: C_1  and  C_2
REMARK    2  A    between atoms: C_5  and  C_8
REMARK    3  A    between atoms: C_8  and  C_9
REMARK    4  A    between atoms: C_9  and  C_10
REMARK    5  A    between atoms: N_13  and  C_16
REMARK    6  A    between atoms: C_16  and  C_17
REMARK    7  A    between atoms: N_19  and  C_20
REMARK    8  A    between atoms: C_20  and  C_21
REMARK    9  A    between atoms: C_21  and  C_22
REMARK   10  A    between atoms: C_25  and  S_28
REMARK   11  A    between atoms: S_28  and  N_31
REMARK                            x       y       z     vdW  Elec       q    Type
REMARK                         _______ _______ _______ _____ _____    ______ ____
ROOT
ATOM      1  C   UNL     1       2.195   5.916  -1.405  0.00  0.00    +0.196 C 
ATOM      2  O   UNL     1       3.078   5.085  -1.369  0.00  0.00    -0.278 OA
ATOM      3  N   UNL     1       2.504   7.228  -1.433  0.00  0.00    -0.317 N 
ATOM      4  H   UNL     1       1.703   7.981  -1.465  0.00  0.00    +0.149 HD
ENDROOT
BRANCH   1   5
ATOM      5  C   UNL     1       0.752   5.481  -1.418  0.00  0.00    +0.019 C 
BRANCH   5   9
ATOM      6  C   UNL     1      -0.214   1.550  -0.044  0.00  0.00    -0.014 C 
ATOM      7  C   UNL     1      -0.690   2.003  -1.426  0.00  0.00    -0.015 C 
ATOM      8  C   UNL     1      -0.682   3.532  -1.487  0.00  0.00    -0.078 C 
ATOM      9  N   UNL     1       0.677   4.026  -1.231  0.00  0.00    +0.385 N 
ATOM     10  C   UNL     1       1.138   3.643   0.110  0.00  0.00    -0.078 C 
ATOM     11  C   UNL     1       1.184   2.118   0.218  0.00  0.00    -0.015 C 
ATOM     12  H   UNL     1       1.349   3.555  -1.964  0.00  0.00    -0.081 HD
BRANCH   6  13
ATOM     13  C   UNL     1      -0.162   0.021   0.003  0.00  0.00    +0.008 C 
BRANCH  13  14
ATOM     14  C   UNL     1      -1.578  -0.542  -0.134  0.00  0.00    +0.035 C 
BRANCH  14  19
ATOM     15  C   UNL     1      -1.380  -6.314   0.043  0.00  0.00    +0.044 C 
ATOM     16  C   UNL     1      -1.433  -4.809  -0.003  0.00  0.00    -0.050 A 
ATOM     17  C   UNL     1      -1.584  -4.087   1.166  0.00  0.00    +0.003 A 
ATOM     18  C   UNL     1      -1.631  -2.706   1.123  0.00  0.00    +0.004 A 
ATOM     19  C   UNL     1      -1.526  -2.047  -0.088  0.00  0.00    -0.047 A 
ATOM     20  C   UNL     1      -1.381  -2.770  -1.257  0.00  0.00    +0.004 A 
ATOM     21  C   UNL     1      -1.329  -4.151  -1.214  0.00  0.00    +0.003 A 
ENDBRANCH  14  19
ENDBRANCH  13  14
ENDBRANCH   6  13
ENDBRANCH   5   9
ENDBRANCH   1   5
BRANCH   3  22
ATOM     22  C   UNL     1       3.907   7.650  -1.420  0.00  0.00    +0.109 C 
BRANCH  22  23
ATOM     23  C   UNL     1       3.980   9.178  -1.457  0.00  0.00    +0.054 C 
BRANCH  23  24
ATOM     24  C   UNL     1       5.423   9.612  -1.444  0.00  0.00    -0.046 A 
ATOM     25  C   UNL     1       6.063   9.847  -0.242  0.00  0.00    +0.005 A 
ATOM     26  C   UNL     1       7.388  10.241  -0.230  0.00  0.00    +0.029 A 
ATOM     27  C   UNL     1       8.070  10.410  -1.420  0.00  0.00    +0.105 A 
ATOM     28  C   UNL     1       7.428  10.180  -2.623  0.00  0.00    +0.029 A 
ATOM     29  C   UNL     1       6.104   9.781  -2.635  0.00  0.00    +0.005 A 
BRANCH  27  30
ATOM     30  S   UNL     1       9.757  10.916  -1.405  0.00  0.00    +0.056 S 
ATOM     31  O   UNL     1      10.284  10.538  -0.140  0.00  0.00    -0.153 OA
ATOM     32  O   UNL     1      10.325  10.474  -2.630  0.00  0.00    -0.153 OA
BRANCH  30  33
ATOM     33  N   UNL     1       9.772  12.572  -1.447  0.00  0.00    -0.204 NA
ATOM     34  H   UNL     1      10.812  12.930  -1.439  0.00  0.00    +0.144 HD
ATOM     35  H   UNL     1       9.241  12.966  -0.568  0.00  0.00    +0.144 HD
ENDBRANCH  30  33
ENDBRANCH  27  30
ENDBRANCH  23  24
ENDBRANCH  22  23
ENDBRANCH   3  22
TORSDOF 10
