REMARK  Name = ZINC39364096
REMARK  8 active torsions:
REMARK  status: ('A' for Active; 'I' for Inactive)
REMARK    1  A    between atoms: C_1  and  C_2
REMARK    2  A    between atoms: C_7  and  C_15
REMARK    3  A    between atoms: C_13  and  C_14
REMARK    4  A    between atoms: C_15  and  C_16
REMARK    5  A    between atoms: C_16  and  N_17
REMARK    6  A    between atoms: C_18  and  C_20
REMARK    7  A    between atoms: C_20  and  C_22
REMARK    8  A    between atoms: C_30  and  C_32
REMARK                            x       y       z     vdW  Elec       q    Type
REMARK                         _______ _______ _______ _____ _____    ______ ____
ROOT
ATOM      1  N   UNL     1       2.360  -7.160   2.890  0.00  0.00    -0.309 N 
ATOM      2  C   UNL     1       2.641  -8.056   3.857  0.00  0.00    +0.284 C 
ATOM      3  O   UNL     1       1.820  -8.296   4.719  0.00  0.00    -0.267 OA
ATOM      4  H   UNL     1       3.015  -6.968   2.201  0.00  0.00    +0.149 HD
ENDROOT
BRANCH   2   5
ATOM      5  C   UNL     1       3.958  -8.752   3.868  0.00  0.00    +0.246 C 
ATOM      6  O   UNL     1       4.733  -8.601   2.942  0.00  0.00    -0.282 OA
BRANCH   5   7
ATOM      7  C   UNL     1       4.307  -9.585   4.952  0.00  0.00    +0.035 C 
ATOM      8  C   UNL     1       5.433 -10.387   5.066  0.00  0.00    +0.007 A 
ATOM      9  C   UNL     1       6.529 -10.631   4.210  0.00  0.00    +0.010 A 
ATOM     10  C   UNL     1       7.511 -11.485   4.584  0.00  0.00    +0.001 A 
ATOM     11  C   UNL     1       7.494 -12.159   5.814  0.00  0.00    +0.002 A 
ATOM     12  C   UNL     1       6.490 -11.996   6.705  0.00  0.00    +0.026 A 
ATOM     13  C   UNL     1       5.382 -11.084   6.374  0.00  0.00    +0.043 A 
ATOM     14  N   UNL     1       4.310 -10.745   7.031  0.00  0.00    -0.377 N 
ATOM     15  C   UNL     1       3.535  -9.786   6.238  0.00  0.00    +0.111 C 
ATOM     16  C   UNL     1       3.408  -8.459   6.988  0.00  0.00    +0.035 C 
ATOM     17  H   UNL     1       4.064 -11.074   7.910  0.00  0.00    +0.160 HD
ENDBRANCH   5   7
ENDBRANCH   2   5
BRANCH   1  18
ATOM     18  C   UNL     1       1.064  -6.476   2.879  0.00  0.00    +0.105 C 
BRANCH  18  19
ATOM     19  C   UNL     1       1.003  -5.519   1.687  0.00  0.00    +0.035 C 
BRANCH  19  26
ATOM     20  C   UNL     1      -4.804  -5.113  -3.038  0.00  0.00    +0.044 C 
ATOM     21  C   UNL     1      -3.898  -5.292  -1.847  0.00  0.00    -0.046 A 
ATOM     22  C   UNL     1      -4.094  -6.396  -1.017  0.00  0.00    +0.004 A 
ATOM     23  C   UNL     1      -3.310  -6.611   0.071  0.00  0.00    +0.010 A 
ATOM     24  C   UNL     1      -2.240  -5.658   0.369  0.00  0.00    -0.007 A 
ATOM     25  C   UNL     1      -1.428  -5.833   1.450  0.00  0.00    -0.005 C 
ATOM     26  C   UNL     1      -0.346  -4.797   1.682  0.00  0.00    +0.100 C 
ATOM     27  C   UNL     1      -0.256  -3.654   0.696  0.00  0.00    +0.224 C 
ATOM     28  O   UNL     1       0.594  -2.794   0.834  0.00  0.00    -0.275 OA
ATOM     29  N   UNL     1      -1.103  -3.592  -0.317  0.00  0.00    -0.284 N 
ATOM     30  C   UNL     1      -2.056  -4.501  -0.525  0.00  0.00    +0.043 A 
ATOM     31  C   UNL     1      -2.920  -4.374  -1.628  0.00  0.00    -0.026 A 
ATOM     32  C   UNL     1      -2.764  -3.209  -2.570  0.00  0.00    +0.046 C 
ATOM     33  H   UNL     1      -1.028  -2.851  -0.938  0.00  0.00    +0.155 HD
ENDBRANCH  19  26
ENDBRANCH  18  19
ENDBRANCH   1  18
TORSDOF 5
