REMARK  Name = ZINC21132953
REMARK  4 active torsions:
REMARK  status: ('A' for Active; 'I' for Inactive)
REMARK    1  A    between atoms: C_2  and  N_10
REMARK    2  A    between atoms: C_11  and  C_13
REMARK    3  A    between atoms: C_13  and  C_14
REMARK    4  A    between atoms: N_20  and  C_21
REMARK                            x       y       z     vdW  Elec       q    Type
REMARK                         _______ _______ _______ _____ _____    ______ ____
ROOT
ATOM      1  C   UNL     1      -0.022   5.651  -0.184  0.00  0.00    +0.120 C 
ENDROOT
BRANCH   1   2
ATOM      2  C   UNL     1      -1.467   6.146  -0.270  0.00  0.00    +0.149 C 
ATOM      3  C   UNL     1      -1.524   7.659  -0.407  0.00  0.00    +0.232 C 
ATOM      4  O   UNL     1      -1.045   8.238  -1.359  0.00  0.00    -0.274 OA
ATOM      5  N   UNL     1      -2.129   8.304   0.575  0.00  0.00    -0.264 N 
ATOM      6  C   UNL     1      -2.678   7.652   1.662  0.00  0.00    +0.157 C 
ATOM      7  N   UNL     1      -3.295   8.171   2.685  0.00  0.00    -0.260 NA
ATOM      8  S   UNL     1      -2.343   5.926   1.334  0.00  0.00    -0.077 S 
ATOM      9  H   UNL     1      -2.190   9.271   0.531  0.00  0.00    +0.157 HD
BRANCH   7  10
ATOM     10  C   UNL     1      -3.811   7.304   3.747  0.00  0.00    +0.108 C 
ATOM     11  C   UNL     1      -5.325   7.485   3.862  0.00  0.00    +0.027 C 
ATOM     12  C   UNL     1      -5.864   6.580   4.971  0.00  0.00    +0.002 C 
ATOM     13  C   UNL     1      -5.204   6.952   6.300  0.00  0.00    +0.000 C 
ATOM     14  C   UNL     1      -3.689   6.771   6.185  0.00  0.00    +0.002 C 
ATOM     15  C   UNL     1      -3.150   7.677   5.076  0.00  0.00    +0.027 C 
ENDBRANCH   7  10
ENDBRANCH   1   2
BRANCH   1  17
ATOM     16  N   UNL     1       1.161   3.487   0.009  0.00  0.00    -0.284 N 
ATOM     17  C   UNL     1      -0.011   4.148  -0.078  0.00  0.00    +0.219 C 
ATOM     18  O   UNL     1      -1.056   3.533  -0.072  0.00  0.00    -0.275 OA
ATOM     19  H   UNL     1       1.992   3.982   0.085  0.00  0.00    +0.155 HD
BRANCH  16  21
ATOM     20  C   UNL     1       0.141   1.387  -0.611  0.00  0.00    +0.046 A 
ATOM     21  C   UNL     1       1.178   2.087  -0.009  0.00  0.00    +0.053 A 
ATOM     22  C   UNL     1       2.232   1.397   0.575  0.00  0.00    +0.064 A 
ATOM     23  C   UNL     1       2.247   0.015   0.555  0.00  0.00    +0.043 A 
ATOM     24  C   UNL     1       1.213  -0.681  -0.046  0.00  0.00    +0.061 A 
ATOM     25  C   UNL     1       0.161   0.005  -0.628  0.00  0.00    +0.061 A 
ATOM     26 CL   UNL     1      -1.136  -0.871  -1.380  0.00  0.00    -0.082 Cl
ATOM     27 CL   UNL     1       1.236  -2.417  -0.070  0.00  0.00    -0.082 Cl
ATOM     28 CL   UNL     1       3.531   2.269   1.328  0.00  0.00    -0.082 Cl
ENDBRANCH  16  21
ENDBRANCH   1  17
TORSDOF 4
