REMARK  Name = ZINC40047662
REMARK  7 active torsions:
REMARK  status: ('A' for Active; 'I' for Inactive)
REMARK    1  A    between atoms: C_3  and  C_6
REMARK    2  A    between atoms: C_8  and  C_18
REMARK    3  A    between atoms: N_12  and  C_13
REMARK    4  A    between atoms: C_13  and  C_14
REMARK    5  A    between atoms: C_14  and  C_15
REMARK    6  A    between atoms: C_15  and  O_16
REMARK    7  A    between atoms: C_18  and  C_20
REMARK                            x       y       z     vdW  Elec       q    Type
REMARK                         _______ _______ _______ _____ _____    ______ ____
ROOT
ATOM      1  C   UNL     1       3.004   0.638   0.116  0.00  0.00    +0.180 C 
ATOM      2  C   UNL     1       3.909   0.478   1.315  0.00  0.00    +0.079 C 
ATOM      3  C   UNL     1       4.707  -0.586   1.064  0.00  0.00    +0.249 C 
ATOM      4  C   UNL     1       4.367  -1.145  -0.262  0.00  0.00    +0.288 C 
ATOM      5  O   UNL     1       4.907  -2.106  -0.772  0.00  0.00    -0.266 OA
ATOM      6  N   UNL     1       3.371  -0.431  -0.821  0.00  0.00    -0.280 N 
ATOM      7  O   UNL     1       5.663  -1.062   1.894  0.00  0.00    -0.282 OA
ENDROOT
BRANCH   1  10
ATOM      8  C   UNL     1      -0.543   0.908   1.077  0.00  0.00    +0.041 A 
ATOM      9  C   UNL     1       0.680   1.494   0.680  0.00  0.00    +0.047 A 
ATOM     10  C   UNL     1       1.563   0.490   0.532  0.00  0.00    +0.130 A 
ATOM     11  O   UNL     1       0.942  -0.667   0.816  0.00  0.00    -0.466 OA
ATOM     12  C   UNL     1      -0.335  -0.419   1.147  0.00  0.00    +0.195 A 
ENDBRANCH   1  10
BRANCH   2  13
ATOM     13  C   UNL     1       3.922   1.315   2.519  0.00  0.00    +0.195 C 
ATOM     14  O   UNL     1       3.629   0.834   3.597  0.00  0.00    -0.287 OA
BRANCH  13  15
ATOM     15  C   UNL     1       4.291   2.743   2.422  0.00  0.00    +0.022 A 
ATOM     16  C   UNL     1       4.732   3.273   1.207  0.00  0.00    +0.013 A 
ATOM     17  C   UNL     1       5.074   4.606   1.123  0.00  0.00    +0.021 A 
ATOM     18  C   UNL     1       4.981   5.420   2.240  0.00  0.00    +0.041 A 
ATOM     19  C   UNL     1       4.544   4.900   3.448  0.00  0.00    +0.021 A 
ATOM     20  C   UNL     1       4.194   3.570   3.544  0.00  0.00    +0.013 A 
ATOM     21 CL   UNL     1       5.415   7.097   2.127  0.00  0.00    -0.084 Cl
ENDBRANCH  13  15
ENDBRANCH   2  13
BRANCH   6  22
ATOM     22  C   UNL     1       2.762  -0.677  -2.130  0.00  0.00    +0.111 C 
BRANCH  22  23
ATOM     23  C   UNL     1       3.520   0.110  -3.201  0.00  0.00    +0.047 C 
BRANCH  23  24
ATOM     24  C   UNL     1       2.883  -0.146  -4.568  0.00  0.00    +0.157 C 
BRANCH  24  25
ATOM     25  O   UNL     1       3.591   0.589  -5.569  0.00  0.00    -0.395 OA
ATOM     26  H   UNL     1       3.241   0.473  -6.463  0.00  0.00    +0.209 HD
ENDBRANCH  24  25
ENDBRANCH  23  24
ENDBRANCH  22  23
ENDBRANCH   6  22
TORSDOF 7
