REMARK  Name = ZINC39960911
REMARK  5 active torsions:
REMARK  status: ('A' for Active; 'I' for Inactive)
REMARK    1  A    between atoms: C_1  and  C_2
REMARK    2  A    between atoms: C_5  and  S_8
REMARK    3  A    between atoms: S_8  and  N_11
REMARK    4  A    between atoms: N_11  and  C_12
REMARK    5  A    between atoms: C_14  and  C_25
REMARK                            x       y       z     vdW  Elec       q    Type
REMARK                         _______ _______ _______ _____ _____    ______ ____
ROOT
ATOM      1  C   UNL     1       2.512  -4.697   1.120  0.00  0.00    +0.193 C 
ATOM      2  C   UNL     1       3.419  -5.893   1.339  0.00  0.00    -0.004 C 
ATOM      3  C   UNL     1       4.796  -5.662   1.288  0.00  0.00    +0.003 A 
ATOM      4  C   UNL     1       5.712  -6.718   1.480  0.00  0.00    +0.030 A 
ATOM      5  C   UNL     1       7.048  -6.465   1.425  0.00  0.00    +0.042 A 
ATOM      6  C   UNL     1       7.533  -5.181   1.182  0.00  0.00    +0.022 A 
ATOM      7  C   UNL     1       6.699  -4.123   0.988  0.00  0.00    +0.025 A 
ATOM      8  C   UNL     1       5.306  -4.310   1.032  0.00  0.00    +0.041 A 
ATOM      9  N   UNL     1       4.488  -3.269   0.841  0.00  0.00    -0.283 N 
ATOM     10  C   UNL     1       3.173  -3.362   0.866  0.00  0.00    +0.240 C 
ATOM     11  O   UNL     1       2.491  -2.371   0.683  0.00  0.00    -0.273 OA
ATOM     12 CL   UNL     1       8.171  -7.768   1.662  0.00  0.00    -0.084 Cl
ATOM     13  H   UNL     1       4.883  -2.399   0.676  0.00  0.00    +0.155 HD
ENDROOT
BRANCH   2  14
ATOM     14  C   UNL     1       2.893  -7.186   1.585  0.00  0.00    -0.019 A 
ATOM     15  C   UNL     1       3.113  -8.225   0.665  0.00  0.00    +0.008 A 
ATOM     16  C   UNL     1       2.598  -9.478   0.913  0.00  0.00    +0.001 A 
ATOM     17  C   UNL     1       1.866  -9.716   2.065  0.00  0.00    +0.000 A 
ATOM     18  C   UNL     1       1.644  -8.698   2.979  0.00  0.00    +0.001 A 
ATOM     19  C   UNL     1       2.155  -7.440   2.752  0.00  0.00    +0.008 A 
ENDBRANCH   2  14
BRANCH   1  20
ATOM     20  N   UNL     1       1.644  -4.995  -0.022  0.00  0.00    -0.174 NA
ATOM     21  H   UNL     1       2.000  -5.467  -0.791  0.00  0.00    +0.149 HD
BRANCH  20  22
ATOM     22  S   UNL     1       0.057  -4.524  -0.001  0.00  0.00    +0.059 S 
ATOM     23  O   UNL     1      -0.475  -4.946   1.247  0.00  0.00    -0.153 OA
ATOM     24  O   UNL     1      -0.503  -4.927  -1.244  0.00  0.00    -0.153 OA
BRANCH  22  29
ATOM     25  C   UNL     1      -0.018   1.509   0.046  0.00  0.00    +0.044 C 
ATOM     26  C   UNL     1       0.001   0.003   0.034  0.00  0.00    -0.050 A 
ATOM     27  C   UNL     1      -0.003  -0.679  -1.168  0.00  0.00    +0.005 A 
ATOM     28  C   UNL     1       0.015  -2.062  -1.179  0.00  0.00    +0.029 A 
ATOM     29  C   UNL     1       0.036  -2.762   0.013  0.00  0.00    +0.105 A 
ATOM     30  C   UNL     1       0.041  -2.080   1.215  0.00  0.00    +0.029 A 
ATOM     31  C   UNL     1       0.028  -0.698   1.226  0.00  0.00    +0.005 A 
ENDBRANCH  22  29
ENDBRANCH  20  22
ENDBRANCH   1  20
TORSDOF 4
