REMARK  Name = ZINC12459175
REMARK  10 active torsions:
REMARK  status: ('A' for Active; 'I' for Inactive)
REMARK    1  A    between atoms: C_10  and  C_11
REMARK    2  A    between atoms: C_10  and  N_55
REMARK    3  A    between atoms: C_11  and  C_13
REMARK    4  A    between atoms: C_11  and  O_26
REMARK    5  A    between atoms: C_13  and  O_14
REMARK    6  A    between atoms: O_14  and  C_15
REMARK    7  A    between atoms: C_20  and  C_21
REMARK    8  A    between atoms: C_21  and  N_57
REMARK    9  A    between atoms: C_22  and  C_23
REMARK   10  A    between atoms: C_22  and  N_57
REMARK                            x       y       z     vdW  Elec       q    Type
REMARK                         _______ _______ _______ _____ _____    ______ ____
ROOT
ATOM      1  C   UNL     1      -3.964   3.271   1.230  0.00  0.00    +0.258 C 
ENDROOT
BRANCH   1   2
ATOM      2  C   UNL     1      -3.397   4.386   2.111  0.00  0.00    +0.135 C 
BRANCH   2   3
ATOM      3  O   UNL     1      -3.260   5.581   1.338  0.00  0.00    -0.390 OA
ATOM      4  H   UNL     1      -4.091   5.906   0.966  0.00  0.00    +0.210 HD
ENDBRANCH   2   3
BRANCH   2   5
ATOM      5  C   UNL     1      -4.347   4.644   3.283  0.00  0.00    -0.043 C 
BRANCH   5  15
ATOM      6  C   UNL     1      -3.146   9.068   7.788  0.00  0.00    +0.000 A 
ATOM      7  C   UNL     1      -4.510   9.016   7.567  0.00  0.00    +0.000 A 
ATOM      8  C   UNL     1      -5.028   8.093   6.681  0.00  0.00    +0.002 A 
ATOM      9  C   UNL     1      -4.188   7.217   6.010  0.00  0.00    -0.061 A 
ATOM     10  C   UNL     1      -2.828   7.272   6.228  0.00  0.00    -0.048 A 
ATOM     11  C   UNL     1      -2.309   8.198   7.119  0.00  0.00    +0.004 A 
ATOM     12  C   UNL     1      -1.875   6.345   5.517  0.00  0.00    +0.017 C 
ATOM     13  C   UNL     1      -2.642   5.162   4.925  0.00  0.00    -0.074 C 
ATOM     14  C   UNL     1      -4.801   6.226   5.056  0.00  0.00    -0.043 C 
ATOM     15  N   UNL     1      -3.772   5.703   4.141  0.00  0.00    +0.384 N 
ATOM     16  H   UNL     1      -3.433   6.467   3.546  0.00  0.00    -0.081 HD
ENDBRANCH   5  15
ENDBRANCH   2   5
ENDBRANCH   1   2
BRANCH   1  17
ATOM     17  O   UNL     1      -3.024   2.951   0.204  0.00  0.00    -0.489 OA
BRANCH  17  18
ATOM     18  C   UNL     1      -3.375   1.972  -0.671  0.00  0.00    +0.122 A 
ATOM     19  C   UNL     1      -4.601   1.334  -0.544  0.00  0.00    +0.046 A 
ATOM     20  C   UNL     1      -4.956   0.340  -1.435  0.00  0.00    +0.004 A 
ATOM     21  C   UNL     1      -4.091  -0.019  -2.453  0.00  0.00    +0.000 A 
ATOM     22  C   UNL     1      -2.872   0.619  -2.585  0.00  0.00    +0.005 A 
ATOM     23  C   UNL     1      -2.510   1.610  -1.693  0.00  0.00    -0.023 A 
BRANCH  23  24
ATOM     24  C   UNL     1      -1.178   2.302  -1.834  0.00  0.00    -0.043 C 
BRANCH  24  25
ATOM     25  N   UNL     1      -0.227   1.722  -0.867  0.00  0.00    +0.382 N 
ATOM     26  H   UNL     1      -0.121   0.718  -1.057  0.00  0.00    -0.085 HD
ATOM     27  H   UNL     1      -0.590   1.853   0.084  0.00  0.00    -0.085 HD
BRANCH  25  28
ATOM     28  C   UNL     1       1.087   2.381  -0.983  0.00  0.00    -0.079 C 
BRANCH  28  29
ATOM     29  C   UNL     1       2.051   1.759   0.030  0.00  0.00    -0.028 C 
ATOM     30  C   UNL     1       2.593   2.666   1.137  0.00  0.00    +0.002 C 
ATOM     31  C   UNL     1       3.509   2.222  -0.006  0.00  0.00    +0.002 C 
ENDBRANCH  28  29
ENDBRANCH  25  28
ENDBRANCH  24  25
ENDBRANCH  23  24
ENDBRANCH  17  18
ENDBRANCH   1  17
TORSDOF 10
