REMARK  Name = ZINC32578051
REMARK  5 active torsions:
REMARK  status: ('A' for Active; 'I' for Inactive)
REMARK    1  A    between atoms: C_4  and  C_7
REMARK    2  A    between atoms: C_7  and  N_11
REMARK    3  A    between atoms: C_12  and  C_14
REMARK    4  A    between atoms: C_14  and  C_15
REMARK    5  A    between atoms: C_15  and  N_16
REMARK                            x       y       z     vdW  Elec       q    Type
REMARK                         _______ _______ _______ _____ _____    ______ ____
ROOT
ATOM      1  N   UNL     1       4.818   0.081  -0.586  0.00  0.00    -0.306 N 
ATOM      2  C   UNL     1       5.112   1.287  -0.060  0.00  0.00    +0.215 C 
ATOM      3  O   UNL     1       4.521   1.680   0.924  0.00  0.00    -0.276 OA
ATOM      4  H   UNL     1       5.340  -0.265  -1.326  0.00  0.00    +0.150 HD
ENDROOT
BRANCH   1   5
ATOM      5  C   UNL     1       3.709  -0.706  -0.040  0.00  0.00    +0.060 C 
ATOM      6  C   UNL     1       3.937  -1.172   1.408  0.00  0.00    +0.030 C 
ATOM      7  C   UNL     1       4.605  -2.425   0.816  0.00  0.00    +0.005 C 
ATOM      8  C   UNL     1       3.751  -2.190  -0.441  0.00  0.00    +0.030 C 
BRANCH   5  12
ATOM      9  C   UNL     1      -0.096   1.132  -0.664  0.00  0.00    +0.000 A 
ATOM     10  C   UNL     1       0.002  -0.007   0.114  0.00  0.00    +0.000 A 
ATOM     11  C   UNL     1       1.234  -0.602   0.316  0.00  0.00    +0.006 A 
ATOM     12  C   UNL     1       2.367  -0.058  -0.260  0.00  0.00    -0.024 A 
ATOM     13  C   UNL     1       2.268   1.080  -1.039  0.00  0.00    +0.006 A 
ATOM     14  C   UNL     1       1.037   1.676  -1.240  0.00  0.00    +0.000 A 
ENDBRANCH   5  12
ENDBRANCH   1   5
BRANCH   2  15
ATOM     15  C   UNL     1       6.174   2.147  -0.694  0.00  0.00    +0.119 C 
BRANCH  15  16
ATOM     16  C   UNL     1       6.310   3.452   0.092  0.00  0.00    +0.157 C 
BRANCH  16  17
ATOM     17  N   UNL     1       7.343   4.288  -0.524  0.00  0.00    -0.225 N 
ATOM     18  C   UNL     1       6.990   5.166  -1.486  0.00  0.00    +0.275 A 
ATOM     19  O   UNL     1       5.828   5.264  -1.838  0.00  0.00    -0.266 OA
ATOM     20  C   UNL     1       8.030   6.001  -2.100  0.00  0.00    +0.053 A 
ATOM     21  C   UNL     1       7.736   6.929  -3.098  0.00  0.00    +0.014 A 
ATOM     22  C   UNL     1       8.751   7.688  -3.640  0.00  0.00    +0.001 A 
ATOM     23  C   UNL     1      10.060   7.537  -3.202  0.00  0.00    +0.001 A 
ATOM     24  C   UNL     1      10.372   6.626  -2.217  0.00  0.00    +0.014 A 
ATOM     25  C   UNL     1       9.361   5.847  -1.653  0.00  0.00    +0.055 A 
ATOM     26  C   UNL     1       9.639   4.863  -0.602  0.00  0.00    +0.295 A 
ATOM     27  O   UNL     1      10.907   4.691  -0.150  0.00  0.00    -0.264 OA
ATOM     28  N   UNL     1       8.665   4.159  -0.097  0.00  0.00    -0.125 NA
ENDBRANCH  16  17
ENDBRANCH  15  16
ENDBRANCH   2  15
TORSDOF 5
