REMARK  Name = ZINC21324248
REMARK  14 active torsions:
REMARK  status: ('A' for Active; 'I' for Inactive)
REMARK    1  A    between atoms: C_1  and  C_2
REMARK    2  A    between atoms: C_2  and  C_3
REMARK    3  A    between atoms: C_5  and  C_27
REMARK    4  A    between atoms: C_6  and  C_11
REMARK    5  A    between atoms: C_11  and  N_12
REMARK    6  A    between atoms: N_12  and  C_13
REMARK    7  A    between atoms: N_12  and  C_15
REMARK    8  A    between atoms: C_13  and  C_14
REMARK    9  A    between atoms: C_15  and  C_16
REMARK   10  A    between atoms: N_18  and  C_19
REMARK   11  A    between atoms: C_24  and  C_25
REMARK   12  A    between atoms: C_27  and  O_29
REMARK   13  A    between atoms: O_29  and  C_30
REMARK   14  A    between atoms: C_30  and  C_31
REMARK                            x       y       z     vdW  Elec       q    Type
REMARK                         _______ _______ _______ _____ _____    ______ ____
ROOT
ATOM      1  C   UNL     1       0.952  -2.237   0.067  0.00  0.00    -0.026 C 
ENDROOT
BRANCH   1   4
ATOM      2  C   UNL     1       2.091   1.238  -1.153  0.00  0.00    +0.113 C 
ATOM      3  C   UNL     1       1.983  -0.266  -1.005  0.00  0.00    +0.072 C 
ATOM      4  C   UNL     1       1.091  -0.748  -0.112  0.00  0.00    +0.007 C 
ATOM      5  N   UNL     1       0.314   0.094   0.632  0.00  0.00    -0.274 N 
ATOM      6  C   UNL     1       0.368   1.429   0.541  0.00  0.00    +0.304 C 
ATOM      7  O   UNL     1      -0.368   2.096   1.242  0.00  0.00    -0.253 OA
ATOM      8  N   UNL     1       1.208   2.057  -0.305  0.00  0.00    -0.292 N 
ATOM      9  H   UNL     1      -0.407  -0.317   1.354  0.00  0.00    +0.156 HD
ATOM     10  H   UNL     1       1.245   3.154  -0.371  0.00  0.00    +0.151 HD
BRANCH   2  12
ATOM     11  C   UNL     1       3.715   3.136  -1.114  0.00  0.00    +0.006 C 
ATOM     12  C   UNL     1       3.537   1.639  -0.853  0.00  0.00    +0.024 C 
ENDBRANCH   2  12
BRANCH   3  13
ATOM     13  C   UNL     1       2.788  -1.137  -1.776  0.00  0.00    +0.338 C 
ATOM     14  O   UNL     1       2.605  -2.339  -1.726  0.00  0.00    -0.245 OA
BRANCH  13  15
ATOM     15  O   UNL     1       3.760  -0.634  -2.566  0.00  0.00    -0.462 OA
BRANCH  15  16
ATOM     16  C   UNL     1       4.535  -1.571  -3.316  0.00  0.00    +0.229 C 
ATOM     17  C   UNL     1       5.579  -0.821  -4.146  0.00  0.00    +0.048 C 
ENDBRANCH  15  16
ENDBRANCH  13  15
ENDBRANCH   3  13
ENDBRANCH   1   4
BRANCH   1  18
ATOM     18  N   UNL     1       0.384  -2.521   1.392  0.00  0.00    +0.389 N 
ATOM     19  H   UNL     1      -0.531  -1.921   1.503  0.00  0.00    -0.081 HD
BRANCH  18  20
ATOM     20  C   UNL     1       1.314  -2.126   2.458  0.00  0.00    -0.081 C 
ATOM     21  C   UNL     1       0.631  -2.292   3.818  0.00  0.00    -0.017 C 
ENDBRANCH  18  20
BRANCH  18  22
ATOM     22  C   UNL     1       0.013  -3.937   1.514  0.00  0.00    +0.019 C 
BRANCH  22  23
ATOM     23  C   UNL     1      -1.138  -4.236   0.588  0.00  0.00    +0.201 C 
ATOM     24  O   UNL     1      -1.672  -3.337  -0.026  0.00  0.00    -0.278 OA
ATOM     25  N   UNL     1      -1.573  -5.503   0.442  0.00  0.00    -0.287 N 
ATOM     26  H   UNL     1      -1.130  -6.310   1.045  0.00  0.00    +0.155 HD
BRANCH  25  27
ATOM     27  C   UNL     1      -2.587  -5.793  -0.477  0.00  0.00    +0.038 A 
ATOM     28  C   UNL     1      -3.505  -4.813  -0.832  0.00  0.00    +0.043 A 
ATOM     29  C   UNL     1      -4.503  -5.101  -1.744  0.00  0.00    +0.043 A 
ATOM     30  C   UNL     1      -4.594  -6.368  -2.295  0.00  0.00    +0.020 A 
ATOM     31  C   UNL     1      -3.685  -7.346  -1.938  0.00  0.00    +0.006 A 
ATOM     32  C   UNL     1      -2.682  -7.063  -1.032  0.00  0.00    -0.029 A 
ATOM     33  C   UNL     1      -1.691  -8.130  -0.645  0.00  0.00    +0.045 C 
ATOM     34 CL   UNL     1      -5.646  -3.875  -2.195  0.00  0.00    -0.083 Cl
ENDBRANCH  25  27
ENDBRANCH  22  23
ENDBRANCH  18  22
ENDBRANCH   1  18
TORSDOF 10
