REMARK  Name = ZINC13140515
REMARK  8 active torsions:
REMARK  status: ('A' for Active; 'I' for Inactive)
REMARK    1  A    between atoms: C_1  and  C_2
REMARK    2  A    between atoms: N_5  and  N_6
REMARK    3  A    between atoms: N_6  and  C_7
REMARK    4  A    between atoms: C_11  and  C_14
REMARK    5  A    between atoms: C_14  and  C_15
REMARK    6  A    between atoms: N_17  and  C_18
REMARK    7  A    between atoms: C_25  and  C_27
REMARK    8  A    between atoms: C_25  and  C_28
REMARK                            x       y       z     vdW  Elec       q    Type
REMARK                         _______ _______ _______ _____ _____    ______ ____
ROOT
ATOM      1  C   UNL     1      -0.682  -2.666  -4.693  0.00  0.00    +0.191 C 
ATOM      2  N   UNL     1      -0.705  -3.974  -4.916  0.00  0.00    -0.155 NA
ATOM      3  C   UNL     1      -0.927  -4.521  -6.080  0.00  0.00    +0.252 C 
ATOM      4  O   UNL     1      -0.940  -5.726  -6.241  0.00  0.00    -0.272 OA
ATOM      5  C   UNL     1      -1.168  -3.544  -7.224  0.00  0.00    +0.150 C 
ATOM      6  S   UNL     1      -1.019  -1.957  -6.300  0.00  0.00    -0.076 S 
ENDROOT
BRANCH   1   7
ATOM      7  N   UNL     1      -0.459  -2.016  -3.514  0.00  0.00    -0.094 NA
BRANCH   7  12
ATOM      8  C   UNL     1      -0.048   1.463   0.039  0.00  0.00    +0.039 C 
ATOM      9  C   UNL     1      -0.021  -0.043   0.022  0.00  0.00    -0.070 C 
ATOM     10  C   UNL     1      -0.014  -0.660  -1.150  0.00  0.00    +0.024 C 
ATOM     11  C   UNL     1       0.002  -2.129  -1.223  0.00  0.00    +0.062 C 
ATOM     12  N   UNL     1      -0.210  -2.748  -2.346  0.00  0.00    -0.163 NA
ATOM     13  C   UNL     1       0.275  -2.895   0.055  0.00  0.00    +0.063 C 
ATOM     14  C   UNL     1      -0.512  -2.203   1.178  0.00  0.00    -0.026 C 
ATOM     15  C   UNL     1       0.003  -0.771   1.334  0.00  0.00    +0.037 C 
ATOM     16  C   UNL     1      -0.308  -2.964   2.489  0.00  0.00    +0.011 C 
ATOM     17  C   UNL     1      -2.000  -2.181   0.822  0.00  0.00    +0.011 C 
ENDBRANCH   7  12
ENDBRANCH   1   7
BRANCH   5  18
ATOM     18  C   UNL     1      -2.569  -3.711  -7.816  0.00  0.00    +0.120 C 
BRANCH  18  19
ATOM     19  C   UNL     1      -2.718  -2.814  -9.017  0.00  0.00    +0.219 C 
ATOM     20  O   UNL     1      -1.794  -2.109  -9.366  0.00  0.00    -0.275 OA
ATOM     21  N   UNL     1      -3.878  -2.793  -9.704  0.00  0.00    -0.285 N 
ATOM     22  H   UNL     1      -4.593  -3.405  -9.466  0.00  0.00    +0.155 HD
BRANCH  21  23
ATOM     23  C   UNL     1      -4.050  -1.891 -10.759  0.00  0.00    +0.033 A 
ATOM     24  C   UNL     1      -5.295  -1.320 -10.990  0.00  0.00    +0.023 A 
ATOM     25  C   UNL     1      -5.462  -0.429 -12.033  0.00  0.00    +0.002 A 
ATOM     26  C   UNL     1      -4.391  -0.107 -12.846  0.00  0.00    +0.000 A 
ATOM     27  C   UNL     1      -3.151  -0.675 -12.620  0.00  0.00    +0.002 A 
ATOM     28  C   UNL     1      -2.976  -1.561 -11.575  0.00  0.00    +0.023 A 
ENDBRANCH  21  23
ENDBRANCH  18  19
ENDBRANCH   5  18
TORSDOF 5
