REMARK  Name = ZINC31819983
REMARK  3 active torsions:
REMARK  status: ('A' for Active; 'I' for Inactive)
REMARK    1  A    between atoms: C_1  and  C_2
REMARK    2  A    between atoms: C_15  and  O_27
REMARK    3  A    between atoms: C_17  and  C_19
REMARK                            x       y       z     vdW  Elec       q    Type
REMARK                         _______ _______ _______ _____ _____    ______ ____
ROOT
ATOM      1  C   UNL     1      -0.018   1.503   0.010  0.00  0.00    +0.068 C 
ATOM      2  C   UNL     1       0.002  -0.004   0.002  0.00  0.00    +0.066 A 
ATOM      3  C   UNL     1       0.008  -0.806  -1.124  0.00  0.00    +0.027 A 
ATOM      4  C   UNL     1       0.032  -2.129  -0.706  0.00  0.00    +0.165 A 
ATOM      5  N   UNL     1       0.034  -2.119   0.648  0.00  0.00    -0.194 N 
ATOM      6  N   UNL     1       0.023  -0.778   1.064  0.00  0.00    -0.168 NA
ATOM      7  C   UNL     1       0.049  -3.242   1.482  0.00  0.00    +0.178 A 
ATOM      8  C   UNL     1       0.554  -3.144   2.778  0.00  0.00    +0.055 A 
ATOM      9  C   UNL     1       0.548  -4.282   3.566  0.00  0.00    +0.077 A 
ATOM     10  C   UNL     1       0.036  -5.456   3.014  0.00  0.00    +0.289 A 
ATOM     11  N   UNL     1      -0.423  -5.455   1.774  0.00  0.00    -0.105 NA
ATOM     12  N   UNL     1      -0.422  -4.398   1.045  0.00  0.00    -0.126 NA
ATOM     13  O   UNL     1       0.010  -6.597   3.749  0.00  0.00    -0.264 OA
ATOM     14  N   UNL     1       0.057  -3.160  -1.598  0.00  0.00    -0.197 NA
ATOM     15  C   UNL     1       0.344  -2.913  -2.841  0.00  0.00    +0.190 C 
ATOM     16  C   UNL     1       0.717  -1.552  -3.353  0.00  0.00    +0.108 C 
ATOM     17  C   UNL     1      -0.012  -0.441  -2.587  0.00  0.00    +0.065 C 
ENDROOT
BRANCH  17  18
ATOM     18  C   UNL     1       0.697   0.872  -2.796  0.00  0.00    -0.021 A 
ATOM     19  C   UNL     1       2.029   1.002  -2.447  0.00  0.00    +0.008 A 
ATOM     20  C   UNL     1       2.680   2.205  -2.638  0.00  0.00    +0.039 A 
ATOM     21  C   UNL     1       1.999   3.283  -3.179  0.00  0.00    +0.125 A 
ATOM     22  C   UNL     1       0.666   3.153  -3.529  0.00  0.00    +0.058 A 
ATOM     23  C   UNL     1       0.017   1.946  -3.342  0.00  0.00    +0.047 A 
ATOM     24 CL   UNL     1      -1.653   1.780  -3.786  0.00  0.00    -0.083 Cl
ATOM     25  F   UNL     1       2.635   4.460  -3.365  0.00  0.00    -0.205 F 
ENDBRANCH  17  18
BRANCH  15  26
ATOM     26  O   UNL     1       0.306  -3.936  -3.719  0.00  0.00    -0.495 OA
ATOM     27  H   UNL     1       0.060  -4.784  -3.325  0.00  0.00    +0.293 HD
ENDBRANCH  15  26
TORSDOF 2
