REMARK  Name = ZINC34733611
REMARK  6 active torsions:
REMARK  status: ('A' for Active; 'I' for Inactive)
REMARK    1  A    between atoms: C_1  and  C_2
REMARK    2  A    between atoms: C_2  and  C_3
REMARK    3  A    between atoms: C_4  and  C_29
REMARK    4  A    between atoms: N_15  and  C_18
REMARK    5  A    between atoms: C_18  and  C_19
REMARK    6  A    between atoms: N_21  and  C_22
REMARK                            x       y       z     vdW  Elec       q    Type
REMARK                         _______ _______ _______ _____ _____    ______ ____
ROOT
ATOM      1  C   UNL     1      -1.409  -0.502   0.013  0.00  0.00    -0.040 C 
ATOM      2  C   UNL     1      -2.081  -0.838  -1.073  0.00  0.00    -0.064 C 
ATOM      3  C   UNL     1      -3.451  -1.302  -0.632  0.00  0.00    +0.073 C 
ATOM      4  C   UNL     1      -3.438  -1.172   0.861  0.00  0.00    +0.004 A 
ATOM      5  C   UNL     1      -2.222  -0.703   1.246  0.00  0.00    +0.003 A 
ATOM      6  C   UNL     1      -2.025  -0.517   2.700  0.00  0.00    +0.078 A 
ATOM      7  C   UNL     1      -0.822  -0.022   3.401  0.00  0.00    +0.263 A 
ATOM      8  O   UNL     1       0.173   0.292   2.773  0.00  0.00    -0.267 OA
ATOM      9  N   UNL     1      -0.841   0.077   4.743  0.00  0.00    -0.274 N 
ATOM     10  H   UNL     1      -0.051   0.401   5.202  0.00  0.00    +0.173 HD
ATOM     11  C   UNL     1      -1.922  -0.261   5.464  0.00  0.00    +0.331 A 
ATOM     12  O   UNL     1      -1.889  -0.153   6.675  0.00  0.00    -0.246 OA
ATOM     13  N   UNL     1      -3.044  -0.717   4.872  0.00  0.00    -0.279 N 
ATOM     14  C   UNL     1      -3.105  -0.847   3.512  0.00  0.00    +0.098 A 
ATOM     15  S   UNL     1      -4.350  -1.378   2.367  0.00  0.00    -0.074 S 
ATOM     16  C   UNL     1      -1.575  -0.772  -2.491  0.00  0.00    +0.039 C 
ENDROOT
BRANCH   1  18
ATOM     17  C   UNL     1      -0.008   1.544   0.025  0.00  0.00    +0.009 C 
ATOM     18  C   UNL     1       0.007   0.014   0.006  0.00  0.00    +0.032 C 
ENDBRANCH   1  18
BRANCH  13  19
ATOM     19  C   UNL     1      -4.205  -1.076   5.690  0.00  0.00    +0.223 C 
BRANCH  19  20
ATOM     20  C   UNL     1      -5.089   0.132   5.866  0.00  0.00    +0.237 C 
ATOM     21  O   UNL     1      -4.779   1.189   5.358  0.00  0.00    -0.274 OA
ATOM     22  N   UNL     1      -6.223   0.038   6.588  0.00  0.00    -0.284 N 
ATOM     23  H   UNL     1      -6.505  -0.821   6.938  0.00  0.00    +0.155 HD
BRANCH  22  24
ATOM     24  C   UNL     1      -6.993   1.181   6.833  0.00  0.00    +0.034 A 
ATOM     25  C   UNL     1      -7.656   1.327   8.044  0.00  0.00    +0.024 A 
ATOM     26  C   UNL     1      -8.415   2.455   8.283  0.00  0.00    +0.017 A 
ATOM     27  C   UNL     1      -8.516   3.440   7.317  0.00  0.00    +0.018 A 
ATOM     28  C   UNL     1      -7.857   3.298   6.109  0.00  0.00    +0.017 A 
ATOM     29  C   UNL     1      -7.092   2.173   5.867  0.00  0.00    +0.024 A 
ATOM     30 BR   UNL     1      -9.557   4.984   7.647  0.00  0.00    -0.050 Br
ENDBRANCH  22  24
ENDBRANCH  19  20
ENDBRANCH  13  19
TORSDOF 4
