REMARK  Name = ZINC01444460
REMARK  9 active torsions:
REMARK  status: ('A' for Active; 'I' for Inactive)
REMARK    1  A    between atoms: C_1  and  C_2
REMARK    2  A    between atoms: C_2  and  C_3
REMARK    3  A    between atoms: C_3  and  C_25
REMARK    4  A    between atoms: C_4  and  C_23
REMARK    5  A    between atoms: C_4  and  O_24
REMARK    6  A    between atoms: N_5  and  C_9
REMARK    7  A    between atoms: C_9  and  C_10
REMARK    8  A    between atoms: C_10  and  C_11
REMARK    9  A    between atoms: C_12  and  C_22
REMARK                            x       y       z     vdW  Elec       q    Type
REMARK                         _______ _______ _______ _____ _____    ______ ____
ROOT
ATOM      1  C   UNL     1      -0.735   1.996   1.269  0.00  0.00    +0.119 C 
ENDROOT
BRANCH   1   4
ATOM      2  C   UNL     1      -1.330   5.741   0.983  0.00  0.00    +0.157 C 
ATOM      3  C   UNL     1      -1.808   4.306   0.693  0.00  0.00    +0.175 C 
ATOM      4  N   UNL     1      -0.754   3.461   1.277  0.00  0.00    -0.235 N 
ATOM      5  C   UNL     1       0.181   4.250   1.823  0.00  0.00    +0.406 C 
ATOM      6  O   UNL     1       1.170   3.818   2.382  0.00  0.00    -0.226 OA
ATOM      7  O   UNL     1      -0.070   5.558   1.692  0.00  0.00    -0.439 OA
ATOM      8  C   UNL     1      -3.151   4.038   1.376  0.00  0.00    +0.068 C 
ATOM      9  C   UNL     1      -1.103   6.505  -0.323  0.00  0.00    +0.060 C 
BRANCH   2  11
ATOM     10  C   UNL     1      -1.906   7.933   2.036  0.00  0.00    +0.008 C 
ATOM     11  C   UNL     1      -2.340   6.475   1.867  0.00  0.00    +0.049 C 
ENDBRANCH   2  11
BRANCH   3  12
ATOM     12  O   UNL     1      -1.909   4.081  -0.714  0.00  0.00    -0.368 OA
ATOM     13  H   UNL     1      -2.145   3.174  -0.952  0.00  0.00    +0.212 HD
ENDBRANCH   3  12
ENDBRANCH   1   4
BRANCH   1  14
ATOM     14  C   UNL     1      -0.018   1.503   0.010  0.00  0.00    +0.056 C 
BRANCH  14  15
ATOM     15  C   UNL     1       0.002  -0.004   0.002  0.00  0.00    -0.018 A 
ATOM     16  C   UNL     1       0.955  -0.792   0.523  0.00  0.00    +0.017 A 
ATOM     17  N   UNL     1       0.631  -2.107   0.329  0.00  0.00    -0.357 N 
ATOM     18  H   UNL     1       1.165  -2.862   0.622  0.00  0.00    +0.166 HD
ATOM     19  C   UNL     1      -0.566  -2.199  -0.347  0.00  0.00    +0.065 A 
ATOM     20  C   UNL     1      -1.011  -0.886  -0.582  0.00  0.00    +0.005 A 
ATOM     21  C   UNL     1      -2.213  -0.669  -1.258  0.00  0.00    +0.010 A 
ATOM     22  C   UNL     1      -2.952  -1.734  -1.690  0.00  0.00    +0.002 A 
ATOM     23  C   UNL     1      -2.517  -3.032  -1.461  0.00  0.00    +0.022 A 
ATOM     24  C   UNL     1      -1.333  -3.270  -0.796  0.00  0.00    +0.065 A 
ATOM     25 CL   UNL     1      -0.801  -4.899  -0.518  0.00  0.00    -0.081 Cl
ATOM     26  C   UNL     1       2.198  -0.302   1.221  0.00  0.00    +0.063 C 
ENDBRANCH  14  15
ENDBRANCH   1  14
TORSDOF 5
