REMARK  Name = ZINC08315162
REMARK  7 active torsions:
REMARK  status: ('A' for Active; 'I' for Inactive)
REMARK    1  A    between atoms: C_1  and  C_2
REMARK    2  A    between atoms: C_2  and  C_3
REMARK    3  A    between atoms: C_2  and  C_4
REMARK    4  A    between atoms: C_7  and  S_10
REMARK    5  A    between atoms: S_10  and  N_13
REMARK    6  A    between atoms: C_18  and  N_52
REMARK    7  A    between atoms: C_25  and  O_27
REMARK                            x       y       z     vdW  Elec       q    Type
REMARK                         _______ _______ _______ _____ _____    ______ ____
ROOT
ATOM      1  N   UNL     1       6.503   0.377   0.487  0.00  0.00    -0.180 NA
ATOM      2  C   UNL     1       5.966   1.703   0.146  0.00  0.00    +0.091 C 
ATOM      3  C   UNL     1       4.536   1.802   0.688  0.00  0.00    -0.061 C 
ATOM      4  C   UNL     1       4.283  -0.610   0.686  0.00  0.00    -0.061 C 
ATOM      5  C   UNL     1       5.703  -0.808   0.144  0.00  0.00    +0.091 C 
ATOM      6  N   UNL     1       3.749   0.665   0.162  0.00  0.00    +0.386 N 
ATOM      7  H   UNL     1       3.817   0.659  -0.863  0.00  0.00    -0.081 HD
ENDROOT
BRANCH   6   8
ATOM      8  C   UNL     1       2.330   0.814   0.546  0.00  0.00    -0.017 C 
ATOM      9  C   UNL     1       2.197   1.115   2.066  0.00  0.00    +0.153 C 
ATOM     10  S   UNL     1       0.504   1.840   2.120  0.00  0.00    -0.030 S 
ATOM     11  O   UNL     1       0.523   2.998   2.944  0.00  0.00    -0.174 OA
ATOM     12  O   UNL     1      -0.433   0.806   2.387  0.00  0.00    -0.174 OA
ATOM     13  C   UNL     1       0.339   2.358   0.363  0.00  0.00    +0.195 C 
ATOM     14  C   UNL     1       1.721   1.993  -0.230  0.00  0.00    +0.123 C 
BRANCH  14  15
ATOM     15  O   UNL     1       1.566   1.626  -1.603  0.00  0.00    -0.392 OA
ATOM     16  H   UNL     1       1.213   2.333  -2.161  0.00  0.00    +0.210 HD
ENDBRANCH  14  15
ENDBRANCH   6   8
BRANCH   1  17
ATOM     17  S   UNL     1       7.971   0.223   1.238  0.00  0.00    +0.061 S 
ATOM     18  O   UNL     1       8.450  -1.079   0.931  0.00  0.00    -0.153 OA
ATOM     19  O   UNL     1       8.709   1.398   0.933  0.00  0.00    -0.153 OA
BRANCH  17  23
ATOM     20  C   UNL     1       7.207   0.298   5.700  0.00  0.00    -0.045 A 
ATOM     21  C   UNL     1       7.199  -0.904   5.017  0.00  0.00    +0.006 A 
ATOM     22  C   UNL     1       7.432  -0.927   3.655  0.00  0.00    +0.029 A 
ATOM     23  C   UNL     1       7.674   0.252   2.975  0.00  0.00    +0.105 A 
ATOM     24  C   UNL     1       7.687   1.454   3.658  0.00  0.00    +0.029 A 
ATOM     25  C   UNL     1       7.449   1.477   5.020  0.00  0.00    +0.006 A 
BRANCH  20  27
ATOM     26  C   UNL     1       8.167   0.921   7.900  0.00  0.00    +0.012 C 
ATOM     27  C   UNL     1       6.954   0.323   7.185  0.00  0.00    +0.013 C 
ATOM     28  C   UNL     1       5.718   1.177   7.477  0.00  0.00    +0.012 C 
ENDBRANCH  20  27
ENDBRANCH  17  23
ENDBRANCH   1  17
TORSDOF 5
