REMARK  Name = ZINC49681877
REMARK  6 active torsions:
REMARK  status: ('A' for Active; 'I' for Inactive)
REMARK    1  A    between atoms: C_1  and  C_2
REMARK    2  A    between atoms: C_4  and  C_25
REMARK    3  A    between atoms: C_5  and  N_9
REMARK    4  A    between atoms: C_10  and  C_12
REMARK    5  A    between atoms: C_12  and  C_13
REMARK    6  A    between atoms: C_13  and  C_14
REMARK                            x       y       z     vdW  Elec       q    Type
REMARK                         _______ _______ _______ _____ _____    ______ ____
ROOT
ATOM      1  C   UNL     1       0.598  -6.347   1.021  0.00  0.00    +0.101 C 
ENDROOT
BRANCH   1   3
ATOM      2  N   UNL     1       0.057  -4.171  -0.023  0.00  0.00    -0.284 N 
ATOM      3  C   UNL     1       0.471  -4.846   1.067  0.00  0.00    +0.218 C 
ATOM      4  O   UNL     1       0.741  -4.246   2.086  0.00  0.00    -0.275 OA
ATOM      5  H   UNL     1      -0.228  -4.655  -0.814  0.00  0.00    +0.155 HD
BRANCH   2  10
ATOM      6  C   UNL     1      -0.016   1.503   0.014  0.00  0.00    +0.044 C 
ATOM      7  C   UNL     1       0.004  -0.004   0.004  0.00  0.00    -0.049 A 
ATOM      8  C   UNL     1      -1.135  -0.711   0.340  0.00  0.00    +0.008 A 
ATOM      9  C   UNL     1      -1.121  -2.092   0.333  0.00  0.00    -0.028 A 
ATOM     10  C   UNL     1       0.039  -2.771  -0.015  0.00  0.00    +0.055 A 
ATOM     11  C   UNL     1       1.183  -2.058  -0.353  0.00  0.00    +0.063 A 
ATOM     12  C   UNL     1       1.160  -0.676  -0.348  0.00  0.00    +0.025 A 
ATOM     13 CL   UNL     1       2.636  -2.902  -0.788  0.00  0.00    -0.082 Cl
ATOM     14  C   UNL     1      -2.363  -2.862   0.701  0.00  0.00    +0.046 C 
ENDBRANCH   2  10
ENDBRANCH   1   3
BRANCH   1  15
ATOM     15  C   UNL     1       1.081  -6.860   2.379  0.00  0.00    +0.044 C 
BRANCH  15  16
ATOM     16  C   UNL     1       1.208  -8.361   2.333  0.00  0.00    -0.045 A 
ATOM     17  C   UNL     1       0.128  -9.155   2.671  0.00  0.00    +0.007 A 
ATOM     18  C   UNL     1       0.236 -10.533   2.629  0.00  0.00    +0.048 A 
ATOM     19  C   UNL     1       1.430 -11.120   2.249  0.00  0.00    +0.142 A 
ATOM     20  C   UNL     1       2.520 -10.320   1.910  0.00  0.00    +0.076 A 
ATOM     21  C   UNL     1       2.403  -8.940   1.947  0.00  0.00    +0.030 A 
ATOM     22  N   UNL     1       3.724 -10.928   1.529  0.00  0.00    -0.280 N 
ATOM     23  C   UNL     1       3.720 -12.237   1.195  0.00  0.00    +0.255 C 
ATOM     24  O   UNL     1       4.756 -12.791   0.892  0.00  0.00    -0.272 OA
ATOM     25  C   UNL     1       2.424 -13.006   1.200  0.00  0.00    +0.325 C 
ATOM     26  O   UNL     1       1.554 -12.474   2.202  0.00  0.00    -0.481 OA
ATOM     27  H   UNL     1       4.548 -10.416   1.505  0.00  0.00    +0.155 HD
ENDBRANCH  15  16
ENDBRANCH   1  15
TORSDOF 4
