REMARK  Name = ZINC35577072
REMARK  6 active torsions:
REMARK  status: ('A' for Active; 'I' for Inactive)
REMARK    1  A    between atoms: C_3  and  N_8
REMARK    2  A    between atoms: C_9  and  N_32
REMARK    3  A    between atoms: C_11  and  C_25
REMARK    4  A    between atoms: N_17  and  C_18
REMARK    5  A    between atoms: C_18  and  C_19
REMARK    6  A    between atoms: C_19  and  C_20
REMARK                            x       y       z     vdW  Elec       q    Type
REMARK                         _______ _______ _______ _____ _____    ______ ____
ROOT
ATOM      1  N   UNL     1       3.568   2.341   0.325  0.00  0.00    -0.216 N 
ATOM      2  C   UNL     1       4.751   1.795   0.668  0.00  0.00    +0.131 A 
ATOM      3  C   UNL     1       5.752   2.591   0.126  0.00  0.00    +0.086 A 
ATOM      4  C   UNL     1       7.165   2.573   0.115  0.00  0.00    +0.089 A 
ATOM      5  N   UNL     1       7.801   3.540  -0.535  0.00  0.00    -0.214 NA
ATOM      6  C   UNL     1       7.152   4.512  -1.168  0.00  0.00    +0.218 A 
ATOM      7  N   UNL     1       5.838   4.606  -1.208  0.00  0.00    -0.193 NA
ATOM      8  C   UNL     1       5.072   3.687  -0.589  0.00  0.00    +0.189 A 
ATOM      9  N   UNL     1       3.780   3.490  -0.445  0.00  0.00    -0.144 NA
ATOM     10  N   UNL     1       7.896   5.479  -1.819  0.00  0.00    -0.313 N 
ATOM     11  H   UNL     1       8.865   5.436  -1.806  0.00  0.00    +0.149 HD
ENDROOT
BRANCH   1  14
ATOM     12  C   UNL     1       0.024   2.195   1.298  0.00  0.00    +0.005 A 
ATOM     13  C   UNL     1       1.261   2.699   0.947  0.00  0.00    +0.028 A 
ATOM     14  C   UNL     1       2.313   1.832   0.682  0.00  0.00    +0.070 A 
ATOM     15  C   UNL     1       2.119   0.460   0.771  0.00  0.00    +0.066 A 
ATOM     16  C   UNL     1       0.878  -0.039   1.124  0.00  0.00    +0.125 A 
ATOM     17  C   UNL     1      -0.169   0.829   1.387  0.00  0.00    +0.038 A 
ATOM     18  F   UNL     1       0.688  -1.374   1.211  0.00  0.00    -0.205 F 
ENDBRANCH   1  14
BRANCH   4  19
ATOM     19  C   UNL     1       7.916   1.504   0.810  0.00  0.00    +0.001 A 
ATOM     20  C   UNL     1       7.544   0.169   0.649  0.00  0.00    +0.013 A 
ATOM     21  C   UNL     1       8.248  -0.823   1.300  0.00  0.00    +0.039 A 
ATOM     22  C   UNL     1       9.322  -0.496   2.112  0.00  0.00    +0.123 A 
ATOM     23  C   UNL     1       9.695   0.829   2.275  0.00  0.00    +0.039 A 
ATOM     24  C   UNL     1       9.003   1.828   1.624  0.00  0.00    +0.013 A 
ATOM     25  F   UNL     1      10.008  -1.471   2.747  0.00  0.00    -0.205 F 
ENDBRANCH   4  19
BRANCH   2  26
ATOM     26  N   UNL     1       4.935   0.651   1.422  0.00  0.00    -0.342 N 
ATOM     27  H   UNL     1       4.181   0.073   1.618  0.00  0.00    +0.144 HD
ATOM     28  H   UNL     1       5.818   0.427   1.756  0.00  0.00    +0.144 HD
ENDBRANCH   2  26
BRANCH  10  29
ATOM     29  C   UNL     1       7.221   6.569  -2.529  0.00  0.00    +0.109 C 
BRANCH  29  30
ATOM     30  C   UNL     1       8.265   7.493  -3.157  0.00  0.00    +0.061 C 
BRANCH  30  31
ATOM     31  C   UNL     1       7.571   8.614  -3.888  0.00  0.00    -0.009 A 
ATOM     32  C   UNL     1       7.196   9.831  -3.424  0.00  0.00    +0.011 A 
ATOM     33  C   UNL     1       6.565  10.710  -4.284  0.00  0.00    +0.008 A 
ATOM     34  C   UNL     1       6.340  10.329  -5.565  0.00  0.00    +0.045 A 
ATOM     35  S   UNL     1       7.035   8.685  -5.589  0.00  0.00    -0.102 S 
ENDBRANCH  30  31
ENDBRANCH  29  30
ENDBRANCH  10  29
TORSDOF 6
