REMARK  Name = ZINC35993563
REMARK  13 active torsions:
REMARK  status: ('A' for Active; 'I' for Inactive)
REMARK    1  A    between atoms: C_1  and  C_2
REMARK    2  A    between atoms: C_2  and  C_4
REMARK    3  A    between atoms: C_2  and  N_15
REMARK    4  A    between atoms: N_15  and  C_16
REMARK    5  A    between atoms: C_16  and  C_17
REMARK    6  A    between atoms: C_17  and  C_18
REMARK    7  A    between atoms: C_18  and  C_19
REMARK    8  A    between atoms: C_19  and  C_20
REMARK    9  A    between atoms: C_20  and  C_21
REMARK   10  A    between atoms: C_21  and  N_22
REMARK   11  A    between atoms: N_22  and  C_23
REMARK   12  A    between atoms: C_23  and  C_25
REMARK   13  A    between atoms: C_23  and  C_26
REMARK                            x       y       z     vdW  Elec       q    Type
REMARK                         _______ _______ _______ _____ _____    ______ ____
ROOT
ATOM      1  C   UNL     1      -4.187  -0.253  -2.522  0.00  0.00    -0.002 C 
ENDROOT
BRANCH   1   2
ATOM      2  C   UNL     1      -3.485  -0.656  -1.224  0.00  0.00    -0.019 C 
BRANCH   2   3
ATOM      3  C   UNL     1      -2.050  -0.126  -1.234  0.00  0.00    -0.082 C 
BRANCH   3   4
ATOM      4  N   UNL     1      -1.376  -0.512   0.012  0.00  0.00    +0.383 N 
ATOM      5  H   UNL     1      -1.363  -1.518   0.090  0.00  0.00    -0.085 HD
ATOM      6  H   UNL     1      -1.873  -0.121   0.799  0.00  0.00    -0.085 HD
BRANCH   4   8
ATOM      7  C   UNL     1      -0.019   1.526   0.010  0.00  0.00    -0.010 C 
ATOM      8  C   UNL     1       0.002  -0.004   0.002  0.00  0.00    -0.030 C 
BRANCH   8   9
ATOM      9  C   UNL     1       0.742  -0.511   1.242  0.00  0.00    +0.197 C 
ATOM     10  C   UNL     1       2.212  -0.075   1.181  0.00  0.00    +0.272 C 
ATOM     11  O   UNL     1       2.870  -0.552   2.359  0.00  0.00    -0.485 OA
ATOM     12  C   UNL     1       2.227  -0.354   3.542  0.00  0.00    +0.162 A 
ATOM     13  C   UNL     1       2.938  -0.452   4.729  0.00  0.00    +0.049 A 
ATOM     14  C   UNL     1       2.297  -0.256   5.938  0.00  0.00    +0.004 A 
ATOM     15  C   UNL     1       0.947   0.038   5.968  0.00  0.00    +0.004 A 
ATOM     16  C   UNL     1       0.233   0.138   4.789  0.00  0.00    +0.049 A 
ATOM     17  C   UNL     1       0.870  -0.056   3.572  0.00  0.00    +0.162 A 
ATOM     18  O   UNL     1       0.154   0.053   2.419  0.00  0.00    -0.483 OA
ENDBRANCH   8   9
ENDBRANCH   4   8
ENDBRANCH   3   4
ENDBRANCH   2   3
ENDBRANCH   1   2
BRANCH   1  19
ATOM     19  C   UNL     1      -5.623  -0.783  -2.511  0.00  0.00    -0.002 C 
BRANCH  19  20
ATOM     20  C   UNL     1      -6.325  -0.381  -3.810  0.00  0.00    -0.019 C 
BRANCH  20  21
ATOM     21  C   UNL     1      -7.760  -0.910  -3.799  0.00  0.00    -0.082 C 
BRANCH  21  22
ATOM     22  N   UNL     1      -8.434  -0.524  -5.046  0.00  0.00    +0.383 N 
ATOM     23  H   UNL     1      -8.447   0.482  -5.123  0.00  0.00    -0.085 HD
ATOM     24  H   UNL     1      -7.937  -0.915  -5.832  0.00  0.00    -0.085 HD
BRANCH  22  25
ATOM     25  C   UNL     1      -9.812  -1.032  -5.035  0.00  0.00    -0.030 C 
ATOM     26  C   UNL     1     -10.601  -0.345  -3.919  0.00  0.00    -0.010 C 
BRANCH  25  27
ATOM     27  C   UNL     1     -10.474  -0.739  -6.383  0.00  0.00    +0.197 C 
ATOM     28  C   UNL     1      -9.679  -1.414  -7.508  0.00  0.00    +0.272 C 
ATOM     29  O   UNL     1     -10.316  -1.108  -8.754  0.00  0.00    -0.485 OA
ATOM     30  C   UNL     1     -10.671   0.190  -8.956  0.00  0.00    +0.162 A 
ATOM     31  C   UNL     1     -10.950   0.627 -10.242  0.00  0.00    +0.049 A 
ATOM     32  C   UNL     1     -11.316   1.942 -10.463  0.00  0.00    +0.004 A 
ATOM     33  C   UNL     1     -11.405   2.824  -9.403  0.00  0.00    +0.004 A 
ATOM     34  C   UNL     1     -11.127   2.396  -8.119  0.00  0.00    +0.049 A 
ATOM     35  C   UNL     1     -10.757   1.079  -7.890  0.00  0.00    +0.162 A 
ATOM     36  O   UNL     1     -10.479   0.673  -6.621  0.00  0.00    -0.483 OA
ENDBRANCH  25  27
ENDBRANCH  22  25
ENDBRANCH  21  22
ENDBRANCH  20  21
ENDBRANCH  19  20
ENDBRANCH   1  19
TORSDOF 11
