REMARK  Name = ZINC09915792
REMARK  6 active torsions:
REMARK  status: ('A' for Active; 'I' for Inactive)
REMARK    1  A    between atoms: C_4  and  C_7
REMARK    2  A    between atoms: C_7  and  C_8
REMARK    3  A    between atoms: C_11  and  C_28
REMARK    4  A    between atoms: C_22  and  O_27
REMARK    5  A    between atoms: C_28  and  C_29
REMARK    6  A    between atoms: C_32  and  O_35
REMARK                            x       y       z     vdW  Elec       q    Type
REMARK                         _______ _______ _______ _____ _____    ______ ____
ROOT
ATOM      1  C   UNL     1      -0.062   4.262   0.065  0.00  0.00    +0.064 A 
ATOM      2  C   UNL     1      -1.254   3.564   0.060  0.00  0.00    +0.161 A 
ATOM      3  N   UNL     1      -2.527   3.958   0.080  0.00  0.00    -0.227 NA
ATOM      4  C   UNL     1      -3.313   2.901   0.060  0.00  0.00    +0.113 A 
ATOM      5  C   UNL     1      -2.511   1.752   0.028  0.00  0.00    +0.279 A 
ATOM      6  O   UNL     1      -2.898   0.592   0.004  0.00  0.00    -0.265 OA
ATOM      7  N   UNL     1      -1.230   2.171   0.031  0.00  0.00    -0.260 N 
ATOM      8  C   UNL     1      -0.018   1.501   0.010  0.00  0.00    +0.053 A 
ATOM      9  C   UNL     1       1.130   2.203   0.003  0.00  0.00    +0.067 A 
ATOM     10  N   UNL     1       1.109   3.592   0.038  0.00  0.00    -0.353 N 
ATOM     11  H   UNL     1       1.944   4.085   0.044  0.00  0.00    +0.166 HD
ATOM     12  C   UNL     1       2.423   1.487  -0.044  0.00  0.00    +0.003 A 
ATOM     13  C   UNL     1       3.606   2.130   0.315  0.00  0.00    +0.014 A 
ATOM     14  C   UNL     1       4.795   1.430   0.302  0.00  0.00    +0.046 A 
ATOM     15  C   UNL     1       4.812   0.091  -0.066  0.00  0.00    +0.117 A 
ATOM     16  C   UNL     1       3.634  -0.549  -0.432  0.00  0.00    +0.049 A 
ATOM     17  C   UNL     1       2.445   0.146  -0.429  0.00  0.00    -0.034 A 
ATOM     18  C   UNL     1       1.162  -0.528  -0.839  0.00  0.00    +0.042 C 
ATOM     19  C   UNL     1       0.002  -0.004   0.002  0.00  0.00    +0.061 C 
ENDROOT
BRANCH  15  20
ATOM     20  O   UNL     1       5.984  -0.596  -0.069  0.00  0.00    -0.507 OA
ATOM     21  H   UNL     1       6.458  -0.561  -0.911  0.00  0.00    +0.292 HD
ENDBRANCH  15  20
BRANCH   1  22
ATOM     22  C   UNL     1      -0.069   5.769   0.102  0.00  0.00    +0.092 C 
BRANCH  22  26
ATOM     23  C   UNL     1      -0.390   7.093   4.151  0.00  0.00    +0.000 A 
ATOM     24  C   UNL     1       0.855   6.883   3.589  0.00  0.00    +0.000 A 
ATOM     25  C   UNL     1       0.959   6.454   2.279  0.00  0.00    +0.004 A 
ATOM     26  C   UNL     1      -0.182   6.236   1.530  0.00  0.00    -0.042 A 
ATOM     27  C   UNL     1      -1.428   6.452   2.090  0.00  0.00    +0.004 A 
ATOM     28  C   UNL     1      -1.532   6.876   3.402  0.00  0.00    +0.000 A 
ENDBRANCH  22  26
ENDBRANCH   1  22
BRANCH   4  29
ATOM     29  C   UNL     1      -4.820   2.924   0.068  0.00  0.00    +0.096 C 
BRANCH  29  30
ATOM     30  C   UNL     1      -5.330   2.965  -1.349  0.00  0.00    -0.041 A 
ATOM     31  C   UNL     1      -5.550   4.182  -1.969  0.00  0.00    +0.007 A 
ATOM     32  C   UNL     1      -6.012   4.222  -3.270  0.00  0.00    +0.045 A 
ATOM     33  C   UNL     1      -6.265   3.040  -3.952  0.00  0.00    +0.117 A 
ATOM     34  C   UNL     1      -6.048   1.821  -3.327  0.00  0.00    +0.045 A 
ATOM     35  C   UNL     1      -5.581   1.786  -2.027  0.00  0.00    +0.007 A 
BRANCH  33  36
ATOM     36  O   UNL     1      -6.724   3.077  -5.231  0.00  0.00    -0.507 OA
ATOM     37  H   UNL     1      -7.689   3.094  -5.301  0.00  0.00    +0.292 HD
ENDBRANCH  33  36
ENDBRANCH  29  30
ENDBRANCH   4  29
TORSDOF 6
