REMARK  Name = ZINC39923307
REMARK  9 active torsions:
REMARK  status: ('A' for Active; 'I' for Inactive)
REMARK    1  A    between atoms: C_1  and  C_2
REMARK    2  A    between atoms: C_2  and  N_3
REMARK    3  A    between atoms: C_4  and  C_26
REMARK    4  A    between atoms: C_8  and  S_10
REMARK    5  A    between atoms: S_10  and  C_11
REMARK    6  A    between atoms: C_11  and  C_12
REMARK    7  A    between atoms: N_14  and  N_15
REMARK    8  A    between atoms: C_16  and  C_17
REMARK    9  A    between atoms: C_29  and  C_32
REMARK                            x       y       z     vdW  Elec       q    Type
REMARK                         _______ _______ _______ _____ _____    ______ ____
ROOT
ATOM      1  S   UNL     1       2.716   1.135   1.879  0.00  0.00    -0.150 S 
ENDROOT
BRANCH   1   6
ATOM      2  N   UNL     1       0.903  -0.708   1.076  0.00  0.00    +0.410 N 
ATOM      3  C   UNL     1       0.868  -2.190   1.189  0.00  0.00    +0.049 C 
ATOM      4  N   UNL     1       2.063  -2.486   2.022  0.00  0.00    -0.267 NA
ATOM      5  N   UNL     1       3.073  -1.526   1.569  0.00  0.00    -0.262 NA
ATOM      6  C   UNL     1       2.346  -0.390   0.968  0.00  0.00    +0.077 C 
ATOM      7  H   UNL     1       2.376  -3.434   1.881  0.00  0.00    +0.139 HD
ATOM      8  H   UNL     1       3.699  -1.949   0.899  0.00  0.00    +0.140 HD
ATOM      9  H   UNL     1       0.507  -0.279   1.899  0.00  0.00    -0.075 HD
BRANCH   3  10
ATOM     10  C   UNL     1      -0.393  -2.643   1.877  0.00  0.00    -0.046 A 
ATOM     11  C   UNL     1      -1.225  -3.560   1.262  0.00  0.00    +0.003 A 
ATOM     12  C   UNL     1      -2.382  -3.976   1.894  0.00  0.00    +0.003 A 
ATOM     13  C   UNL     1      -2.707  -3.475   3.140  0.00  0.00    -0.050 A 
ATOM     14  C   UNL     1      -1.875  -2.559   3.756  0.00  0.00    +0.003 A 
ATOM     15  C   UNL     1      -0.716  -2.146   3.126  0.00  0.00    +0.003 A 
ATOM     16  C   UNL     1      -3.970  -3.928   3.829  0.00  0.00    +0.044 C 
ENDBRANCH   3  10
BRANCH   2  18
ATOM     17  C   UNL     1       0.236   1.260  -0.220  0.00  0.00    -0.017 C 
ATOM     18  C   UNL     1       0.188  -0.266  -0.129  0.00  0.00    -0.076 C 
ENDBRANCH   2  18
ENDBRANCH   1   6
BRANCH   1  19
ATOM     19  C   UNL     1       2.232   0.756   3.585  0.00  0.00    +0.166 C 
BRANCH  19  20
ATOM     20  C   UNL     1       2.491   1.956   4.459  0.00  0.00    +0.242 C 
ATOM     21  O   UNL     1       2.956   2.967   3.978  0.00  0.00    -0.273 OA
ATOM     22  N   UNL     1       2.206   1.905   5.776  0.00  0.00    -0.206 N 
ATOM     23  H   UNL     1       1.834   1.096   6.160  0.00  0.00    +0.177 HD
BRANCH  22  24
ATOM     24  N   UNL     1       2.447   3.021   6.588  0.00  0.00    -0.188 NA
ATOM     25  C   UNL     1       2.262   2.940   7.882  0.00  0.00    +0.136 C 
BRANCH  25  26
ATOM     26  C   UNL     1       1.671   1.796   8.436  0.00  0.00    +0.000 C 
ATOM     27  C   UNL     1       1.319   1.591   9.768  0.00  0.00    +0.004 A 
ATOM     28  C   UNL     1       1.429   2.401  10.920  0.00  0.00    +0.010 A 
ATOM     29  C   UNL     1       0.993   1.932  12.116  0.00  0.00    +0.001 A 
ATOM     30  C   UNL     1       0.433   0.657  12.244  0.00  0.00    +0.002 A 
ATOM     31  C   UNL     1       0.296  -0.173  11.183  0.00  0.00    +0.026 A 
ATOM     32  C   UNL     1       0.729   0.247   9.897  0.00  0.00    +0.043 A 
ATOM     33  N   UNL     1       0.708  -0.361   8.729  0.00  0.00    -0.380 N 
ATOM     34  C   UNL     1       1.277   0.528   7.711  0.00  0.00    +0.150 C 
ATOM     35  H   UNL     1       0.366  -1.254   8.567  0.00  0.00    +0.160 HD
ENDBRANCH  25  26
ENDBRANCH  22  24
ENDBRANCH  19  20
ENDBRANCH   1  19
TORSDOF 7
