REMARK  Name = ZINC44174320
REMARK  9 active torsions:
REMARK  status: ('A' for Active; 'I' for Inactive)
REMARK    1  A    between atoms: C_1  and  C_2
REMARK    2  A    between atoms: C_2  and  C_3
REMARK    3  A    between atoms: C_7  and  C_39
REMARK    4  A    between atoms: C_8  and  N_9
REMARK    5  A    between atoms: C_14  and  C_31
REMARK    6  A    between atoms: C_17  and  C_22
REMARK    7  A    between atoms: C_17  and  C_28
REMARK    8  A    between atoms: C_32  and  C_33
REMARK    9  A    between atoms: C_39  and  C_40
REMARK                            x       y       z     vdW  Elec       q    Type
REMARK                         _______ _______ _______ _____ _____    ______ ____
ROOT
ATOM      1  N   UNL     1       2.773  -0.376  -0.079  0.00  0.00    -0.209 N 
ATOM      2  C   UNL     1       3.219   0.905   0.135  0.00  0.00    +0.229 C 
ATOM      3  O   UNL     1       2.873   1.914  -0.440  0.00  0.00    -0.275 OA
ATOM      4  C   UNL     1       4.189   0.785   1.195  0.00  0.00    +0.077 C 
ATOM      5  C   UNL     1       4.853   1.600   2.227  0.00  0.00    -0.034 C 
ATOM      6  N   UNL     1       5.545   0.555   3.057  0.00  0.00    +0.398 N 
ATOM      7  C   UNL     1       4.830  -0.740   2.851  0.00  0.00    +0.074 C 
ATOM      8  C   UNL     1       3.558  -0.368   2.073  0.00  0.00    +0.090 C 
ATOM      9  C   UNL     1       3.138  -1.235   0.919  0.00  0.00    +0.229 C 
ATOM     10  O   UNL     1       3.128  -2.447   0.881  0.00  0.00    -0.275 OA
ATOM     11  H   UNL     1       6.506   0.465   2.762  0.00  0.00    -0.083 HD
ATOM     12  H   UNL     1       5.510   0.814   4.032  0.00  0.00    -0.083 HD
ENDROOT
BRANCH   1  18
ATOM     13  C   UNL     1       0.633  -0.691  -1.159  0.00  0.00    -0.026 A 
ATOM     14  C   UNL     1      -0.106  -1.064  -2.264  0.00  0.00    +0.005 A 
ATOM     15  C   UNL     1       0.533  -1.511  -3.406  0.00  0.00    +0.001 A 
ATOM     16  C   UNL     1       1.913  -1.585  -3.446  0.00  0.00    +0.005 A 
ATOM     17  C   UNL     1       2.658  -1.213  -2.344  0.00  0.00    -0.026 A 
ATOM     18  C   UNL     1       2.020  -0.759  -1.197  0.00  0.00    +0.050 A 
BRANCH  13  20
ATOM     19  C   UNL     1      -0.135   1.324   0.066  0.00  0.00    +0.009 C 
ATOM     20  C   UNL     1      -0.063  -0.204   0.086  0.00  0.00    +0.033 C 
ENDBRANCH  13  20
BRANCH  17  21
ATOM     21  C   UNL     1       4.162  -1.294  -2.387  0.00  0.00    +0.033 C 
ATOM     22  C   UNL     1       4.618  -2.627  -1.790  0.00  0.00    +0.009 C 
ENDBRANCH  17  21
ENDBRANCH   1  18
BRANCH   7  23
ATOM     23  C   UNL     1       5.692  -1.694   2.065  0.00  0.00    -0.047 A 
ATOM     24  C   UNL     1       5.460  -3.054   2.136  0.00  0.00    +0.003 A 
ATOM     25  C   UNL     1       6.251  -3.929   1.415  0.00  0.00    +0.000 A 
ATOM     26  C   UNL     1       7.274  -3.443   0.623  0.00  0.00    +0.000 A 
ATOM     27  C   UNL     1       7.505  -2.082   0.551  0.00  0.00    +0.000 A 
ATOM     28  C   UNL     1       6.712  -1.207   1.268  0.00  0.00    +0.003 A 
ENDBRANCH   7  23
BRANCH   7  29
ATOM     29  C   UNL     1       4.456  -1.346   4.179  0.00  0.00    +0.350 C 
ATOM     30  O   UNL     1       4.771  -0.786   5.215  0.00  0.00    -0.248 OA
ATOM     31  O   UNL     1       3.839  -2.397   4.217  0.00  0.00    -0.248 OA
ENDBRANCH   7  29
BRANCH   5  32
ATOM     32  C   UNL     1       3.842   2.357   3.048  0.00  0.00    -0.041 C 
ATOM     33  C   UNL     1       3.932   3.675   3.160  0.00  0.00    +0.002 C 
BRANCH  33  34
ATOM     34  C   UNL     1       3.014   4.405   4.060  0.00  0.00    -0.025 A 
ATOM     35  C   UNL     1       2.054   3.709   4.796  0.00  0.00    +0.008 A 
ATOM     36  C   UNL     1       1.200   4.396   5.634  0.00  0.00    +0.001 A 
ATOM     37  C   UNL     1       1.293   5.772   5.744  0.00  0.00    +0.000 A 
ATOM     38  C   UNL     1       2.241   6.468   5.016  0.00  0.00    +0.001 A 
ATOM     39  C   UNL     1       3.106   5.792   4.180  0.00  0.00    +0.008 A 
ENDBRANCH  33  34
ENDBRANCH   5  32
TORSDOF 7
