REMARK  Name = ZINC09731340
REMARK  12 active torsions:
REMARK  status: ('A' for Active; 'I' for Inactive)
REMARK    1  A    between atoms: C_1  and  C_2
REMARK    2  A    between atoms: C_2  and  C_34
REMARK    3  A    between atoms: C_6  and  C_21
REMARK    4  A    between atoms: N_9  and  C_10
REMARK    5  A    between atoms: C_10  and  C_11
REMARK    6  A    between atoms: C_11  and  O_12
REMARK    7  A    between atoms: O_12  and  C_13
REMARK    8  A    between atoms: C_15  and  C_19
REMARK    9  A    between atoms: C_15  and  C_20
REMARK   10  A    between atoms: C_23  and  O_29
REMARK   11  A    between atoms: C_24  and  O_28
REMARK   12  A    between atoms: O_29  and  C_30
REMARK                            x       y       z     vdW  Elec       q    Type
REMARK                         _______ _______ _______ _____ _____    ______ ____
ROOT
ATOM      1  C   UNL     1      -2.608   2.038  -3.539  0.00  0.00    +0.011 C 
ATOM      2  C   UNL     1      -3.751   3.008  -3.847  0.00  0.00    -0.023 C 
ATOM      3  C   UNL     1      -4.796   2.941  -2.732  0.00  0.00    +0.058 C 
ATOM      4  C   UNL     1      -4.171   3.360  -1.425  0.00  0.00    +0.019 C 
ATOM      5  C   UNL     1      -3.163   4.256  -1.390  0.00  0.00    +0.024 C 
ATOM      6  C   UNL     1      -2.556   4.674  -0.076  0.00  0.00    +0.089 C 
ATOM      7  C   UNL     1      -3.481   4.365   1.072  0.00  0.00    +0.024 C 
ATOM      8  C   UNL     1      -4.469   3.459   0.933  0.00  0.00    +0.019 C 
ATOM      9  N   UNL     1      -4.649   2.819  -0.263  0.00  0.00    -0.304 N 
ATOM     10  C   UNL     1      -5.389   3.127   2.080  0.00  0.00    +0.058 C 
ATOM     11  C   UNL     1      -5.564   4.360   2.970  0.00  0.00    -0.023 C 
ATOM     12  C   UNL     1      -4.184   4.799   3.470  0.00  0.00    +0.086 C 
ATOM     13  C   UNL     1      -3.289   5.049   2.287  0.00  0.00    +0.162 C 
ATOM     14  O   UNL     1      -2.385   5.855   2.383  0.00  0.00    -0.292 OA
ATOM     15  C   UNL     1      -6.200   5.492   2.160  0.00  0.00    +0.011 C 
ATOM     16  C   UNL     1      -6.456   4.011   4.162  0.00  0.00    +0.011 C 
ATOM     17  C   UNL     1      -2.653   4.821  -2.573  0.00  0.00    +0.162 C 
ATOM     18  O   UNL     1      -1.750   5.631  -2.506  0.00  0.00    -0.292 OA
ATOM     19  C   UNL     1      -3.206   4.439  -3.919  0.00  0.00    +0.086 C 
ATOM     20  C   UNL     1      -4.399   2.638  -5.182  0.00  0.00    +0.011 C 
ENDROOT
BRANCH   6  21
ATOM     21  C   UNL     1      -1.256   3.937   0.124  0.00  0.00    -0.031 A 
ATOM     22  C   UNL     1      -0.064   4.636   0.148  0.00  0.00    +0.054 A 
ATOM     23  C   UNL     1       1.132   3.961   0.331  0.00  0.00    +0.163 A 
ATOM     24  C   UNL     1       1.129   2.578   0.492  0.00  0.00    +0.173 A 
ATOM     25  C   UNL     1      -0.070   1.883   0.469  0.00  0.00    +0.063 A 
ATOM     26  C   UNL     1      -1.260   2.564   0.280  0.00  0.00    +0.023 A 
ATOM     27 BR   UNL     1      -0.079   0.005   0.686  0.00  0.00    -0.046 Br
BRANCH  24  28
ATOM     28  O   UNL     1       2.300   1.911   0.673  0.00  0.00    -0.503 OA
ATOM     29  H   UNL     1       2.716   1.615  -0.148  0.00  0.00    +0.292 HD
ENDBRANCH  24  28
BRANCH  23  30
ATOM     30  O   UNL     1       2.306   4.647   0.354  0.00  0.00    -0.491 OA
ATOM     31  C   UNL     1       2.233   6.063   0.182  0.00  0.00    +0.277 C 
ENDBRANCH  23  30
ENDBRANCH   6  21
BRANCH   9  32
ATOM     32  C   UNL     1      -5.362   1.539  -0.299  0.00  0.00    +0.138 C 
BRANCH  32  33
ATOM     33  C   UNL     1      -6.863   1.795  -0.450  0.00  0.00    +0.178 C 
BRANCH  33  34
ATOM     34  O   UNL     1      -7.120   2.381  -1.728  0.00  0.00    -0.381 OA
ATOM     35  C   UNL     1      -8.508   2.558  -2.018  0.00  0.00    +0.194 C 
ENDBRANCH  33  34
ENDBRANCH  32  33
ENDBRANCH   9  32
TORSDOF 6
