REMARK  Name = ZINC14963663
REMARK  6 active torsions:
REMARK  status: ('A' for Active; 'I' for Inactive)
REMARK    1  A    between atoms: C_8  and  C_10
REMARK    2  A    between atoms: C_16  and  C_18
REMARK    3  A    between atoms: C_18  and  C_19
REMARK    4  A    between atoms: C_19  and  C_20
REMARK    5  A    between atoms: C_20  and  C_26
REMARK    6  A    between atoms: C_26  and  C_27
REMARK                            x       y       z     vdW  Elec       q    Type
REMARK                         _______ _______ _______ _____ _____    ______ ____
ROOT
ATOM      1  C   UNL     1       9.364   3.323   1.797  0.00  0.00    +0.078 C 
ATOM      2  C   UNL     1       9.633   1.956   1.163  0.00  0.00    +0.032 C 
ATOM      3  C   UNL     1       9.092   1.947  -0.270  0.00  0.00    +0.108 C 
ATOM      4  N   UNL     1       7.674   2.331  -0.242  0.00  0.00    -0.301 N 
ATOM      5  C   UNL     1       7.295   3.587   0.419  0.00  0.00    +0.108 C 
ATOM      6  C   UNL     1       7.856   3.575   1.849  0.00  0.00    +0.032 C 
ATOM      7  C   UNL     1       6.740   1.549  -0.818  0.00  0.00    +0.216 C 
ATOM      8  O   UNL     1       7.066   0.517  -1.365  0.00  0.00    -0.276 OA
ENDROOT
BRANCH   1  16
ATOM      9  C   UNL     1      11.164   2.885   7.500  0.00  0.00    +0.002 A 
ATOM     10  C   UNL     1      11.994   3.943   7.156  0.00  0.00    +0.004 A 
ATOM     11  C   UNL     1      11.974   4.461   5.878  0.00  0.00    +0.048 A 
ATOM     12  C   UNL     1      11.118   3.924   4.928  0.00  0.00    +0.155 A 
ATOM     13  C   UNL     1      10.278   2.854   5.272  0.00  0.00    +0.110 A 
ATOM     14  C   UNL     1      10.309   2.339   6.569  0.00  0.00    +0.031 A 
ATOM     15  N   UNL     1       9.562   2.550   4.155  0.00  0.00    -0.213 NA
ATOM     16  C   UNL     1       9.925   3.347   3.196  0.00  0.00    +0.200 A 
ATOM     17  O   UNL     1      10.868   4.199   3.630  0.00  0.00    -0.439 OA
ENDBRANCH   1  16
BRANCH   7  18
ATOM     18  C   UNL     1       5.289   1.956  -0.781  0.00  0.00    +0.098 C 
BRANCH  18  19
ATOM     19  C   UNL     1       4.445   0.902  -1.500  0.00  0.00    +0.035 C 
BRANCH  19  20
ATOM     20  C   UNL     1       2.973   1.316  -1.463  0.00  0.00    +0.042 C 
ATOM     21  C   UNL     1       2.107   0.278  -2.211  0.00  0.00    +0.035 C 
ATOM     22  C   UNL     1       1.028   1.176  -2.860  0.00  0.00    +0.098 C 
ATOM     23  C   UNL     1       1.692   2.531  -2.972  0.00  0.00    +0.214 C 
ATOM     24  O   UNL     1       1.299   3.442  -3.670  0.00  0.00    -0.276 OA
ATOM     25  N   UNL     1       2.780   2.579  -2.184  0.00  0.00    -0.309 N 
ATOM     26  H   UNL     1       3.363   3.350  -2.103  0.00  0.00    +0.149 HD
BRANCH  20  27
ATOM     27  C   UNL     1       2.499   1.455  -0.015  0.00  0.00    +0.100 C 
BRANCH  27  28
ATOM     28  C   UNL     1       1.057   1.892   0.002  0.00  0.00    +0.107 A 
ATOM     29  C   UNL     1      -0.013   1.076   0.008  0.00  0.00    +0.045 A 
ATOM     30  C   UNL     1      -1.159   1.903   0.017  0.00  0.00    +0.041 A 
ATOM     31  C   UNL     1      -0.722   3.175   0.026  0.00  0.00    +0.195 A 
ATOM     32  O   UNL     1       0.621   3.162   0.013  0.00  0.00    -0.468 OA
ENDBRANCH  27  28
ENDBRANCH  20  27
ENDBRANCH  19  20
ENDBRANCH  18  19
ENDBRANCH   7  18
TORSDOF 6
