REMARK  Name = ZINC15902315
REMARK  4 active torsions:
REMARK  status: ('A' for Active; 'I' for Inactive)
REMARK    1  A    between atoms: C_9  and  C_12
REMARK    2  A    between atoms: N_14  and  N_15
REMARK    3  A    between atoms: C_16  and  C_18
REMARK    4  A    between atoms: C_18  and  C_19
REMARK                            x       y       z     vdW  Elec       q    Type
REMARK                         _______ _______ _______ _____ _____    ______ ____
ROOT
ATOM      1  N   UNL     1       6.355  -4.522  -0.120  0.00  0.00    -0.234 N 
ATOM      2  C   UNL     1       6.599  -5.807   0.203  0.00  0.00    +0.230 C 
ATOM      3  O   UNL     1       5.770  -6.448   0.813  0.00  0.00    -0.274 OA
ATOM      4  H   UNL     1       7.018  -4.010  -0.608  0.00  0.00    +0.173 HD
ENDROOT
BRANCH   1   7
ATOM      5  C   UNL     1       4.898  -2.639  -0.071  0.00  0.00    +0.273 C 
ATOM      6  O   UNL     1       5.727  -1.999  -0.682  0.00  0.00    -0.270 OA
ATOM      7  N   UNL     1       5.143  -3.925   0.251  0.00  0.00    -0.231 N 
ATOM      8  H   UNL     1       4.479  -4.437   0.740  0.00  0.00    +0.173 HD
BRANCH   5  17
ATOM      9  C   UNL     1      -0.017   1.378   0.010  0.00  0.00    +0.004 A 
ATOM     10  C   UNL     1       1.170   2.088   0.002  0.00  0.00    +0.004 A 
ATOM     11  C   UNL     1       2.378   1.418  -0.014  0.00  0.00    +0.049 A 
ATOM     12  C   UNL     1       2.404   0.031  -0.023  0.00  0.00    +0.163 A 
ATOM     13  C   UNL     1       1.212  -0.683  -0.013  0.00  0.00    +0.162 A 
ATOM     14  C   UNL     1       0.002  -0.004   0.002  0.00  0.00    +0.049 A 
ATOM     15  O   UNL     1       1.214  -2.044  -0.013  0.00  0.00    -0.484 OA
ATOM     16  C   UNL     1       2.434  -2.685  -0.404  0.00  0.00    +0.283 C 
ATOM     17  C   UNL     1       3.594  -1.997   0.328  0.00  0.00    +0.297 C 
ATOM     18  O   UNL     1       3.602  -0.615  -0.043  0.00  0.00    -0.472 OA
ENDBRANCH   5  17
ENDBRANCH   1   7
BRANCH   2  19
ATOM     19  C   UNL     1       7.903  -6.449  -0.196  0.00  0.00    +0.104 C 
BRANCH  19  20
ATOM     20  C   UNL     1       7.926  -7.901   0.287  0.00  0.00    -0.020 C 
ATOM     21  C   UNL     1       7.787  -7.933   1.810  0.00  0.00    +0.011 C 
ATOM     22  C   UNL     1       7.809  -9.384   2.294  0.00  0.00    -0.010 C 
ATOM     23  C   UNL     1       9.133 -10.036   1.889  0.00  0.00    +0.007 C 
ATOM     24  C   UNL     1       9.272 -10.004   0.366  0.00  0.00    -0.010 C 
ATOM     25  C   UNL     1       9.249  -8.552  -0.118  0.00  0.00    +0.011 C 
ATOM     26  C   UNL     1       8.111 -10.771  -0.269  0.00  0.00    +0.007 C 
ATOM     27  C   UNL     1       6.787 -10.119   0.136  0.00  0.00    -0.010 C 
ATOM     28  C   UNL     1       6.648 -10.152   1.659  0.00  0.00    +0.007 C 
ATOM     29  C   UNL     1       6.764  -8.668  -0.347  0.00  0.00    +0.011 C 
ENDBRANCH  19  20
ENDBRANCH   2  19
TORSDOF 4
