REMARK  Name = ZINC17859922
REMARK  6 active torsions:
REMARK  status: ('A' for Active; 'I' for Inactive)
REMARK    1  A    between atoms: C_1  and  C_2
REMARK    2  A    between atoms: C_3  and  C_26
REMARK    3  A    between atoms: C_9  and  S_11
REMARK    4  A    between atoms: S_11  and  C_12
REMARK    5  A    between atoms: C_12  and  C_13
REMARK    6  A    between atoms: C_13  and  C_15
REMARK                            x       y       z     vdW  Elec       q    Type
REMARK                         _______ _______ _______ _____ _____    ______ ____
ROOT
ATOM      1  S   UNL     1       4.804   4.492  -0.022  0.00  0.00    -0.080 S 
ENDROOT
BRANCH   1  10
ATOM      2  C   UNL     1       1.765  -1.736  -0.024  0.00  0.00    +0.045 C 
ATOM      3  C   UNL     1       1.309  -0.300  -0.012  0.00  0.00    -0.026 A 
ATOM      4  C   UNL     1       0.002  -0.004   0.002  0.00  0.00    -0.008 A 
ATOM      5  S   UNL     1      -0.022   1.779   0.012  0.00  0.00    -0.073 S 
ATOM      6  C   UNL     1       1.726   2.079  -0.003  0.00  0.00    +0.117 A 
ATOM      7  C   UNL     1       2.282   0.780  -0.015  0.00  0.00    +0.075 A 
ATOM      8  C   UNL     1       3.701   0.723  -0.030  0.00  0.00    +0.261 A 
ATOM      9  N   UNL     1       4.394   1.847  -0.032  0.00  0.00    -0.301 N 
ATOM     10  C   UNL     1       3.808   3.038  -0.020  0.00  0.00    +0.170 A 
ATOM     11  N   UNL     1       2.487   3.154  -0.006  0.00  0.00    -0.216 NA
ATOM     12  O   UNL     1       4.337  -0.473  -0.042  0.00  0.00    -0.267 OA
ATOM     13  C   UNL     1      -1.169  -0.953   0.008  0.00  0.00    +0.052 C 
ATOM     14  H   UNL     1       5.494   1.814  -0.044  0.00  0.00    +0.171 HD
ENDBRANCH   1  10
BRANCH   1  15
ATOM     15  C   UNL     1       6.452   3.744  -0.043  0.00  0.00    +0.157 C 
BRANCH  15  16
ATOM     16  C   UNL     1       7.497   4.830  -0.047  0.00  0.00    +0.175 C 
ATOM     17  O   UNL     1       7.160   5.996  -0.038  0.00  0.00    -0.291 OA
BRANCH  16  18
ATOM     18  C   UNL     1       8.873   4.489  -0.063  0.00  0.00    +0.043 A 
ATOM     19  C   UNL     1       9.412   3.221  -0.070  0.00  0.00    +0.095 A 
ATOM     20  N   UNL     1      10.756   3.300  -0.088  0.00  0.00    -0.360 N 
ATOM     21  H   UNL     1      11.361   2.382  -0.103  0.00  0.00    +0.165 HD
ATOM     22  C   UNL     1      11.167   4.618  -0.085  0.00  0.00    +0.047 A 
ATOM     23  C   UNL     1      10.017   5.423  -0.070  0.00  0.00    +0.010 A 
ATOM     24  C   UNL     1      10.133   6.809  -0.064  0.00  0.00    +0.011 A 
ATOM     25  C   UNL     1      11.384   7.389  -0.074  0.00  0.00    +0.001 A 
ATOM     26  C   UNL     1      12.522   6.596  -0.089  0.00  0.00    +0.002 A 
ATOM     27  C   UNL     1      12.420   5.222  -0.095  0.00  0.00    +0.026 A 
ENDBRANCH  16  18
ENDBRANCH  15  16
ENDBRANCH   1  15
TORSDOF 4
