REMARK  Name = ZINC64605609
REMARK  9 active torsions:
REMARK  status: ('A' for Active; 'I' for Inactive)
REMARK    1  A    between atoms: C_1  and  C_2
REMARK    2  A    between atoms: C_7  and  N_8
REMARK    3  A    between atoms: N_8  and  S_9
REMARK    4  A    between atoms: S_9  and  C_12
REMARK    5  A    between atoms: C_15  and  C_18
REMARK    6  A    between atoms: C_18  and  C_19
REMARK    7  A    between atoms: C_18  and  C_20
REMARK    8  A    between atoms: N_21  and  C_26
REMARK    9  A    between atoms: N_24  and  C_25
REMARK                            x       y       z     vdW  Elec       q    Type
REMARK                         _______ _______ _______ _____ _____    ______ ____
ROOT
ATOM      1  N   UNL     1       0.025  -0.007   2.417  0.00  0.00    -0.216 N 
ATOM      2  H   UNL     1      -0.522   0.789   2.509  0.00  0.00    +0.174 HD
ENDROOT
BRANCH   1   9
ATOM      3  C   UNL     1       0.152   1.692   0.143  0.00  0.00    +0.046 C 
ATOM      4  C   UNL     1       0.258   0.193   0.021  0.00  0.00    -0.026 A 
ATOM      5  C   UNL     1       0.427  -0.386  -1.220  0.00  0.00    +0.033 A 
ATOM      6  C   UNL     1       0.525  -1.764  -1.333  0.00  0.00    +0.070 A 
ATOM      7  C   UNL     1       0.452  -2.565  -0.191  0.00  0.00    +0.071 A 
ATOM      8  C   UNL     1       0.282  -1.981   1.054  0.00  0.00    +0.052 A 
ATOM      9  C   UNL     1       0.191  -0.601   1.161  0.00  0.00    +0.053 A 
ATOM     10  N   UNL     1       0.580  -3.886  -0.616  0.00  0.00    -0.295 N 
ATOM     11  C   UNL     1       0.724  -3.889  -1.955  0.00  0.00    +0.330 A 
ATOM     12  O   UNL     1       0.859  -4.885  -2.642  0.00  0.00    -0.246 OA
ATOM     13  N   UNL     1       0.695  -2.626  -2.418  0.00  0.00    -0.295 N 
ATOM     14  C   UNL     1       0.821  -2.223  -3.821  0.00  0.00    +0.154 C 
ATOM     15  C   UNL     1       0.561  -5.069   0.247  0.00  0.00    +0.154 C 
ENDBRANCH   1   9
BRANCH   1  16
ATOM     16  S   UNL     1       0.764  -0.662   3.746  0.00  0.00    +0.072 S 
ATOM     17  O   UNL     1       0.520   0.228   4.827  0.00  0.00    -0.150 OA
ATOM     18  O   UNL     1       0.387  -2.032   3.787  0.00  0.00    -0.150 OA
BRANCH  16  19
ATOM     19  C   UNL     1       2.500  -0.627   3.448  0.00  0.00    +0.109 A 
ATOM     20  C   UNL     1       3.117  -1.696   2.826  0.00  0.00    +0.029 A 
ATOM     21  C   UNL     1       4.479  -1.669   2.591  0.00  0.00    +0.006 A 
ATOM     22  C   UNL     1       5.224  -0.571   2.979  0.00  0.00    -0.045 A 
ATOM     23  C   UNL     1       4.608   0.499   3.600  0.00  0.00    +0.006 A 
ATOM     24  C   UNL     1       3.245   0.473   3.830  0.00  0.00    +0.029 A 
BRANCH  22  25
ATOM     25  C   UNL     1       6.710  -0.541   2.725  0.00  0.00    +0.013 C 
ATOM     26  C   UNL     1       7.050   0.652   1.829  0.00  0.00    +0.012 C 
ATOM     27  C   UNL     1       7.452  -0.408   4.056  0.00  0.00    +0.012 C 
ENDBRANCH  22  25
ENDBRANCH  16  19
ENDBRANCH   1  16
TORSDOF 4
