REMARK  Name = ZINC16949280
REMARK  5 active torsions:
REMARK  status: ('A' for Active; 'I' for Inactive)
REMARK    1  A    between atoms: C_4  and  O_29
REMARK    2  A    between atoms: C_5  and  C_7
REMARK    3  A    between atoms: C_10  and  C_12
REMARK    4  A    between atoms: C_10  and  O_16
REMARK    5  A    between atoms: C_19  and  C_22
REMARK                            x       y       z     vdW  Elec       q    Type
REMARK                         _______ _______ _______ _____ _____    ______ ____
ROOT
ATOM      1  C   UNL     1      -4.360  -3.507  -0.359  0.00  0.00    +0.075 C 
ATOM      2  N   UNL     1      -3.544  -2.512  -0.284  0.00  0.00    -0.179 NA
ATOM      3  N   UNL     1      -2.204  -2.881  -0.188  0.00  0.00    -0.160 N 
ATOM      4  C   UNL     1      -2.113  -4.350  -0.190  0.00  0.00    +0.256 C 
ATOM      5  C   UNL     1      -3.582  -4.803  -0.307  0.00  0.00    +0.124 C 
ATOM      6  C   UNL     1      -1.133  -2.009  -0.099  0.00  0.00    +0.184 A 
ATOM      7  N   UNL     1      -1.129  -0.687  -0.086  0.00  0.00    -0.223 NA
ATOM      8  C   UNL     1       0.002  -0.004   0.002  0.00  0.00    +0.080 A 
ATOM      9  C   UNL     1       1.188  -0.678   0.090  0.00  0.00    +0.077 A 
ATOM     10  S   UNL     1       0.613  -2.370   0.035  0.00  0.00    -0.058 S 
ENDROOT
BRANCH   8  11
ATOM     11  C   UNL     1      -0.018   1.479   0.010  0.00  0.00    +0.001 A 
ATOM     12  C   UNL     1      -1.233   2.162   0.020  0.00  0.00    +0.013 A 
ATOM     13  C   UNL     1      -1.247   3.541   0.032  0.00  0.00    +0.039 A 
ATOM     14  C   UNL     1      -0.056   4.248   0.025  0.00  0.00    +0.123 A 
ATOM     15  C   UNL     1       1.155   3.574   0.010  0.00  0.00    +0.039 A 
ATOM     16  C   UNL     1       1.178   2.194   0.003  0.00  0.00    +0.013 A 
ATOM     17  F   UNL     1      -0.074   5.599   0.032  0.00  0.00    -0.205 F 
ENDBRANCH   8  11
BRANCH   1  22
ATOM     18  C   UNL     1      -7.982  -4.443  -0.645  0.00  0.00    +0.001 A 
ATOM     19  C   UNL     1      -8.583  -3.196  -0.683  0.00  0.00    +0.004 A 
ATOM     20  C   UNL     1      -7.816  -2.048  -0.617  0.00  0.00    +0.046 A 
ATOM     21  C   UNL     1      -6.438  -2.139  -0.506  0.00  0.00    +0.126 A 
ATOM     22  C   UNL     1      -5.825  -3.399  -0.472  0.00  0.00    +0.039 A 
ATOM     23  C   UNL     1      -6.612  -4.551  -0.540  0.00  0.00    +0.013 A 
BRANCH  21  24
ATOM     24  O   UNL     1      -5.684  -1.011  -0.436  0.00  0.00    -0.506 OA
ATOM     25  H   UNL     1      -5.397  -0.675  -1.296  0.00  0.00    +0.292 HD
ENDBRANCH  21  24
ENDBRANCH   1  22
BRANCH   4  26
ATOM     26  C   UNL     1      -1.497  -4.853   1.117  0.00  0.00    +0.438 C 
ATOM     27  F   UNL     1      -2.276  -4.422   2.196  0.00  0.00    -0.166 F 
ATOM     28  F   UNL     1      -1.453  -6.252   1.104  0.00  0.00    -0.166 F 
ATOM     29  F   UNL     1      -0.200  -4.347   1.246  0.00  0.00    -0.166 F 
ENDBRANCH   4  26
BRANCH   4  30
ATOM     30  O   UNL     1      -1.353  -4.805  -1.311  0.00  0.00    -0.363 OA
ATOM     31  H   UNL     1      -0.438  -4.492  -1.319  0.00  0.00    +0.212 HD
ENDBRANCH   4  30
TORSDOF 5
