REMARK  Name = ZINC43730383
REMARK  8 active torsions:
REMARK  status: ('A' for Active; 'I' for Inactive)
REMARK    1  A    between atoms: C_1  and  C_2
REMARK    2  A    between atoms: C_2  and  C_3
REMARK    3  A    between atoms: C_3  and  C_4
REMARK    4  A    between atoms: C_4  and  N_5
REMARK    5  A    between atoms: C_17  and  C_24
REMARK    6  A    between atoms: C_26  and  C_28
REMARK    7  A    between atoms: C_28  and  C_29
REMARK    8  A    between atoms: C_28  and  C_30
REMARK                            x       y       z     vdW  Elec       q    Type
REMARK                         _______ _______ _______ _____ _____    ______ ____
ROOT
ATOM      1  N   UNL     1       1.471  -2.526   2.420  0.00  0.00    -0.242 N 
ATOM      2  C   UNL     1       2.791  -2.744   2.436  0.00  0.00    +0.227 C 
ATOM      3  O   UNL     1       3.541  -2.571   1.499  0.00  0.00    -0.275 OA
ATOM      4  C   UNL     1       3.202  -3.240   3.804  0.00  0.00    +0.107 C 
ATOM      5  C   UNL     1       1.864  -3.264   4.593  0.00  0.00    +0.122 C 
ATOM      6  C   UNL     1       0.852  -2.782   3.578  0.00  0.00    +0.228 C 
ATOM      7  O   UNL     1      -0.336  -2.651   3.781  0.00  0.00    -0.275 OA
ATOM      8  C   UNL     1       1.633  -4.744   4.920  0.00  0.00    +0.136 C 
ATOM      9  C   UNL     1       0.671  -5.379   3.957  0.00  0.00    +0.004 A 
ATOM     10  C   UNL     1       0.670  -5.547   2.591  0.00  0.00    +0.011 A 
ATOM     11  C   UNL     1      -0.387  -6.192   1.973  0.00  0.00    -0.050 A 
ATOM     12  C   UNL     1      -1.441  -6.667   2.732  0.00  0.00    +0.005 A 
ATOM     13  C   UNL     1      -1.444  -6.501   4.101  0.00  0.00    +0.024 A 
ATOM     14  C   UNL     1      -0.384  -5.853   4.731  0.00  0.00    +0.039 A 
ATOM     15  N   UNL     1      -0.161  -5.567   6.080  0.00  0.00    -0.283 N 
ATOM     16  C   UNL     1       1.002  -4.916   6.275  0.00  0.00    +0.243 C 
ATOM     17  O   UNL     1       1.453  -4.542   7.337  0.00  0.00    -0.273 OA
ATOM     18  C   UNL     1      -0.390  -6.375   0.477  0.00  0.00    +0.044 C 
ATOM     19  N   UNL     1       2.961  -5.383   4.861  0.00  0.00    -0.295 NA
ATOM     20  C   UNL     1       3.643  -4.715   3.696  0.00  0.00    +0.070 C 
ATOM     21  H   UNL     1      -0.772  -5.809   6.793  0.00  0.00    +0.155 HD
ATOM     22  H   UNL     1       3.474  -5.234   5.717  0.00  0.00    +0.124 HD
ENDROOT
BRANCH  20  23
ATOM     23  C   UNL     1       5.162  -4.829   3.832  0.00  0.00    +0.001 C 
ATOM     24  C   UNL     1       5.576  -6.298   3.723  0.00  0.00    +0.009 C 
ATOM     25  C   UNL     1       5.835  -4.025   2.718  0.00  0.00    +0.009 C 
ENDBRANCH  20  23
BRANCH   1  26
ATOM     26  C   UNL     1       0.763  -2.041   1.233  0.00  0.00    +0.116 C 
BRANCH  26  27
ATOM     27  C   UNL     1       0.742  -0.511   1.242  0.00  0.00    +0.019 C 
BRANCH  27  29
ATOM     28  C   UNL     1      -0.019   1.526   0.010  0.00  0.00    +0.004 C 
ATOM     29  C   UNL     1       0.002  -0.004   0.002  0.00  0.00    -0.002 C 
ENDBRANCH  27  29
ENDBRANCH  26  27
ENDBRANCH   1  26
TORSDOF 4
