REMARK  Name = ZINC13501254
REMARK  10 active torsions:
REMARK  status: ('A' for Active; 'I' for Inactive)
REMARK    1  A    between atoms: C_1  and  C_2
REMARK    2  A    between atoms: C_12  and  C_14
REMARK    3  A    between atoms: C_14  and  N_73
REMARK    4  A    between atoms: C_15  and  C_16
REMARK    5  A    between atoms: C_15  and  N_73
REMARK    6  A    between atoms: C_16  and  C_17
REMARK    7  A    between atoms: C_17  and  O_18
REMARK    8  A    between atoms: C_19  and  C_25
REMARK    9  A    between atoms: C_19  and  N_73
REMARK   10  A    between atoms: N_29  and  C_30
REMARK                            x       y       z     vdW  Elec       q    Type
REMARK                         _______ _______ _______ _____ _____    ______ ____
ROOT
ATOM      1  N   UNL     1       1.522  -3.105   5.300  0.00  0.00    +0.391 N 
ATOM      2  H   UNL     1       1.747  -3.388   4.339  0.00  0.00    -0.080 HD
ENDROOT
BRANCH   1   3
ATOM      3  C   UNL     1       1.974  -4.162   6.229  0.00  0.00    -0.002 C 
ATOM      4  C   UNL     1       3.481  -4.364   6.056  0.00  0.00    -0.004 C 
ATOM      5  C   UNL     1       3.779  -4.758   4.609  0.00  0.00    -0.001 C 
ATOM      6  C   UNL     1       3.049  -6.061   4.274  0.00  0.00    -0.000 C 
ATOM      7  C   UNL     1       1.542  -5.859   4.447  0.00  0.00    -0.001 C 
ATOM      8  C   UNL     1       1.244  -5.464   5.895  0.00  0.00    -0.004 C 
BRANCH   3   9
ATOM      9  C   UNL     1       1.680  -3.773   7.655  0.00  0.00    +0.141 A 
ATOM     10  N   UNL     1       1.106  -2.667   8.063  0.00  0.00    -0.115 NA
ATOM     11  N   UNL     1       1.033  -2.707   9.348  0.00  0.00    -0.023 NA
ATOM     12  N   UNL     1       1.545  -3.809   9.772  0.00  0.00    -0.044 NA
ATOM     13  N   UNL     1       1.950  -4.497   8.758  0.00  0.00    -0.228 N 
BRANCH  13  14
ATOM     14  C   UNL     1       2.588  -5.815   8.799  0.00  0.00    +0.111 C 
ATOM     15  C   UNL     1       1.637  -6.821   9.450  0.00  0.00    +0.027 C 
ATOM     16  C   UNL     1       2.304  -8.198   9.492  0.00  0.00    +0.002 C 
ATOM     17  C   UNL     1       3.595  -8.115  10.309  0.00  0.00    +0.000 C 
ATOM     18  C   UNL     1       4.546  -7.108   9.658  0.00  0.00    +0.002 C 
ATOM     19  C   UNL     1       3.880  -5.731   9.615  0.00  0.00    +0.027 C 
ENDBRANCH  13  14
ENDBRANCH   3   9
ENDBRANCH   1   3
BRANCH   1  20
ATOM     20  C   UNL     1       0.060  -2.921   5.417  0.00  0.00    -0.036 C 
BRANCH  20  32
ATOM     21  C   UNL     1      -2.241   1.293   0.929  0.00  0.00    +0.046 C 
ATOM     22  C   UNL     1      -1.841  -0.156   0.821  0.00  0.00    -0.026 A 
ATOM     23  C   UNL     1      -1.941  -0.813  -0.387  0.00  0.00    +0.005 A 
ATOM     24  C   UNL     1      -1.569  -2.145  -0.501  0.00  0.00    +0.001 A 
ATOM     25  C   UNL     1      -1.110  -2.835   0.585  0.00  0.00    +0.010 A 
ATOM     26  C   UNL     1      -1.007  -2.191   1.822  0.00  0.00    -0.001 A 
ATOM     27  C   UNL     1      -1.376  -0.837   1.940  0.00  0.00    +0.052 A 
ATOM     28  N   UNL     1      -1.272  -0.206   3.162  0.00  0.00    -0.322 N 
ATOM     29  H   UNL     1      -1.526   0.726   3.242  0.00  0.00    +0.169 HD
ATOM     30  C   UNL     1      -0.822  -0.865   4.244  0.00  0.00    +0.251 A 
ATOM     31  O   UNL     1      -0.743  -0.276   5.308  0.00  0.00    -0.268 OA
ATOM     32  C   UNL     1      -0.439  -2.222   4.179  0.00  0.00    +0.001 A 
ATOM     33  C   UNL     1      -0.518  -2.899   3.007  0.00  0.00    +0.017 A 
ENDBRANCH  20  32
ENDBRANCH   1  20
BRANCH   1  34
ATOM     34  C   UNL     1       2.216  -1.836   5.602  0.00  0.00    -0.075 C 
BRANCH  34  35
ATOM     35  C   UNL     1       2.242  -0.980   4.335  0.00  0.00    +0.009 C 
BRANCH  35  36
ATOM     36  C   UNL     1       3.092   0.268   4.579  0.00  0.00    +0.154 C 
BRANCH  36  37
ATOM     37  O   UNL     1       3.116   1.068   3.395  0.00  0.00    -0.395 OA
ATOM     38  H   UNL     1       3.638   1.878   3.478  0.00  0.00    +0.209 HD
ENDBRANCH  36  37
ENDBRANCH  35  36
ENDBRANCH  34  35
ENDBRANCH   1  34
TORSDOF 9
