REMARK  Name = ZINC22758896
REMARK  4 active torsions:
REMARK  status: ('A' for Active; 'I' for Inactive)
REMARK    1  A    between atoms: C_6  and  S_11
REMARK    2  A    between atoms: S_11  and  N_14
REMARK    3  A    between atoms: N_14  and  C_15
REMARK    4  A    between atoms: C_19  and  C_21
REMARK                            x       y       z     vdW  Elec       q    Type
REMARK                         _______ _______ _______ _____ _____    ______ ____
ROOT
ATOM      1  C   UNL     1       0.087   4.109   0.148  0.00  0.00    +0.049 A 
ATOM      2  C   UNL     1      -0.882   3.454   0.898  0.00  0.00    +0.027 A 
ATOM      3  C   UNL     1      -0.824   2.084   1.066  0.00  0.00    +0.041 A 
ATOM      4  C   UNL     1       0.206   1.357   0.498  0.00  0.00    +0.134 A 
ATOM      5  C   UNL     1       1.185   2.007  -0.257  0.00  0.00    +0.056 A 
ATOM      6  C   UNL     1       1.121   3.389  -0.430  0.00  0.00    +0.039 A 
ATOM      7  F   UNL     1       0.262   0.018   0.669  0.00  0.00    -0.205 F 
ENDROOT
BRANCH   5   8
ATOM      8  C   UNL     1       2.284   1.232  -0.872  0.00  0.00    +0.167 A 
ATOM      9  N   UNL     1       3.028   0.321  -0.281  0.00  0.00    -0.129 NA
ATOM     10  N   UNL     1       3.883  -0.152  -1.119  0.00  0.00    -0.134 NA
ATOM     11  C   UNL     1       3.732   0.420  -2.280  0.00  0.00    +0.134 A 
ATOM     12  N   UNL     1       2.719   1.319  -2.162  0.00  0.00    -0.311 N 
ATOM     13  C   UNL     1       2.215   2.207  -3.211  0.00  0.00    +0.125 C 
ATOM     14  C   UNL     1       2.447   1.558  -4.578  0.00  0.00    +0.022 C 
ATOM     15  C   UNL     1       3.822   1.958  -5.112  0.00  0.00    +0.002 C 
ATOM     16  C   UNL     1       4.924   1.468  -4.177  0.00  0.00    +0.008 C 
ATOM     17  C   UNL     1       4.511   0.143  -3.540  0.00  0.00    +0.076 C 
ENDBRANCH   5   8
BRANCH   1  18
ATOM     18  N   UNL     1       0.020   5.495  -0.023  0.00  0.00    -0.216 N 
ATOM     19  H   UNL     1       0.720   6.151   0.515  0.00  0.00    +0.174 HD
BRANCH  18  20
ATOM     20  S   UNL     1      -1.114   6.150  -1.038  0.00  0.00    +0.072 S 
ATOM     21  O   UNL     1      -2.367   5.599  -0.656  0.00  0.00    -0.150 OA
ATOM     22  O   UNL     1      -0.874   7.550  -1.065  0.00  0.00    -0.150 OA
BRANCH  20  28
ATOM     23  C   UNL     1      -0.483   2.976  -6.915  0.00  0.00    +0.001 A 
ATOM     24  C   UNL     1      -1.304   2.235  -6.067  0.00  0.00    +0.001 A 
ATOM     25  C   UNL     1      -1.587   2.671  -4.809  0.00  0.00    +0.008 A 
ATOM     26  C   UNL     1      -1.045   3.885  -4.355  0.00  0.00    -0.016 A 
ATOM     27  C   UNL     1      -1.315   4.368  -3.063  0.00  0.00    +0.037 A 
ATOM     28  C   UNL     1      -0.772   5.548  -2.658  0.00  0.00    +0.109 A 
ATOM     29  C   UNL     1       0.045   6.292  -3.508  0.00  0.00    +0.029 A 
ATOM     30  C   UNL     1       0.333   5.853  -4.764  0.00  0.00    +0.010 A 
ATOM     31  C   UNL     1      -0.210   4.639  -5.218  0.00  0.00    -0.018 A 
ATOM     32  C   UNL     1       0.060   4.157  -6.510  0.00  0.00    +0.008 A 
ENDBRANCH  20  28
ENDBRANCH  18  20
ENDBRANCH   1  18
TORSDOF 4
