REMARK  Name = ZINC39926570
REMARK  6 active torsions:
REMARK  status: ('A' for Active; 'I' for Inactive)
REMARK    1  A    between atoms: C_7  and  C_10
REMARK    2  A    between atoms: N_11  and  N_12
REMARK    3  A    between atoms: C_13  and  C_15
REMARK    4  A    between atoms: C_15  and  S_16
REMARK    5  A    between atoms: S_16  and  C_17
REMARK    6  A    between atoms: N_28  and  C_29
REMARK                            x       y       z     vdW  Elec       q    Type
REMARK                         _______ _______ _______ _____ _____    ______ ____
ROOT
ATOM      1  C   UNL     1      -0.976 -11.078   0.063  0.00  0.00    +0.227 C 
ATOM      2  N   UNL     1      -1.964 -10.722   1.087  0.00  0.00    -0.317 N 
ATOM      3  C   UNL     1      -2.493  -9.436   1.089  0.00  0.00    +0.041 A 
ATOM      4  C   UNL     1      -2.929  -8.829   2.255  0.00  0.00    +0.024 A 
ATOM      5  C   UNL     1      -3.457  -7.553   2.206  0.00  0.00    +0.002 A 
ATOM      6  C   UNL     1      -3.553  -6.876   1.000  0.00  0.00    +0.001 A 
ATOM      7  C   UNL     1      -3.119  -7.465  -0.170  0.00  0.00    +0.015 A 
ATOM      8  C   UNL     1      -2.580  -8.749  -0.134  0.00  0.00    +0.058 A 
ATOM      9  C   UNL     1      -2.080  -9.411  -1.352  0.00  0.00    +0.255 C 
ATOM     10  O   UNL     1      -2.287  -8.920  -2.445  0.00  0.00    -0.269 OA
ATOM     11  N   UNL     1      -1.392 -10.561  -1.241  0.00  0.00    -0.239 N 
ATOM     12  H   UNL     1      -2.244 -11.371   1.751  0.00  0.00    +0.149 HD
ENDROOT
BRANCH  11  13
ATOM     13  C   UNL     1      -1.068 -11.276  -2.399  0.00  0.00    +0.039 A 
ATOM     14  C   UNL     1       0.117 -11.009  -3.072  0.00  0.00    +0.025 A 
ATOM     15  C   UNL     1       0.435 -11.716  -4.215  0.00  0.00    +0.022 A 
ATOM     16  C   UNL     1      -0.427 -12.689  -4.691  0.00  0.00    +0.041 A 
ATOM     17  C   UNL     1      -1.609 -12.956  -4.022  0.00  0.00    +0.022 A 
ATOM     18  C   UNL     1      -1.929 -12.257  -2.875  0.00  0.00    +0.025 A 
ATOM     19 CL   UNL     1      -0.025 -13.575  -6.128  0.00  0.00    -0.084 Cl
ENDBRANCH  11  13
BRANCH   1  20
ATOM     20  S   UNL     1       0.632 -10.365   0.506  0.00  0.00    -0.110 S 
BRANCH  20  21
ATOM     21  C   UNL     1       0.322  -8.579   0.554  0.00  0.00    +0.170 C 
BRANCH  21  23
ATOM     22  N   UNL     1       1.604  -6.513   1.012  0.00  0.00    -0.206 N 
ATOM     23  C   UNL     1       1.595  -7.857   0.916  0.00  0.00    +0.242 C 
ATOM     24  O   UNL     1       2.611  -8.486   1.121  0.00  0.00    -0.273 OA
ATOM     25  H   UNL     1       0.791  -6.010   0.848  0.00  0.00    +0.177 HD
BRANCH  22  27
ATOM     26  C   UNL     1       2.796  -4.537   1.441  0.00  0.00    +0.136 C 
ATOM     27  N   UNL     1       2.787  -5.843   1.348  0.00  0.00    -0.188 NA
BRANCH  26  34
ATOM     28  C   UNL     1       3.737  -0.134   1.978  0.00  0.00    +0.001 A 
ATOM     29  C   UNL     1       5.069   0.115   2.321  0.00  0.00    +0.002 A 
ATOM     30  C   UNL     1       5.969  -0.886   2.471  0.00  0.00    +0.026 A 
ATOM     31  C   UNL     1       5.564  -2.234   2.279  0.00  0.00    +0.043 A 
ATOM     32  N   UNL     1       6.232  -3.365   2.363  0.00  0.00    -0.380 N 
ATOM     33  C   UNL     1       5.331  -4.483   2.064  0.00  0.00    +0.150 C 
ATOM     34  C   UNL     1       3.980  -3.865   1.777  0.00  0.00    +0.000 C 
ATOM     35  C   UNL     1       4.158  -2.491   1.917  0.00  0.00    +0.004 A 
ATOM     36  C   UNL     1       3.278  -1.395   1.778  0.00  0.00    +0.010 A 
ATOM     37  H   UNL     1       7.172  -3.446   2.587  0.00  0.00    +0.160 HD
ENDBRANCH  26  34
ENDBRANCH  22  27
ENDBRANCH  21  23
ENDBRANCH  20  21
ENDBRANCH   1  20
TORSDOF 6
