REMARK  Name = ZINC04913783
REMARK  5 active torsions:
REMARK  status: ('A' for Active; 'I' for Inactive)
REMARK    1  A    between atoms: C_1  and  C_2
REMARK    2  A    between atoms: C_2  and  O_3
REMARK    3  A    between atoms: O_3  and  C_4
REMARK    4  A    between atoms: C_9  and  C_10
REMARK    5  A    between atoms: C_25  and  O_26
REMARK                            x       y       z     vdW  Elec       q    Type
REMARK                         _______ _______ _______ _____ _____    ______ ____
ROOT
ATOM      1  C   UNL     1      -1.292  -0.776   0.011  0.00  0.00    +0.063 C 
ATOM      2  C   UNL     1      -2.110  -0.413  -1.229  0.00  0.00    +0.109 C 
ATOM      3  C   UNL     1      -2.645   0.988  -1.094  0.00  0.00    +0.218 C 
ATOM      4  O   UNL     1      -2.743   1.692  -2.077  0.00  0.00    -0.275 OA
ATOM      5  N   UNL     1      -3.015   1.466   0.108  0.00  0.00    -0.285 N 
ATOM      6  C   UNL     1      -2.902   0.673   1.251  0.00  0.00    +0.045 A 
ATOM      7  C   UNL     1      -2.075  -0.429   1.252  0.00  0.00    -0.018 A 
ATOM      8  C   UNL     1      -1.958  -1.225   2.389  0.00  0.00    +0.007 A 
ATOM      9  C   UNL     1      -2.651  -0.937   3.525  0.00  0.00    +0.012 A 
ATOM     10  C   UNL     1      -3.502   0.179   3.563  0.00  0.00    +0.025 A 
ATOM     11  C   UNL     1      -3.633   0.996   2.414  0.00  0.00    +0.007 A 
ATOM     12  C   UNL     1      -4.486   2.111   2.453  0.00  0.00    +0.010 A 
ATOM     13  C   UNL     1      -5.175   2.396   3.592  0.00  0.00    +0.004 A 
ATOM     14  C   UNL     1      -5.050   1.597   4.725  0.00  0.00    +0.046 A 
ATOM     15  C   UNL     1      -4.231   0.503   4.726  0.00  0.00    +0.125 A 
ATOM     16  H   UNL     1      -3.364   2.368   0.181  0.00  0.00    +0.155 HD
ENDROOT
BRANCH   1  22
ATOM     17  C   UNL     1       1.213  -0.680  -0.013  0.00  0.00    +0.124 A 
ATOM     18  C   UNL     1       2.403   0.034  -0.021  0.00  0.00    +0.046 A 
ATOM     19  C   UNL     1       2.379   1.415  -0.013  0.00  0.00    +0.004 A 
ATOM     20  C   UNL     1       1.170   2.086   0.002  0.00  0.00    +0.001 A 
ATOM     21  C   UNL     1      -0.017   1.377   0.010  0.00  0.00    +0.008 A 
ATOM     22  C   UNL     1       0.002  -0.004   0.002  0.00  0.00    +0.002 A 
BRANCH  17  23
ATOM     23  O   UNL     1       1.234  -2.039  -0.021  0.00  0.00    -0.492 OA
BRANCH  23  25
ATOM     24  C   UNL     1       2.341  -4.187  -0.044  0.00  0.00    +0.048 C 
ATOM     25  C   UNL     1       2.517  -2.668  -0.037  0.00  0.00    +0.225 C 
ENDBRANCH  23  25
ENDBRANCH  17  23
ENDBRANCH   1  22
BRANCH  15  26
ATOM     26  O   UNL     1      -4.120  -0.267   5.839  0.00  0.00    -0.506 OA
ATOM     27  H   UNL     1      -4.759  -0.992   5.881  0.00  0.00    +0.292 HD
ENDBRANCH  15  26
TORSDOF 4
