REMARK  Name = ZINC44401844
REMARK  12 active torsions:
REMARK  status: ('A' for Active; 'I' for Inactive)
REMARK    1  A    between atoms: C_1  and  C_2
REMARK    2  A    between atoms: C_2  and  C_3
REMARK    3  A    between atoms: C_3  and  C_5
REMARK    4  A    between atoms: C_3  and  N_29
REMARK    5  A    between atoms: C_5  and  C_6
REMARK    6  A    between atoms: C_7  and  C_20
REMARK    7  A    between atoms: N_9  and  C_19
REMARK    8  A    between atoms: C_10  and  S_11
REMARK    9  A    between atoms: S_11  and  C_12
REMARK   10  A    between atoms: C_20  and  S_21
REMARK   11  A    between atoms: S_21  and  C_22
REMARK   12  A    between atoms: C_25  and  C_28
REMARK                            x       y       z     vdW  Elec       q    Type
REMARK                         _______ _______ _______ _____ _____    ______ ____
ROOT
ATOM      1  C   UNL     1       1.697  -2.337  -2.217  0.00  0.00    +0.007 A 
ATOM      2  C   UNL     1       1.332  -2.327  -3.566  0.00  0.00    +0.077 A 
ATOM      3  N   UNL     1       2.421  -2.356  -4.290  0.00  0.00    -0.174 NA
ATOM      4  N   UNL     1       3.526  -2.385  -3.429  0.00  0.00    -0.260 N 
ATOM      5  C   UNL     1       3.058  -2.367  -2.153  0.00  0.00    +0.103 A 
ATOM      6  C   UNL     1       4.934  -2.422  -3.831  0.00  0.00    +0.173 C 
ENDROOT
BRANCH   1   7
ATOM      7  C   UNL     1       0.754  -2.311  -1.043  0.00  0.00    +0.023 C 
BRANCH   7   8
ATOM      8  C   UNL     1       0.293  -3.735  -0.727  0.00  0.00    -0.071 C 
BRANCH   8   9
ATOM      9  N   UNL     1       1.444  -4.537  -0.291  0.00  0.00    +0.380 N 
ATOM     10  H   UNL     1       1.868  -4.105   0.517  0.00  0.00    -0.090 HD
ATOM     11  H   UNL     1       1.135  -5.467  -0.052  0.00  0.00    -0.090 HD
ATOM     12  H   UNL     1       2.120  -4.589  -1.038  0.00  0.00    -0.090 HD
ENDBRANCH   8   9
BRANCH   8  14
ATOM     13  C   UNL     1      -1.306  -5.106   0.618  0.00  0.00    +0.002 C 
ATOM     14  C   UNL     1      -0.754  -3.697   0.388  0.00  0.00    -0.019 C 
ENDBRANCH   8  14
ENDBRANCH   7   8
ENDBRANCH   1   7
BRANCH   5  15
ATOM     15  S   UNL     1       4.032  -2.384  -0.685  0.00  0.00    -0.070 S 
BRANCH  15  16
ATOM     16  C   UNL     1       4.946  -3.886  -0.798  0.00  0.00    +0.014 A 
ATOM     17  C   UNL     1       4.782  -4.720  -1.897  0.00  0.00    +0.016 A 
ATOM     18  C   UNL     1       5.500  -5.897  -1.982  0.00  0.00    +0.016 A 
ATOM     19  C   UNL     1       6.382  -6.246  -0.975  0.00  0.00    +0.018 A 
ATOM     20  C   UNL     1       6.547  -5.417   0.121  0.00  0.00    +0.016 A 
ATOM     21  C   UNL     1       5.837  -4.236   0.209  0.00  0.00    +0.016 A 
ATOM     22 BR   UNL     1       7.363  -7.858  -1.095  0.00  0.00    -0.050 Br
ENDBRANCH  15  16
ENDBRANCH   5  15
BRANCH   2  23
ATOM     23  C   UNL     1      -0.078  -2.291  -4.097  0.00  0.00    +0.132 C 
BRANCH  23  24
ATOM     24  S   UNL     1      -0.554  -0.573  -4.431  0.00  0.00    -0.119 S 
BRANCH  24  25
ATOM     25  C   UNL     1      -2.204  -0.698  -5.037  0.00  0.00    +0.008 A 
ATOM     26  C   UNL     1      -2.813  -1.942  -5.146  0.00  0.00    +0.015 A 
ATOM     27  C   UNL     1      -4.107  -2.036  -5.621  0.00  0.00    +0.004 A 
ATOM     28  C   UNL     1      -4.795  -0.894  -5.988  0.00  0.00    -0.050 A 
ATOM     29  C   UNL     1      -4.191   0.345  -5.882  0.00  0.00    +0.004 A 
ATOM     30  C   UNL     1      -2.901   0.448  -5.402  0.00  0.00    +0.015 A 
ATOM     31  C   UNL     1      -6.206  -1.001  -6.506  0.00  0.00    +0.044 C 
ENDBRANCH  24  25
ENDBRANCH  23  24
ENDBRANCH   2  23
TORSDOF 9
