REMARK  Name = ZINC39670106
REMARK  6 active torsions:
REMARK  status: ('A' for Active; 'I' for Inactive)
REMARK    1  A    between atoms: C_1  and  C_2
REMARK    2  A    between atoms: C_7  and  C_11
REMARK    3  A    between atoms: C_11  and  N_12
REMARK    4  A    between atoms: C_13  and  C_15
REMARK    5  A    between atoms: C_26  and  C_28
REMARK    6  A    between atoms: C_32  and  C_34
REMARK                            x       y       z     vdW  Elec       q    Type
REMARK                         _______ _______ _______ _____ _____    ______ ____
ROOT
ATOM      1  C   UNL     1       2.835  -7.697   3.156  0.00  0.00    +0.100 C 
ATOM      2  C   UNL     1       3.906  -7.862   2.055  0.00  0.00    +0.121 C 
ATOM      3  N   UNL     1       4.790  -8.942   2.552  0.00  0.00    -0.296 N 
ATOM      4  C   UNL     1       3.866  -9.918   3.177  0.00  0.00    +0.115 C 
ATOM      5  C   UNL     1       2.811  -9.049   3.890  0.00  0.00    -0.004 C 
ATOM      6  C   UNL     1       1.432  -9.690   3.771  0.00  0.00    -0.010 C 
ATOM      7  C   UNL     1       1.416 -11.004   4.557  0.00  0.00    -0.082 C 
ATOM      8  N   UNL     1       1.734 -10.738   5.965  0.00  0.00    +0.379 N 
ATOM      9  C   UNL     1       3.098 -10.208   6.079  0.00  0.00    -0.082 C 
ATOM     10  C   UNL     1       3.185  -8.860   5.357  0.00  0.00    -0.010 C 
ATOM     11  C   UNL     1       6.133  -9.019   2.458  0.00  0.00    +0.247 C 
ATOM     12  O   UNL     1       6.767  -8.075   2.029  0.00  0.00    -0.270 OA
ATOM     13  H   UNL     1       1.081 -10.064   6.335  0.00  0.00    -0.086 HD
ATOM     14  H   UNL     1       1.663 -11.595   6.493  0.00  0.00    -0.086 HD
ENDROOT
BRANCH  11  15
ATOM     15  C   UNL     1       6.833 -10.252   2.876  0.00  0.00    +0.037 A 
ATOM     16  C   UNL     1       6.139 -11.461   2.954  0.00  0.00    +0.014 A 
ATOM     17  C   UNL     1       6.798 -12.607   3.345  0.00  0.00    +0.016 A 
ATOM     18  C   UNL     1       8.146 -12.561   3.660  0.00  0.00    +0.021 A 
ATOM     19  C   UNL     1       8.840 -11.366   3.584  0.00  0.00    -0.036 A 
ATOM     20  C   UNL     1       8.193 -10.213   3.188  0.00  0.00    +0.017 A 
ATOM     21  C   UNL     1      10.306 -11.325   3.928  0.00  0.00    +0.045 C 
ATOM     22 BR   UNL     1       9.041 -14.138   4.196  0.00  0.00    -0.050 Br
ENDBRANCH  11  15
BRANCH   1  24
ATOM     23  N   UNL     1       0.587  -6.666   3.210  0.00  0.00    -0.309 N 
ATOM     24  C   UNL     1       1.489  -7.410   2.541  0.00  0.00    +0.219 C 
ATOM     25  O   UNL     1       1.218  -7.850   1.444  0.00  0.00    -0.275 OA
ATOM     26  H   UNL     1       0.804  -6.314   4.088  0.00  0.00    +0.149 HD
BRANCH  23  27
ATOM     27  C   UNL     1      -0.721  -6.387   2.612  0.00  0.00    +0.159 C 
BRANCH  27  34
ATOM     28  C   UNL     1      -5.101  -3.578   7.883  0.00  0.00    +0.044 C 
ATOM     29  C   UNL     1      -4.168  -3.681   6.704  0.00  0.00    -0.046 A 
ATOM     30  C   UNL     1      -3.746  -2.520   6.035  0.00  0.00    +0.021 A 
ATOM     31  C   UNL     1      -2.909  -2.609   4.979  0.00  0.00    +0.093 A 
ATOM     32  N   UNL     1      -2.463  -3.824   4.547  0.00  0.00    -0.308 N 
ATOM     33  C   UNL     1      -1.630  -4.194   3.526  0.00  0.00    +0.115 A 
ATOM     34  C   UNL     1      -1.535  -5.541   3.557  0.00  0.00    +0.051 A 
ATOM     35  N   UNL     1      -2.284  -5.998   4.563  0.00  0.00    -0.342 N 
ATOM     36  C   UNL     1      -2.857  -4.974   5.179  0.00  0.00    +0.116 A 
ATOM     37  C   UNL     1      -3.726  -4.898   6.287  0.00  0.00    +0.048 A 
ATOM     38  H   UNL     1      -2.392  -6.931   4.805  0.00  0.00    +0.167 HD
ENDBRANCH  27  34
ENDBRANCH  23  27
ENDBRANCH   1  24
TORSDOF 4
