REMARK  Name = ZINC38635682
REMARK  7 active torsions:
REMARK  status: ('A' for Active; 'I' for Inactive)
REMARK    1  A    between atoms: C_3  and  S_8
REMARK    2  A    between atoms: C_6  and  N_7
REMARK    3  A    between atoms: S_8  and  C_9
REMARK    4  A    between atoms: C_9  and  C_10
REMARK    5  A    between atoms: C_14  and  C_16
REMARK    6  A    between atoms: C_14  and  C_22
REMARK    7  A    between atoms: C_16  and  N_17
REMARK                            x       y       z     vdW  Elec       q    Type
REMARK                         _______ _______ _______ _____ _____    ______ ____
ROOT
ATOM      1  C   UNL     1       6.556   1.681  -0.052  0.00  0.00    +0.158 C 
ATOM      2  C   UNL     1       7.669   0.606  -0.135  0.00  0.00    +0.196 C 
ATOM      3  O   UNL     1       8.784   1.289   0.488  0.00  0.00    -0.341 OA
ATOM      4  C   UNL     1       8.194   2.075   1.537  0.00  0.00    +0.217 C 
ATOM      5  O   UNL     1       6.821   2.334   1.206  0.00  0.00    -0.337 OA
ENDROOT
BRANCH   4   6
ATOM      6  C   UNL     1       8.934   3.381   1.668  0.00  0.00    +0.031 A 
ATOM      7  C   UNL     1       9.545   3.713   2.863  0.00  0.00    +0.012 A 
ATOM      8  C   UNL     1      10.223   4.910   2.985  0.00  0.00    +0.020 A 
ATOM      9  C   UNL     1      10.293   5.778   1.909  0.00  0.00    +0.042 A 
ATOM     10  C   UNL     1       9.683   5.447   0.713  0.00  0.00    +0.040 A 
ATOM     11  C   UNL     1       9.008   4.246   0.591  0.00  0.00    +0.051 A 
ATOM     12 CL   UNL     1       8.247   3.827  -0.912  0.00  0.00    -0.083 Cl
ATOM     13 CL   UNL     1      11.146   7.283   2.062  0.00  0.00    -0.083 Cl
ENDBRANCH   4   6
BRANCH   1  14
ATOM     14  C   UNL     1       5.173   1.027  -0.042  0.00  0.00    +0.108 C 
BRANCH  14  15
ATOM     15  S   UNL     1       3.896   2.315  -0.023  0.00  0.00    -0.123 S 
BRANCH  15  18
ATOM     16  C   UNL     1      -0.017   1.385   0.010  0.00  0.00    +0.024 A 
ATOM     17  C   UNL     1       1.169   2.091   0.002  0.00  0.00    +0.016 A 
ATOM     18  C   UNL     1       2.382   1.413  -0.013  0.00  0.00    +0.008 A 
ATOM     19  C   UNL     1       2.400   0.024  -0.021  0.00  0.00    +0.016 A 
ATOM     20  C   UNL     1       1.214  -0.682  -0.013  0.00  0.00    +0.024 A 
ATOM     21  C   UNL     1       0.002  -0.004   0.002  0.00  0.00    +0.025 A 
BRANCH  21  22
ATOM     22  N   UNL     1      -1.201  -0.720   0.010  0.00  0.00    -0.358 N 
ATOM     23  H   UNL     1      -2.047  -0.247   0.020  0.00  0.00    +0.142 HD
ATOM     24  H   UNL     1      -1.188  -1.690   0.004  0.00  0.00    +0.142 HD
ENDBRANCH  21  22
ENDBRANCH  15  18
ENDBRANCH  14  15
ENDBRANCH   1  14
BRANCH   4  25
ATOM     25  C   UNL     1       8.272   1.309   2.859  0.00  0.00    +0.193 C 
BRANCH  25  26
ATOM     26  N   UNL     1       7.560   0.035   2.727  0.00  0.00    -0.333 N 
ATOM     27  C   UNL     1       6.233  -0.184   2.985  0.00  0.00    +0.104 A 
ATOM     28  C   UNL     1       5.998  -1.486   2.735  0.00  0.00    +0.101 A 
ATOM     29  N   UNL     1       7.149  -2.047   2.336  0.00  0.00    -0.352 N 
ATOM     30  C   UNL     1       8.088  -1.140   2.324  0.00  0.00    +0.173 A 
ATOM     31  H   UNL     1       7.265  -2.978   2.091  0.00  0.00    +0.166 HD
ENDBRANCH  25  26
ENDBRANCH   4  25
TORSDOF 7
