REMARK  Name = ZINC39672022
REMARK  6 active torsions:
REMARK  status: ('A' for Active; 'I' for Inactive)
REMARK    1  A    between atoms: C_1  and  C_2
REMARK    2  A    between atoms: C_5  and  C_9
REMARK    3  A    between atoms: C_7  and  C_8
REMARK    4  A    between atoms: C_13  and  C_22
REMARK    5  A    between atoms: N_24  and  C_25
REMARK    6  A    between atoms: C_25  and  C_26
REMARK                            x       y       z     vdW  Elec       q    Type
REMARK                         _______ _______ _______ _____ _____    ______ ____
ROOT
ATOM      1  C   UNL     1       0.061  -4.249  -0.022  0.00  0.00    +0.247 C 
ATOM      2  O   UNL     1       0.183  -4.860   1.022  0.00  0.00    -0.270 OA
ATOM      3  N   UNL     1      -0.038  -4.918  -1.188  0.00  0.00    -0.296 N 
ATOM      4  C   UNL     1      -0.063  -4.356  -2.558  0.00  0.00    +0.121 C 
ATOM      5  C   UNL     1       0.782  -5.339  -3.399  0.00  0.00    +0.100 C 
ATOM      6  C   UNL     1       0.722  -6.668  -2.627  0.00  0.00    -0.004 C 
ATOM      7  C   UNL     1      -0.140  -6.384  -1.388  0.00  0.00    +0.115 C 
ATOM      8  C   UNL     1       2.123  -7.095  -2.200  0.00  0.00    -0.010 C 
ATOM      9  C   UNL     1       2.044  -8.447  -1.484  0.00  0.00    -0.082 C 
ATOM     10  N   UNL     1       1.458  -9.446  -2.386  0.00  0.00    +0.379 N 
ATOM     11  C   UNL     1       0.078  -9.075  -2.718  0.00  0.00    -0.082 C 
ATOM     12  C   UNL     1       0.074  -7.750  -3.485  0.00  0.00    -0.010 C 
ATOM     13  H   UNL     1       2.005  -9.494  -3.233  0.00  0.00    -0.086 HD
ATOM     14  H   UNL     1       1.463 -10.348  -1.934  0.00  0.00    -0.086 HD
ENDROOT
BRANCH   1  19
ATOM     15  C   UNL     1      -0.093   1.504   0.015  0.00  0.00    +0.044 C 
ATOM     16  C   UNL     1      -0.053  -0.003   0.006  0.00  0.00    -0.047 A 
ATOM     17  C   UNL     1      -0.640  -0.701  -1.035  0.00  0.00    +0.004 A 
ATOM     18  C   UNL     1      -0.606  -2.080  -1.050  0.00  0.00    +0.013 A 
ATOM     19  C   UNL     1       0.022  -2.771  -0.013  0.00  0.00    +0.037 A 
ATOM     20  C   UNL     1       0.612  -2.061   1.034  0.00  0.00    +0.016 A 
ATOM     21  C   UNL     1       0.576  -0.682   1.034  0.00  0.00    -0.047 A 
ATOM     22  C   UNL     1       1.217   0.087   2.161  0.00  0.00    +0.044 C 
ENDBRANCH   1  19
BRANCH   5  23
ATOM     23  C   UNL     1       0.186  -5.501  -4.774  0.00  0.00    +0.219 C 
ATOM     24  O   UNL     1      -0.997  -5.297  -4.949  0.00  0.00    -0.275 OA
ATOM     25  N   UNL     1       0.966  -5.873  -5.808  0.00  0.00    -0.309 N 
ATOM     26  H   UNL     1       1.912  -6.036  -5.667  0.00  0.00    +0.149 HD
BRANCH  25  27
ATOM     27  C   UNL     1       0.387  -6.030  -7.144  0.00  0.00    +0.161 C 
BRANCH  27  28
ATOM     28  C   UNL     1       1.463  -6.448  -8.112  0.00  0.00    +0.077 A 
ATOM     29  C   UNL     1       1.745  -7.718  -8.477  0.00  0.00    +0.117 A 
ATOM     30  N   UNL     1       2.782  -7.661  -9.368  0.00  0.00    -0.306 N 
ATOM     31  C   UNL     1       3.466  -8.625 -10.052  0.00  0.00    +0.092 A 
ATOM     32  C   UNL     1       4.471  -8.292 -10.888  0.00  0.00    +0.018 A 
ATOM     33  C   UNL     1       4.828  -6.945 -11.066  0.00  0.00    +0.005 A 
ATOM     34  C   UNL     1       4.154  -5.974 -10.391  0.00  0.00    +0.047 A 
ATOM     35  C   UNL     1       3.107  -6.338  -9.522  0.00  0.00    +0.138 A 
ATOM     36  N   UNL     1       2.293  -5.625  -8.757  0.00  0.00    -0.231 NA
ENDBRANCH  27  28
ENDBRANCH  25  27
ENDBRANCH   5  23
TORSDOF 4
