REMARK  Name = ZINC02032446
REMARK  7 active torsions:
REMARK  status: ('A' for Active; 'I' for Inactive)
REMARK    1  A    between atoms: C_1  and  O_2
REMARK    2  A    between atoms: O_2  and  C_3
REMARK    3  A    between atoms: C_8  and  O_9
REMARK    4  A    between atoms: C_14  and  C_16
REMARK    5  A    between atoms: C_24  and  O_28
REMARK    6  A    between atoms: C_25  and  O_27
REMARK    7  A    between atoms: O_28  and  C_29
REMARK                            x       y       z     vdW  Elec       q    Type
REMARK                         _______ _______ _______ _____ _____    ______ ____
ROOT
ATOM      1  C   UNL     1      -3.712   6.736  -1.400  0.00  0.00    +0.162 A 
ATOM      2  C   UNL     1      -2.333   6.742  -1.306  0.00  0.00    +0.054 A 
ATOM      3  C   UNL     1      -1.555   6.093  -2.260  0.00  0.00    -0.033 A 
ATOM      4  C   UNL     1      -2.163   5.425  -3.294  0.00  0.00    -0.040 A 
ATOM      5  C   UNL     1      -3.549   5.426  -3.401  0.00  0.00    +0.053 A 
ATOM      6  C   UNL     1      -4.326   6.077  -2.460  0.00  0.00    +0.159 A 
ATOM      7  C   UNL     1      -1.390   4.645  -4.325  0.00  0.00    +0.035 C 
ATOM      8  C   UNL     1      -0.264   5.493  -4.922  0.00  0.00    +0.005 C 
ATOM      9  C   UNL     1       1.004   5.217  -4.118  0.00  0.00    +0.001 C 
ATOM     10  C   UNL     1       0.638   4.939  -2.659  0.00  0.00    +0.013 C 
ATOM     11  C   UNL     1      -0.057   6.174  -2.089  0.00  0.00    +0.050 C 
ENDROOT
BRANCH  11  12
ATOM     12  C   UNL     1       0.266   6.288  -0.622  0.00  0.00    -0.036 C 
ATOM     13  C   UNL     1      -0.068   5.315   0.216  0.00  0.00    -0.022 C 
ATOM     14  C   UNL     1       0.207   5.472   1.687  0.00  0.00    +0.028 C 
ATOM     15  C   UNL     1       1.678   5.221   2.011  0.00  0.00    +0.009 C 
ATOM     16  C   UNL     1       2.575   5.922   0.995  0.00  0.00    +0.036 C 
ATOM     17  C   UNL     1       2.071   7.313   0.721  0.00  0.00    -0.036 A 
ATOM     18  C   UNL     1       0.958   7.485  -0.101  0.00  0.00    -0.015 A 
ATOM     19  C   UNL     1       0.499   8.765  -0.401  0.00  0.00    +0.057 A 
ATOM     20  C   UNL     1       1.152   9.866   0.127  0.00  0.00    +0.162 A 
ATOM     21  C   UNL     1       2.253   9.689   0.962  0.00  0.00    +0.159 A 
ATOM     22  C   UNL     1       2.709   8.412   1.256  0.00  0.00    +0.053 A 
BRANCH  21  23
ATOM     23  O   UNL     1       2.884  10.771   1.489  0.00  0.00    -0.503 OA
ATOM     24  H   UNL     1       2.530  11.055   2.343  0.00  0.00    +0.292 HD
ENDBRANCH  21  23
BRANCH  20  25
ATOM     25  O   UNL     1       0.714  11.120  -0.164  0.00  0.00    -0.491 OA
ATOM     26  C   UNL     1      -0.420  11.228  -1.026  0.00  0.00    +0.277 C 
ENDBRANCH  20  25
ENDBRANCH  11  12
BRANCH   1  28
ATOM     27  C   UNL     1      -3.764   8.127   0.529  0.00  0.00    +0.277 C 
ATOM     28  O   UNL     1      -4.464   7.371  -0.462  0.00  0.00    -0.491 OA
ENDBRANCH   1  28
BRANCH   6  29
ATOM     29  O   UNL     1      -5.682   6.072  -2.571  0.00  0.00    -0.503 OA
ATOM     30  H   UNL     1      -6.037   6.811  -3.084  0.00  0.00    +0.292 HD
ENDBRANCH   6  29
TORSDOF 5
