REMARK  Name = ZINC05447380
REMARK  6 active torsions:
REMARK  status: ('A' for Active; 'I' for Inactive)
REMARK    1  A    between atoms: C_8  and  C_10
REMARK    2  A    between atoms: C_10  and  C_23
REMARK    3  A    between atoms: N_11  and  N_12
REMARK    4  A    between atoms: N_12  and  C_13
REMARK    5  A    between atoms: C_16  and  S_19
REMARK    6  A    between atoms: S_19  and  C_20
REMARK                            x       y       z     vdW  Elec       q    Type
REMARK                         _______ _______ _______ _____ _____    ______ ____
ROOT
ATOM      1  C   UNL     1       1.505   7.279   0.026  0.00  0.00    +0.190 C 
ATOM      2  N   UNL     1       0.521   8.152   0.040  0.00  0.00    -0.169 NA
ENDROOT
BRANCH   1  10
ATOM      3  C   UNL     1      -1.220   1.760   0.017  0.00  0.00    +0.002 A 
ATOM      4  C   UNL     1      -0.013   1.076   0.008  0.00  0.00    +0.001 A 
ATOM      5  C   UNL     1       1.171   1.790   0.001  0.00  0.00    +0.017 A 
ATOM      6  C   UNL     1       1.131   3.163   0.008  0.00  0.00    +0.040 A 
ATOM      7  C   UNL     1      -0.083   3.889   0.023  0.00  0.00    +0.079 A 
ATOM      8  C   UNL     1      -1.270   3.119   0.029  0.00  0.00    +0.029 A 
ATOM      9  N   UNL     1       0.039   5.231   0.029  0.00  0.00    -0.237 NA
ATOM     10  C   UNL     1       1.209   5.835   0.021  0.00  0.00    +0.140 A 
ATOM     11  S   UNL     1       2.348   4.457   0.004  0.00  0.00    -0.065 S 
ENDBRANCH   1  10
BRANCH   2  12
ATOM     12  N   UNL     1       0.780   9.415   0.043  0.00  0.00    -0.237 N 
ATOM     13  H   UNL     1       1.700   9.722   0.036  0.00  0.00    +0.174 HD
BRANCH  12  14
ATOM     14  C   UNL     1      -0.265  10.342   0.058  0.00  0.00    +0.048 A 
ATOM     15  C   UNL     1      -1.584   9.902   0.062  0.00  0.00    +0.026 A 
ATOM     16  C   UNL     1      -2.616  10.818   0.082  0.00  0.00    +0.017 A 
ATOM     17  C   UNL     1      -2.337  12.180   0.086  0.00  0.00    +0.013 A 
ATOM     18  C   UNL     1      -1.018  12.619   0.076  0.00  0.00    +0.017 A 
ATOM     19  C   UNL     1       0.014  11.704   0.062  0.00  0.00    +0.026 A 
BRANCH  17  20
ATOM     20  S   UNL     1      -3.655  13.348   0.104  0.00  0.00    -0.056 S 
BRANCH  20  21
ATOM     21  C   UNL     1      -5.151  12.323   0.112  0.00  0.00    +0.404 C 
ATOM     22  F   UNL     1      -5.173  11.521  -1.034  0.00  0.00    -0.197 F 
ATOM     23  F   UNL     1      -5.153  11.509   1.250  0.00  0.00    -0.197 F 
ENDBRANCH  20  21
ENDBRANCH  17  20
ENDBRANCH  12  14
ENDBRANCH   2  12
BRANCH   1  24
ATOM     24  C   UNL     1       2.864   7.732   0.015  0.00  0.00    +0.123 C 
ATOM     25  N   UNL     1       3.941   8.091   0.007  0.00  0.00    -0.189 NA
ENDBRANCH   1  24
TORSDOF 6
