REMARK  Name = ZINC12652595
REMARK  4 active torsions:
REMARK  status: ('A' for Active; 'I' for Inactive)
REMARK    1  A    between atoms: C_10  and  C_19
REMARK    2  A    between atoms: C_13  and  C_15
REMARK    3  A    between atoms: C_15  and  C_16
REMARK    4  A    between atoms: C_16  and  C_17
REMARK                            x       y       z     vdW  Elec       q    Type
REMARK                         _______ _______ _______ _____ _____    ______ ____
ROOT
ATOM      1  C   UNL     1       7.520   3.550  -0.018  0.00  0.00    +0.002 A 
ATOM      2  C   UNL     1       6.663   3.457  -1.100  0.00  0.00    +0.002 A 
ATOM      3  C   UNL     1       5.462   4.144  -1.106  0.00  0.00    +0.025 A 
ATOM      4  C   UNL     1       5.119   4.928  -0.015  0.00  0.00    +0.058 A 
ATOM      5  C   UNL     1       5.961   4.977   1.080  0.00  0.00    +0.053 A 
ATOM      6  C   UNL     1       7.173   4.309   1.069  0.00  0.00    +0.025 A 
ATOM      7  N   UNL     1       5.524   5.709   2.178  0.00  0.00    -0.316 N 
ATOM      8  C   UNL     1       5.305   7.050   2.177  0.00  0.00    +0.017 C 
ATOM      9  C   UNL     1       4.618   7.723   1.242  0.00  0.00    +0.038 C 
ATOM     10  C   UNL     1       3.990   7.129   0.002  0.00  0.00    +0.153 C 
ATOM     11  N   UNL     1       3.947   5.682  -0.005  0.00  0.00    -0.257 N 
ATOM     12  C   UNL     1       2.755   5.054   0.003  0.00  0.00    +0.221 C 
ATOM     13  O   UNL     1       1.728   5.701   0.016  0.00  0.00    -0.275 OA
ATOM     14  C   UNL     1       4.422   9.119   1.366  0.00  0.00    +0.163 C 
ATOM     15  O   UNL     1       3.804   9.703   0.497  0.00  0.00    -0.292 OA
ATOM     16  C   UNL     1       4.948   9.905   2.529  0.00  0.00    +0.080 C 
ATOM     17  C   UNL     1       5.049   8.975   3.743  0.00  0.00    +0.014 C 
ATOM     18  C   UNL     1       5.930   7.790   3.349  0.00  0.00    +0.051 C 
ATOM     19  H   UNL     1       5.362   5.228   3.005  0.00  0.00    +0.152 HD
ENDROOT
BRANCH  10  20
ATOM     20  C   UNL     1       4.772   7.591  -1.200  0.00  0.00    +0.015 A 
ATOM     21  C   UNL     1       4.529   8.639  -2.025  0.00  0.00    +0.013 A 
ATOM     22  C   UNL     1       5.393   8.878  -3.078  0.00  0.00    +0.008 A 
ATOM     23  C   UNL     1       6.457   8.057  -3.254  0.00  0.00    +0.045 A 
ATOM     24  S   UNL     1       6.263   6.906  -1.903  0.00  0.00    -0.099 S 
ENDBRANCH  10  20
BRANCH  12  25
ATOM     25  C   UNL     1       2.696   3.548  -0.005  0.00  0.00    +0.107 C 
BRANCH  25  26
ATOM     26  C   UNL     1       1.235   3.094   0.007  0.00  0.00    +0.134 C 
BRANCH  26  27
ATOM     27  C   UNL     1       1.177   1.588  -0.001  0.00  0.00    +0.356 C 
ATOM     28  O   UNL     1       2.199   0.944  -0.014  0.00  0.00    -0.246 OA
ATOM     29  O   UNL     1      -0.011   0.963   0.007  0.00  0.00    -0.246 OA
ENDBRANCH  26  27
ENDBRANCH  25  26
ENDBRANCH  12  25
TORSDOF 4
