REMARK  Name = ZINC64212678
REMARK  7 active torsions:
REMARK  status: ('A' for Active; 'I' for Inactive)
REMARK    1  A    between atoms: C_4  and  C_7
REMARK    2  A    between atoms: C_7  and  C_8
REMARK    3  A    between atoms: C_8  and  C_10
REMARK    4  A    between atoms: C_8  and  N_22
REMARK    5  A    between atoms: N_12  and  C_13
REMARK    6  A    between atoms: N_22  and  S_23
REMARK    7  A    between atoms: S_23  and  C_26
REMARK                            x       y       z     vdW  Elec       q    Type
REMARK                         _______ _______ _______ _____ _____    ______ ____
ROOT
ATOM      1  C   UNL     1       4.169  -0.966   1.404  0.00  0.00    +0.167 C 
ENDROOT
BRANCH   1   2
ATOM      2  C   UNL     1       5.422  -1.804   1.381  0.00  0.00    +0.236 C 
ATOM      3  O   UNL     1       6.448  -1.373   1.864  0.00  0.00    -0.274 OA
ATOM      4  N   UNL     1       5.402  -3.031   0.824  0.00  0.00    -0.284 N 
ATOM      5  H   UNL     1       4.567  -3.402   0.499  0.00  0.00    +0.155 HD
BRANCH   4   6
ATOM      6  C   UNL     1       6.586  -3.769   0.716  0.00  0.00    +0.036 A 
ATOM      7  C   UNL     1       7.548  -3.683   1.715  0.00  0.00    +0.024 A 
ATOM      8  C   UNL     1       8.720  -4.413   1.611  0.00  0.00    +0.009 A 
ATOM      9  C   UNL     1       8.928  -5.219   0.523  0.00  0.00    +0.000 A 
ATOM     10  C   UNL     1       7.971  -5.321  -0.496  0.00  0.00    +0.090 A 
ATOM     11  C   UNL     1       6.788  -4.587  -0.384  0.00  0.00    +0.053 A 
ATOM     12  N   UNL     1       8.435  -6.183  -1.445  0.00  0.00    -0.178 NA
ATOM     13  N   UNL     1       9.544  -6.663  -1.211  0.00  0.00    -0.304 N 
ATOM     14  C   UNL     1      10.042  -6.135   0.071  0.00  0.00    +0.171 C 
ATOM     15  H   UNL     1      10.017  -7.291  -1.780  0.00  0.00    +0.183 HD
ENDBRANCH   4   6
ENDBRANCH   1   2
BRANCH   1  16
ATOM     16  N   UNL     1       4.450   0.314   2.059  0.00  0.00    -0.178 NA
ATOM     17  H   UNL     1       5.316   0.736   1.947  0.00  0.00    +0.149 HD
BRANCH  16  18
ATOM     18  S   UNL     1       3.289   1.041   2.989  0.00  0.00    +0.059 S 
ATOM     19  O   UNL     1       3.865   2.235   3.500  0.00  0.00    -0.153 OA
ATOM     20  O   UNL     1       2.094   1.041   2.220  0.00  0.00    -0.153 OA
BRANCH  18  21
ATOM     21  C   UNL     1       2.997  -0.009   4.373  0.00  0.00    +0.106 A 
ATOM     22  C   UNL     1       2.025  -1.004   4.287  0.00  0.00    +0.029 A 
ATOM     23  C   UNL     1       1.774  -1.832   5.338  0.00  0.00    +0.010 A 
ATOM     24  C   UNL     1       2.506  -1.685   6.529  0.00  0.00    -0.018 A 
ATOM     25  C   UNL     1       2.276  -2.521   7.635  0.00  0.00    +0.008 A 
ATOM     26  C   UNL     1       3.004  -2.349   8.772  0.00  0.00    +0.001 A 
ATOM     27  C   UNL     1       3.977  -1.355   8.857  0.00  0.00    +0.001 A 
ATOM     28  C   UNL     1       4.227  -0.527   7.807  0.00  0.00    +0.008 A 
ATOM     29  C   UNL     1       3.495  -0.674   6.616  0.00  0.00    -0.016 A 
ATOM     30  C   UNL     1       3.729   0.159   5.508  0.00  0.00    +0.037 A 
ENDBRANCH  18  21
ENDBRANCH  16  18
ENDBRANCH   1  16
BRANCH   1  31
ATOM     31  C   UNL     1       3.698  -0.714  -0.029  0.00  0.00    +0.065 C 
BRANCH  31  35
ATOM     32  C   UNL     1      -0.035   1.361   0.042  0.00  0.00    +0.000 A 
ATOM     33  C   UNL     1       1.150   2.072   0.024  0.00  0.00    +0.000 A 
ATOM     34  C   UNL     1       2.358   1.401   0.002  0.00  0.00    +0.004 A 
ATOM     35  C   UNL     1       2.381   0.018  -0.003  0.00  0.00    -0.045 A 
ATOM     36  C   UNL     1       1.196  -0.693   0.015  0.00  0.00    +0.004 A 
ATOM     37  C   UNL     1      -0.013  -0.021   0.036  0.00  0.00    +0.000 A 
ENDBRANCH  31  35
ENDBRANCH   1  31
TORSDOF 7
