REMARK  Name = ZINC06040039
REMARK  6 active torsions:
REMARK  status: ('A' for Active; 'I' for Inactive)
REMARK    1  A    between atoms: C_4  and  O_32
REMARK    2  A    between atoms: C_5  and  C_7
REMARK    3  A    between atoms: N_15  and  C_25
REMARK    4  A    between atoms: C_16  and  C_18
REMARK    5  A    between atoms: C_21  and  O_24
REMARK    6  A    between atoms: C_25  and  C_26
REMARK                            x       y       z     vdW  Elec       q    Type
REMARK                         _______ _______ _______ _____ _____    ______ ____
ROOT
ATOM      1  C   UNL     1       1.328  -2.616  -0.321  0.00  0.00    +0.102 A 
ATOM      2  C   UNL     1       0.118  -3.265  -0.053  0.00  0.00    +0.035 A 
ATOM      3  C   UNL     1       0.414  -4.614  -0.020  0.00  0.00    +0.126 A 
ATOM      4  N   UNL     1       1.754  -4.715  -0.264  0.00  0.00    -0.272 N 
ATOM      5  H   UNL     1       2.253  -5.546  -0.302  0.00  0.00    +0.189 HD
ATOM      6  N   UNL     1       2.256  -3.544  -0.438  0.00  0.00    -0.173 NA
ATOM      7  C   UNL     1      -0.821  -5.357   0.258  0.00  0.00    +0.266 C 
ATOM      8  O   UNL     1      -0.897  -6.567   0.351  0.00  0.00    -0.268 OA
ATOM      9  N   UNL     1      -1.856  -4.509   0.396  0.00  0.00    -0.281 N 
ATOM     10  C   UNL     1      -1.357  -3.139   0.213  0.00  0.00    +0.142 C 
ENDROOT
BRANCH   1  15
ATOM     11  C   UNL     1       1.155   1.080   0.349  0.00  0.00    +0.001 A 
ATOM     12  C   UNL     1       1.900   1.584  -0.703  0.00  0.00    +0.004 A 
ATOM     13  C   UNL     1       2.461   0.730  -1.632  0.00  0.00    +0.046 A 
ATOM     14  C   UNL     1       2.280  -0.639  -1.515  0.00  0.00    +0.126 A 
ATOM     15  C   UNL     1       1.528  -1.151  -0.454  0.00  0.00    +0.044 A 
ATOM     16  C   UNL     1       0.966  -0.281   0.477  0.00  0.00    +0.014 A 
BRANCH  14  17
ATOM     17  O   UNL     1       2.831  -1.481  -2.428  0.00  0.00    -0.506 OA
ATOM     18  H   UNL     1       3.722  -1.779  -2.201  0.00  0.00    +0.292 HD
ENDBRANCH  14  17
ENDBRANCH   1  15
BRANCH  10  19
ATOM     19  C   UNL     1      -2.043  -2.490  -0.961  0.00  0.00    -0.022 A 
ATOM     20  C   UNL     1      -2.236  -3.204  -2.129  0.00  0.00    +0.009 A 
ATOM     21  C   UNL     1      -2.864  -2.610  -3.207  0.00  0.00    +0.046 A 
ATOM     22  C   UNL     1      -3.300  -1.296  -3.116  0.00  0.00    +0.117 A 
ATOM     23  C   UNL     1      -3.105  -0.582  -1.943  0.00  0.00    +0.046 A 
ATOM     24  C   UNL     1      -2.482  -1.182  -0.866  0.00  0.00    +0.009 A 
BRANCH  22  25
ATOM     25  O   UNL     1      -3.918  -0.710  -4.176  0.00  0.00    -0.507 OA
ATOM     26  H   UNL     1      -4.878  -0.820  -4.182  0.00  0.00    +0.292 HD
ENDBRANCH  22  25
ENDBRANCH  10  19
BRANCH   9  27
ATOM     27  C   UNL     1      -3.243  -4.887   0.679  0.00  0.00    +0.144 C 
BRANCH  27  28
ATOM     28  C   UNL     1      -3.458  -4.925   2.170  0.00  0.00    -0.027 A 
ATOM     29  C   UNL     1      -3.238  -6.089   2.889  0.00  0.00    +0.025 A 
ATOM     30  C   UNL     1      -3.447  -6.086   4.256  0.00  0.00    +0.111 A 
ATOM     31  N   UNL     1      -3.850  -4.994   4.874  0.00  0.00    -0.263 NA
ATOM     32  C   UNL     1      -4.069  -3.869   4.222  0.00  0.00    +0.111 A 
ATOM     33  C   UNL     1      -3.876  -3.794   2.856  0.00  0.00    +0.025 A 
ENDBRANCH  27  28
ENDBRANCH   9  27
TORSDOF 6
