REMARK  Name = ZINC39695309
REMARK  9 active torsions:
REMARK  status: ('A' for Active; 'I' for Inactive)
REMARK    1  A    between atoms: C_1  and  C_2
REMARK    2  A    between atoms: C_2  and  C_3
REMARK    3  A    between atoms: C_3  and  C_5
REMARK    4  A    between atoms: C_3  and  N_11
REMARK    5  A    between atoms: C_12  and  C_14
REMARK    6  A    between atoms: C_25  and  C_27
REMARK    7  A    between atoms: C_32  and  S_33
REMARK    8  A    between atoms: S_33  and  C_34
REMARK    9  A    between atoms: C_34  and  C_35
REMARK                            x       y       z     vdW  Elec       q    Type
REMARK                         _______ _______ _______ _____ _____    ______ ____
ROOT
ATOM      1  C   UNL     1      -3.328   1.424   2.698  0.00  0.00    +0.100 C 
ATOM      2  C   UNL     1      -2.323   1.351   3.869  0.00  0.00    +0.121 C 
ATOM      3  N   UNL     1      -1.808   2.733   4.007  0.00  0.00    -0.296 N 
ATOM      4  C   UNL     1      -2.994   3.593   3.783  0.00  0.00    +0.115 C 
ATOM      5  C   UNL     1      -3.769   2.896   2.647  0.00  0.00    -0.004 C 
ATOM      6  C   UNL     1      -5.271   3.006   2.887  0.00  0.00    -0.010 C 
ATOM      7  C   UNL     1      -5.696   4.473   2.774  0.00  0.00    -0.082 C 
ATOM      8  N   UNL     1      -5.354   4.982   1.440  0.00  0.00    +0.379 N 
ATOM      9  C   UNL     1      -3.899   4.959   1.253  0.00  0.00    -0.082 C 
ATOM     10  C   UNL     1      -3.398   3.513   1.302  0.00  0.00    -0.010 C 
ATOM     11  C   UNL     1      -0.545   3.121   4.276  0.00  0.00    +0.249 C 
ATOM     12  O   UNL     1       0.344   2.294   4.340  0.00  0.00    -0.270 OA
ATOM     13  H   UNL     1      -5.791   4.403   0.739  0.00  0.00    -0.086 HD
ATOM     14  H   UNL     1      -5.689   5.929   1.347  0.00  0.00    -0.086 HD
ENDROOT
BRANCH  11  15
ATOM     15  C   UNL     1      -0.243   4.547   4.493  0.00  0.00    +0.069 A 
ATOM     16  C   UNL     1      -1.167   5.382   5.133  0.00  0.00    +0.017 A 
ATOM     17  C   UNL     1      -0.835   6.713   5.312  0.00  0.00    +0.020 A 
ATOM     18  C   UNL     1       0.387   7.179   4.860  0.00  0.00    +0.112 A 
ATOM     19  N   UNL     1       1.244   6.377   4.260  0.00  0.00    -0.248 NA
ATOM     20  C   UNL     1       0.981   5.093   4.067  0.00  0.00    +0.109 A 
BRANCH  20  21
ATOM     21  S   UNL     1       2.167   4.065   3.266  0.00  0.00    -0.105 S 
BRANCH  21  22
ATOM     22  C   UNL     1       3.549   5.185   2.911  0.00  0.00    +0.072 C 
ATOM     23  C   UNL     1       4.665   4.410   2.206  0.00  0.00    +0.015 C 
ENDBRANCH  21  22
ENDBRANCH  20  21
ENDBRANCH  11  15
BRANCH   1  25
ATOM     24  N   UNL     1      -3.372   0.442   0.428  0.00  0.00    -0.308 N 
ATOM     25  C   UNL     1      -2.657   1.032   1.406  0.00  0.00    +0.219 C 
ATOM     26  O   UNL     1      -1.475   1.249   1.247  0.00  0.00    -0.275 OA
ATOM     27  H   UNL     1      -4.318   0.268   0.555  0.00  0.00    +0.149 HD
BRANCH  24  28
ATOM     28  C   UNL     1      -2.720   0.061  -0.828  0.00  0.00    +0.103 C 
BRANCH  28  29
ATOM     29  C   UNL     1      -3.745   0.011  -1.931  0.00  0.00    -0.027 A 
ATOM     30  C   UNL     1      -5.003  -0.507  -1.683  0.00  0.00    +0.005 A 
ATOM     31  C   UNL     1      -5.944  -0.553  -2.695  0.00  0.00    +0.000 A 
ATOM     32  C   UNL     1      -5.627  -0.081  -3.955  0.00  0.00    +0.000 A 
ATOM     33  C   UNL     1      -4.370   0.438  -4.203  0.00  0.00    +0.000 A 
ATOM     34  C   UNL     1      -3.430   0.488  -3.190  0.00  0.00    +0.005 A 
ENDBRANCH  28  29
BRANCH  28  36
ATOM     35  C   UNL     1      -0.947  -1.236   0.363  0.00  0.00    +0.006 C 
ATOM     36  C   UNL     1      -2.074  -1.317  -0.669  0.00  0.00    +0.024 C 
ENDBRANCH  28  36
ENDBRANCH  24  28
ENDBRANCH   1  25
TORSDOF 7
