REMARK  Name = ZINC23483338
REMARK  12 active torsions:
REMARK  status: ('A' for Active; 'I' for Inactive)
REMARK    1  A    between atoms: C_1  and  C_2
REMARK    2  A    between atoms: C_2  and  C_4
REMARK    3  A    between atoms: C_2  and  N_11
REMARK    4  A    between atoms: C_12  and  C_14
REMARK    5  A    between atoms: C_14  and  S_15
REMARK    6  A    between atoms: S_15  and  C_16
REMARK    7  A    between atoms: C_19  and  C_28
REMARK    8  A    between atoms: N_20  and  C_21
REMARK    9  A    between atoms: C_28  and  C_30
REMARK   10  A    between atoms: C_28  and  N_31
REMARK   11  A    between atoms: N_31  and  C_32
REMARK   12  A    between atoms: N_31  and  C_33
REMARK                            x       y       z     vdW  Elec       q    Type
REMARK                         _______ _______ _______ _____ _____    ______ ____
ROOT
ATOM      1  C   UNL     1       1.242  -0.434  -0.012  0.00  0.00    +0.197 A 
ATOM      2  N   UNL     1       0.002  -0.004   0.002  0.00  0.00    -0.122 NA
ATOM      3  N   UNL     1      -0.015   1.281   0.009  0.00  0.00    -0.135 NA
ATOM      4  C   UNL     1       1.202   1.746   0.000  0.00  0.00    +0.125 A 
ATOM      5  N   UNL     1       2.049   0.670  -0.014  0.00  0.00    -0.275 N 
ENDROOT
BRANCH   5   6
ATOM      6  C   UNL     1       3.452   0.696  -0.027  0.00  0.00    +0.050 A 
ATOM      7  C   UNL     1       4.148   1.216   1.055  0.00  0.00    +0.029 A 
ATOM      8  C   UNL     1       5.529   1.234   1.043  0.00  0.00    +0.040 A 
ATOM      9  C   UNL     1       6.219   0.746  -0.053  0.00  0.00    +0.124 A 
ATOM     10  C   UNL     1       5.526   0.232  -1.137  0.00  0.00    +0.040 A 
ATOM     11  C   UNL     1       4.146   0.206  -1.125  0.00  0.00    +0.029 A 
ATOM     12  F   UNL     1       7.570   0.770  -0.066  0.00  0.00    -0.205 F 
ENDBRANCH   5   6
BRANCH   4  13
ATOM     13  C   UNL     1       1.603   3.199   0.004  0.00  0.00    -0.003 C 
ATOM     14  C   UNL     1       1.365   3.797  -1.384  0.00  0.00    -0.005 C 
BRANCH  13  15
ATOM     15  N   UNL     1       0.799   3.926   0.995  0.00  0.00    +0.382 N 
ATOM     16  C   UNL     1       0.930   3.319   2.327  0.00  0.00    -0.096 C 
ATOM     17  C   UNL     1       1.163   5.349   1.027  0.00  0.00    -0.096 C 
ATOM     18  H   UNL     1      -0.256   3.854   0.693  0.00  0.00    -0.082 HD
ENDBRANCH  13  15
ENDBRANCH   4  13
BRANCH   1  19
ATOM     19  S   UNL     1       1.768  -2.116  -0.026  0.00  0.00    -0.076 S 
BRANCH  19  20
ATOM     20  C   UNL     1       0.161  -2.948  -0.015  0.00  0.00    +0.173 C 
BRANCH  20  22
ATOM     21  N   UNL     1      -0.696  -5.269  -0.019  0.00  0.00    -0.308 N 
ATOM     22  C   UNL     1       0.368  -4.441  -0.025  0.00  0.00    +0.224 C 
ATOM     23  O   UNL     1       1.491  -4.897  -0.037  0.00  0.00    -0.275 OA
ATOM     24  H   UNL     1      -1.715  -4.855  -0.007  0.00  0.00    +0.149 HD
BRANCH  21  26
ATOM     25  C   UNL     1      -0.314  -7.200  -1.470  0.00  0.00    +0.033 C 
ATOM     26  C   UNL     1      -0.495  -6.720  -0.029  0.00  0.00    +0.102 C 
BRANCH  26  27
ATOM     27  C   UNL     1      -1.696  -7.397   0.580  0.00  0.00    -0.009 A 
ATOM     28  C   UNL     1      -2.925  -6.765   0.569  0.00  0.00    +0.007 A 
ATOM     29  C   UNL     1      -4.027  -7.388   1.123  0.00  0.00    +0.000 A 
ATOM     30  C   UNL     1      -3.899  -8.640   1.696  0.00  0.00    +0.001 A 
ATOM     31  C   UNL     1      -2.670  -9.271   1.712  0.00  0.00    +0.020 A 
ATOM     32  C   UNL     1      -1.567  -8.649   1.154  0.00  0.00    +0.046 A 
ATOM     33 CL   UNL     1      -0.022  -9.441   1.173  0.00  0.00    -0.083 Cl
ENDBRANCH  26  27
ENDBRANCH  21  26
ENDBRANCH  20  22
ENDBRANCH  19  20
ENDBRANCH   1  19
TORSDOF 8
