REMARK  Name = ZINC39664942
REMARK  11 active torsions:
REMARK  status: ('A' for Active; 'I' for Inactive)
REMARK    1  A    between atoms: C_1  and  N_2
REMARK    2  A    between atoms: N_2  and  C_3
REMARK    3  A    between atoms: N_2  and  C_4
REMARK    4  A    between atoms: C_4  and  C_5
REMARK    5  A    between atoms: C_5  and  C_7
REMARK    6  A    between atoms: C_5  and  N_13
REMARK    7  A    between atoms: C_14  and  C_16
REMARK    8  A    between atoms: C_27  and  C_29
REMARK    9  A    between atoms: C_29  and  C_30
REMARK   10  A    between atoms: C_30  and  O_31
REMARK   11  A    between atoms: O_31  and  C_32
REMARK                            x       y       z     vdW  Elec       q    Type
REMARK                         _______ _______ _______ _____ _____    ______ ____
ROOT
ATOM      1  C   UNL     1      -2.170   3.181   1.898  0.00  0.00    +0.100 C 
ATOM      2  C   UNL     1      -2.330   3.642   3.364  0.00  0.00    +0.121 C 
ATOM      3  N   UNL     1      -3.543   4.493   3.359  0.00  0.00    -0.300 N 
ATOM      4  C   UNL     1      -4.477   3.799   2.441  0.00  0.00    +0.115 C 
ATOM      5  C   UNL     1      -3.581   3.285   1.296  0.00  0.00    -0.004 C 
ATOM      6  C   UNL     1      -4.059   1.914   0.829  0.00  0.00    -0.010 C 
ATOM      7  C   UNL     1      -5.439   2.052   0.180  0.00  0.00    -0.082 C 
ATOM      8  N   UNL     1      -5.358   2.977  -0.956  0.00  0.00    +0.379 N 
ATOM      9  C   UNL     1      -4.988   4.318  -0.485  0.00  0.00    -0.082 C 
ATOM     10  C   UNL     1      -3.588   4.275   0.135  0.00  0.00    -0.010 C 
ATOM     11  C   UNL     1      -3.750   5.640   4.037  0.00  0.00    +0.218 C 
ATOM     12  O   UNL     1      -4.806   6.226   3.928  0.00  0.00    -0.276 OA
ATOM     13  H   UNL     1      -4.661   2.647  -1.608  0.00  0.00    -0.086 HD
ATOM     14  H   UNL     1      -6.254   3.020  -1.419  0.00  0.00    -0.086 HD
ENDROOT
BRANCH   1  16
ATOM     15  N   UNL     1      -0.918   1.344   0.815  0.00  0.00    -0.310 N 
ATOM     16  C   UNL     1      -1.681   1.757   1.846  0.00  0.00    +0.219 C 
ATOM     17  O   UNL     1      -1.974   0.982   2.732  0.00  0.00    -0.275 OA
ATOM     18  H   UNL     1      -0.623   1.980   0.144  0.00  0.00    +0.149 HD
BRANCH  15  19
ATOM     19  C   UNL     1      -0.534  -0.066   0.706  0.00  0.00    +0.087 C 
BRANCH  19  20
ATOM     20  C   UNL     1       0.682  -0.189  -0.176  0.00  0.00    -0.029 A 
ATOM     21  C   UNL     1       0.794   0.592  -1.311  0.00  0.00    +0.005 A 
ATOM     22  C   UNL     1       1.909   0.479  -2.120  0.00  0.00    +0.000 A 
ATOM     23  C   UNL     1       2.913  -0.414  -1.794  0.00  0.00    +0.000 A 
ATOM     24  C   UNL     1       2.801  -1.194  -0.658  0.00  0.00    +0.000 A 
ATOM     25  C   UNL     1       1.687  -1.078   0.153  0.00  0.00    +0.005 A 
ENDBRANCH  19  20
BRANCH  19  26
ATOM     26  C   UNL     1      -1.689  -0.863   0.097  0.00  0.00    -0.052 C 
BRANCH  26  28
ATOM     27  C   UNL     1      -1.270  -2.770   1.490  0.00  0.00    -0.097 C 
ATOM     28  N   UNL     1      -1.353  -2.293   0.103  0.00  0.00    +0.377 N 
ATOM     29  C   UNL     1      -2.395  -3.044  -0.610  0.00  0.00    -0.097 C 
ATOM     30  H   UNL     1      -0.465  -2.433  -0.354  0.00  0.00    -0.083 HD
ENDBRANCH  26  28
ENDBRANCH  19  26
ENDBRANCH  15  19
ENDBRANCH   1  16
BRANCH  11  31
ATOM     31  C   UNL     1      -2.669   6.194   4.929  0.00  0.00    +0.124 C 
BRANCH  31  32
ATOM     32  C   UNL     1      -3.157   7.492   5.575  0.00  0.00    +0.168 C 
BRANCH  32  33
ATOM     33  O   UNL     1      -2.132   8.017   6.422  0.00  0.00    -0.382 OA
ATOM     34  C   UNL     1      -2.487   9.236   7.077  0.00  0.00    +0.194 C 
ENDBRANCH  32  33
ENDBRANCH  31  32
ENDBRANCH  11  31
TORSDOF 8
