REMARK  Name = ZINC65963420
REMARK  7 active torsions:
REMARK  status: ('A' for Active; 'I' for Inactive)
REMARK    1  A    between atoms: C_1  and  C_2
REMARK    2  A    between atoms: C_2  and  C_3
REMARK    3  A    between atoms: C_2  and  N_14
REMARK    4  A    between atoms: N_5  and  C_6
REMARK    5  A    between atoms: C_6  and  C_12
REMARK    6  A    between atoms: C_17  and  N_20
REMARK    7  A    between atoms: C_21  and  C_23
REMARK                            x       y       z     vdW  Elec       q    Type
REMARK                         _______ _______ _______ _____ _____    ______ ____
ROOT
ATOM      1  N   UNL     1       1.006  -0.914   0.570  0.00  0.00    +0.387 N 
ATOM      2  C   UNL     1       2.329  -0.280   0.509  0.00  0.00    -0.076 C 
ATOM      3  C   UNL     1       3.365  -1.189   1.173  0.00  0.00    +0.004 C 
ATOM      4  C   UNL     1       3.405  -2.531   0.436  0.00  0.00    +0.069 C 
ATOM      5  C   UNL     1       2.004  -3.148   0.443  0.00  0.00    +0.004 C 
ATOM      6  C   UNL     1       1.018  -2.166  -0.194  0.00  0.00    -0.076 C 
ATOM      7  H   UNL     1       0.774  -1.110   1.532  0.00  0.00    -0.081 HD
ENDROOT
BRANCH   4   8
ATOM      8  N   UNL     1       4.341  -3.433   1.113  0.00  0.00    -0.312 N 
ATOM      9  C   UNL     1       4.928  -4.434   0.427  0.00  0.00    +0.216 C 
ATOM     10  O   UNL     1       4.682  -4.587  -0.751  0.00  0.00    -0.276 OA
ATOM     11  H   UNL     1       4.537  -3.311   2.055  0.00  0.00    +0.149 HD
BRANCH   9  12
ATOM     12  C   UNL     1       5.890  -5.362   1.123  0.00  0.00    +0.075 C 
ATOM     13  C   UNL     1       7.065  -4.555   1.678  0.00  0.00    +0.013 C 
ATOM     14  C   UNL     1       8.042  -5.497   2.385  0.00  0.00    +0.001 C 
ATOM     15  C   UNL     1       8.561  -6.535   1.388  0.00  0.00    +0.000 C 
ATOM     16  C   UNL     1       7.386  -7.341   0.832  0.00  0.00    +0.001 C 
ATOM     17  C   UNL     1       6.409  -6.399   0.126  0.00  0.00    +0.013 C 
ENDBRANCH   9  12
ENDBRANCH   4   8
BRANCH   1  19
ATOM     18  C   UNL     1       0.011   1.314   0.778  0.00  0.00    -0.004 C 
ATOM     19  C   UNL     1       0.002  -0.004   0.002  0.00  0.00    +0.016 C 
BRANCH  19  20
ATOM     20  C   UNL     1      -1.362  -0.637   0.101  0.00  0.00    +0.200 C 
ATOM     21  O   UNL     1      -1.596  -1.440   0.979  0.00  0.00    -0.278 OA
ATOM     22  N   UNL     1      -2.322  -0.310  -0.787  0.00  0.00    -0.299 N 
ATOM     23  H   UNL     1      -2.135   0.333  -1.489  0.00  0.00    +0.150 HD
BRANCH  22  24
ATOM     24  C   UNL     1      -3.649  -0.925  -0.690  0.00  0.00    +0.121 C 
ATOM     25  C   UNL     1      -4.270  -0.588   0.667  0.00  0.00    +0.041 C 
ATOM     26  C   UNL     1      -5.655  -1.230   0.767  0.00  0.00    +0.003 C 
ATOM     27  C   UNL     1      -6.549  -0.691  -0.351  0.00  0.00    +0.000 C 
ATOM     28  C   UNL     1      -5.928  -1.028  -1.708  0.00  0.00    +0.003 C 
ATOM     29  C   UNL     1      -4.543  -0.385  -1.808  0.00  0.00    +0.041 C 
BRANCH  24  30
ATOM     30  C   UNL     1      -3.523  -2.385  -0.824  0.00  0.00    +0.088 C 
ATOM     31  N   UNL     1      -3.426  -3.512  -0.927  0.00  0.00    -0.194 NA
ENDBRANCH  24  30
ENDBRANCH  22  24
ENDBRANCH  19  20
ENDBRANCH   1  19
TORSDOF 6
