REMARK  Name = ZINC43746723
REMARK  13 active torsions:
REMARK  status: ('A' for Active; 'I' for Inactive)
REMARK    1  A    between atoms: CB_1  and  CA_2
REMARK    2  A    between atoms: CA_2  and  C_4
REMARK    3  A    between atoms: CA_2  and  N_6
REMARK    4  A    between atoms: C_4  and  O_5
REMARK    5  A    between atoms: C_7  and  CA_9
REMARK    6  A    between atoms: CA_9  and  CB_11
REMARK    7  A    between atoms: CA_9  and  N_15
REMARK    8  A    between atoms: CB_11  and  CG_12
REMARK    9  A    between atoms: CG_12  and  SD_13
REMARK   10  A    between atoms: SD_13  and  CE_14
REMARK   11  A    between atoms: C_16  and  C_18
REMARK   12  A    between atoms: C_20  and  C_33
REMARK   13  A    between atoms: C_20  and  C_34
REMARK                            x       y       z     vdW  Elec       q    Type
REMARK                         _______ _______ _______ _____ _____    ______ ____
ROOT
ATOM      1  N   MET A   1      -4.081  -1.194  -2.335  0.00  0.00    -0.302 N 
ATOM      2  C   UNK A   0      -5.408  -1.026  -2.501  0.00  0.00    +0.236 C 
ATOM      3  O   UNK A   0      -6.135  -0.942  -1.534  0.00  0.00    -0.274 OA
ATOM      4  H   MET A   1      -3.511  -1.347  -3.104  0.00  0.00    +0.150 HD
ENDROOT
BRANCH   2   5
ATOM      5  C   UNK A   0      -5.989  -0.943  -3.889  0.00  0.00    +0.179 C 
ATOM      6  C   UNK A   0      -6.171  -2.378  -4.436  0.00  0.00    +0.040 C 
ATOM      7  S   UNK A   0      -7.932  -2.344  -4.988  0.00  0.00    -0.125 S 
ATOM      8  C   UNK A   0      -8.131  -0.511  -4.978  0.00  0.00    +0.167 C 
ATOM      9  N   UNK A   0      -7.236  -0.180  -3.831  0.00  0.00    -0.269 N 
ATOM     10  C   UNK A   0      -7.909   0.728  -3.091  0.00  0.00    +0.249 C 
ATOM     11  O   UNK A   0      -7.400   1.514  -2.315  0.00  0.00    -0.270 OA
ATOM     12  C   UNK A   0      -9.354   0.622  -3.369  0.00  0.00    +0.043 A 
ATOM     13  C   UNK A   0      -9.521  -0.142  -4.545  0.00  0.00    -0.005 A 
ATOM     14  C   UNK A   0     -10.774  -0.408  -5.044  0.00  0.00    +0.007 A 
ATOM     15  C   UNK A   0     -11.896   0.102  -4.410  0.00  0.00    +0.000 A 
ATOM     16  C   UNK A   0     -11.759   0.883  -3.277  0.00  0.00    +0.001 A 
ATOM     17  C   UNK A   0     -10.480   1.143  -2.731  0.00  0.00    +0.013 A 
ATOM     18  C   UNK A   0      -5.232  -2.639  -5.616  0.00  0.00    +0.025 C 
ATOM     19  C   UNK A   0      -5.963  -3.417  -3.332  0.00  0.00    +0.025 C 
ENDBRANCH   2   5
BRANCH   1  20
ATOM     20  CA  MET A   1      -3.500  -1.144  -0.991  0.00  0.00    +0.160 C 
BRANCH  20  22
ATOM     21  N   MET A   1      -1.362  -0.463   0.051  0.00  0.00    -0.309 N 
ATOM     22  C   MET A   1      -2.097  -0.599  -1.071  0.00  0.00    +0.234 C 
ATOM     23  O   MET A   1      -1.629  -0.283  -2.144  0.00  0.00    -0.274 OA
ATOM     24  H   MET A   1      -1.736  -0.716   0.910  0.00  0.00    +0.149 HD
BRANCH  21  26
ATOM     25  CB  MET A   1      -0.044   1.596  -0.007  0.00  0.00    +0.030 C 
ATOM     26  CA  MET A   1       0.001   0.067  -0.026  0.00  0.00    +0.095 C 
BRANCH  26  27
ATOM     27  C   MET A   1       0.812  -0.434   1.171  0.00  0.00    +0.177 C 
BRANCH  27  28
ATOM     28  O   MET A   1       0.265   0.104   2.376  0.00  0.00    -0.393 OA
ATOM     29  H   MET A   1       0.730  -0.172   3.177  0.00  0.00    +0.209 HD
ENDBRANCH  27  28
ENDBRANCH  26  27
ENDBRANCH  21  26
ENDBRANCH  20  22
BRANCH  20  30
ATOM     30  CB  MET A   1      -3.466  -2.554  -0.398  0.00  0.00    +0.042 C 
BRANCH  30  31
ATOM     31  CG  MET A   1      -4.897  -3.042  -0.161  0.00  0.00    +0.071 C 
BRANCH  31  32
ATOM     32  SD  MET A   1      -4.856  -4.646   0.685  0.00  0.00    -0.164 S 
ATOM     33  CE  MET A   1      -6.606  -5.079   0.888  0.00  0.00    +0.084 C 
ENDBRANCH  31  32
ENDBRANCH  30  31
ENDBRANCH  20  30
ENDBRANCH   1  20
TORSDOF 9
