REMARK  Name = ZINC12835057
REMARK  10 active torsions:
REMARK  status: ('A' for Active; 'I' for Inactive)
REMARK    1  A    between atoms: C_1  and  C_2
REMARK    2  A    between atoms: C_2  and  C_26
REMARK    3  A    between atoms: C_8  and  C_9
REMARK    4  A    between atoms: C_8  and  N_57
REMARK    5  A    between atoms: C_14  and  O_15
REMARK    6  A    between atoms: O_15  and  C_16
REMARK    7  A    between atoms: C_16  and  C_17
REMARK    8  A    between atoms: C_17  and  C_19
REMARK    9  A    between atoms: C_17  and  O_25
REMARK   10  A    between atoms: C_19  and  N_59
REMARK                            x       y       z     vdW  Elec       q    Type
REMARK                         _______ _______ _______ _____ _____    ______ ____
ROOT
ATOM      1  C   UNL     1       1.144  -3.667  -2.610  0.00  0.00    -0.022 A 
ATOM      2  C   UNL     1       1.591  -4.269  -3.771  0.00  0.00    +0.005 A 
ATOM      3  C   UNL     1       2.191  -3.509  -4.758  0.00  0.00    +0.000 A 
ATOM      4  C   UNL     1       2.342  -2.145  -4.587  0.00  0.00    +0.004 A 
ATOM      5  C   UNL     1       1.893  -1.538  -3.430  0.00  0.00    +0.046 A 
ATOM      6  C   UNL     1       1.290  -2.299  -2.439  0.00  0.00    +0.122 A 
ENDROOT
BRANCH   1   7
ATOM      7  C   UNL     1       0.495  -4.497  -1.532  0.00  0.00    -0.038 C 
BRANCH   7  17
ATOM      8  C   UNL     1      -1.212  -6.839  -1.050  0.00  0.00    -0.000 C 
ATOM      9  C   UNL     1      -1.619  -5.393  -0.763  0.00  0.00    +0.007 C 
ATOM     10  C   UNL     1      -3.111  -5.262  -0.879  0.00  0.00    +0.202 C 
ATOM     11  O   UNL     1      -3.809  -6.131  -0.401  0.00  0.00    -0.277 OA
ATOM     12  N   UNL     1      -3.702  -4.228  -1.488  0.00  0.00    -0.318 N 
ATOM     13  C   UNL     1      -2.953  -3.150  -2.127  0.00  0.00    +0.085 C 
ATOM     14  C   UNL     1      -1.511  -3.140  -1.617  0.00  0.00    -0.058 C 
ATOM     15  C   UNL     1      -1.185  -5.017   0.655  0.00  0.00    -0.000 C 
ATOM     16  H   UNL     1      -4.671  -4.193  -1.506  0.00  0.00    +0.149 HD
ATOM     17  N   UNL     1      -0.970  -4.507  -1.748  0.00  0.00    +0.393 N 
ATOM     18  H   UNL     1      -1.165  -4.856  -2.694  0.00  0.00    -0.080 HD
ENDBRANCH   7  17
ENDBRANCH   1   7
BRANCH   6  19
ATOM     19  O   UNL     1       0.848  -1.704  -1.300  0.00  0.00    -0.489 OA
BRANCH  19  20
ATOM     20  C   UNL     1       0.953  -0.281  -1.228  0.00  0.00    +0.258 C 
BRANCH  20  21
ATOM     21  C   UNL     1       0.421   0.202   0.123  0.00  0.00    +0.135 C 
BRANCH  21  22
ATOM     22  O   UNL     1       1.250  -0.306   1.171  0.00  0.00    -0.390 OA
ATOM     23  H   UNL     1       2.175  -0.027   1.111  0.00  0.00    +0.210 HD
ENDBRANCH  21  22
BRANCH  21  24
ATOM     24  C   UNL     1       0.435   1.732   0.159  0.00  0.00    -0.044 C 
BRANCH  24  30
ATOM     25  C   UNL     1      -1.477   1.811   1.637  0.00  0.00    -0.068 C 
ATOM     26  C   UNL     1      -1.849   1.882   3.123  0.00  0.00    +0.050 C 
ATOM     27  S   UNL     1      -1.638   3.600   3.684  0.00  0.00    -0.164 S 
ATOM     28  C   UNL     1       0.038   4.009   3.104  0.00  0.00    +0.050 C 
ATOM     29  C   UNL     1       0.140   3.635   1.621  0.00  0.00    -0.068 C 
ATOM     30  N   UNL     1      -0.050   2.174   1.479  0.00  0.00    +0.382 N 
ATOM     31  H   UNL     1       0.494   1.698   2.209  0.00  0.00    -0.082 HD
ENDBRANCH  24  30
ENDBRANCH  21  24
ENDBRANCH  20  21
ENDBRANCH  19  20
ENDBRANCH   6  19
TORSDOF 8
