REMARK  Name = ZINC21466259
REMARK  9 active torsions:
REMARK  status: ('A' for Active; 'I' for Inactive)
REMARK    1  A    between atoms: C_1  and  C_2
REMARK    2  A    between atoms: C_11  and  N_23
REMARK    3  A    between atoms: C_13  and  S_15
REMARK    4  A    between atoms: S_15  and  C_16
REMARK    5  A    between atoms: C_16  and  C_17
REMARK    6  A    between atoms: C_17  and  O_19
REMARK    7  A    between atoms: O_19  and  C_20
REMARK    8  A    between atoms: C_20  and  C_21
REMARK    9  A    between atoms: C_20  and  C_22
REMARK                            x       y       z     vdW  Elec       q    Type
REMARK                         _______ _______ _______ _____ _____    ______ ____
ROOT
ATOM      1  C   UNL     1      -1.243  -0.754  -0.606  0.00  0.00    +0.008 C 
ATOM      2  C   UNL     1       0.165  -0.165  -0.721  0.00  0.00    -0.009 C 
ATOM      3  C   UNL     1       1.021  -0.638   0.458  0.00  0.00    +0.008 C 
ATOM      4  C   UNL     1       2.484  -0.262   0.219  0.00  0.00    +0.037 C 
ATOM      5  C   UNL     1       2.567   1.230  -0.094  0.00  0.00    -0.025 A 
ATOM      6  C   UNL     1       1.469   1.910  -0.494  0.00  0.00    -0.004 A 
ATOM      7  S   UNL     1       2.018   3.580  -0.741  0.00  0.00    -0.073 S 
ATOM      8  C   UNL     1       3.715   3.367  -0.311  0.00  0.00    +0.115 A 
ATOM      9  C   UNL     1       3.802   1.990   0.015  0.00  0.00    +0.051 A 
ATOM     10  C   UNL     1       5.080   1.499   0.412  0.00  0.00    +0.129 A 
ATOM     11  N   UNL     1       6.065   2.393   0.436  0.00  0.00    -0.207 NA
ATOM     12  C   UNL     1       5.913   3.670   0.117  0.00  0.00    +0.191 A 
ATOM     13  N   UNL     1       4.743   4.190  -0.262  0.00  0.00    -0.214 NA
ATOM     14  C   UNL     1       0.086   1.367  -0.687  0.00  0.00    +0.046 C 
ENDROOT
BRANCH  10  15
ATOM     15  N   UNL     1       5.283   0.174   0.753  0.00  0.00    -0.343 N 
ATOM     16  H   UNL     1       6.284  -0.169   1.055  0.00  0.00    +0.144 HD
ATOM     17  H   UNL     1       4.444  -0.536   0.723  0.00  0.00    +0.144 HD
ENDBRANCH  10  15
BRANCH  12  18
ATOM     18  S   UNL     1       7.318   4.729   0.197  0.00  0.00    -0.075 S 
BRANCH  18  19
ATOM     19  C   UNL     1       8.574   3.546   0.743  0.00  0.00    +0.197 C 
BRANCH  19  20
ATOM     20  C   UNL     1       9.899   4.249   0.885  0.00  0.00    +0.318 C 
ATOM     21  O   UNL     1       9.986   5.430   0.642  0.00  0.00    -0.250 OA
BRANCH  20  22
ATOM     22  O   UNL     1      10.983   3.564   1.282  0.00  0.00    -0.461 OA
BRANCH  22  23
ATOM     23  C   UNL     1      12.226   4.306   1.396  0.00  0.00    +0.170 C 
ATOM     24  C   UNL     1      12.353   4.873   2.812  0.00  0.00    +0.052 C 
ATOM     25  C   UNL     1      13.405   3.373   1.113  0.00  0.00    +0.052 C 
ENDBRANCH  22  23
ENDBRANCH  20  22
ENDBRANCH  19  20
ENDBRANCH  18  19
ENDBRANCH  12  18
TORSDOF 6
