REMARK  Name = ZINC30945784
REMARK  5 active torsions:
REMARK  status: ('A' for Active; 'I' for Inactive)
REMARK    1  A    between atoms: C_6  and  C_7
REMARK    2  A    between atoms: C_7  and  N_8
REMARK    3  A    between atoms: C_12  and  C_15
REMARK    4  A    between atoms: N_17  and  C_18
REMARK    5  A    between atoms: C_20  and  N_25
REMARK                            x       y       z     vdW  Elec       q    Type
REMARK                         _______ _______ _______ _____ _____    ______ ____
ROOT
ATOM      1  N   UNL     1      -0.713   1.542  -1.165  0.00  0.00    +0.383 N 
ATOM      2  C   UNL     1      -0.011   1.050   0.027  0.00  0.00    -0.078 C 
ATOM      3  C   UNL     1      -0.728   1.548   1.284  0.00  0.00    -0.018 C 
ATOM      4  C   UNL     1      -2.173   1.043   1.275  0.00  0.00    +0.009 C 
ATOM      5  C   UNL     1      -2.868   1.529   0.000  0.00  0.00    +0.059 C 
ATOM      6  C   UNL     1      -2.089   1.032  -1.220  0.00  0.00    -0.066 C 
ATOM      7  H   UNL     1      -0.765   2.639  -1.095  0.00  0.00    -0.081 HD
ENDROOT
BRANCH   5   8
ATOM      8  C   UNL     1      -4.273   0.988  -0.046  0.00  0.00    +0.219 C 
ATOM      9  O   UNL     1      -4.619   0.275  -0.964  0.00  0.00    -0.275 OA
ATOM     10  N   UNL     1      -5.146   1.296   0.933  0.00  0.00    -0.284 N 
ATOM     11  H   UNL     1      -4.813   1.881   1.803  0.00  0.00    +0.155 HD
BRANCH  10  12
ATOM     12  C   UNL     1      -6.477   0.872   0.844  0.00  0.00    +0.054 A 
ATOM     13  C   UNL     1      -6.780  -0.351   0.260  0.00  0.00    +0.057 A 
ATOM     14  C   UNL     1      -8.094  -0.768   0.174  0.00  0.00    +0.128 A 
ATOM     15  C   UNL     1      -9.108   0.032   0.666  0.00  0.00    +0.034 A 
ATOM     16  C   UNL     1      -8.812   1.251   1.247  0.00  0.00    +0.024 A 
ATOM     17  C   UNL     1      -7.498   1.671   1.343  0.00  0.00    +0.062 A 
ATOM     18 CL   UNL     1      -7.125   3.199   2.079  0.00  0.00    -0.082 Cl
BRANCH  14  19
ATOM     19  N   UNL     1      -8.416  -2.072  -0.448  0.00  0.00    +0.056 N 
ATOM     20  O   UNL     1      -7.523  -2.777  -0.882  0.00  0.00    -0.126 OA
ATOM     21  O   UNL     1      -9.575  -2.440  -0.525  0.00  0.00    -0.126 OA
ENDBRANCH  14  19
ENDBRANCH  10  12
ENDBRANCH   5   8
BRANCH   1  22
ATOM     22  C   UNL     1       0.025   1.201  -2.389  0.00  0.00    -0.043 C 
BRANCH  22  28
ATOM     23  C   UNL     1       1.408   3.195  -2.998  0.00  0.00    +0.004 A 
ATOM     24  C   UNL     1       2.608   3.882  -3.014  0.00  0.00    +0.038 A 
ATOM     25  C   UNL     1       3.738   3.313  -2.452  0.00  0.00    +0.123 A 
ATOM     26  C   UNL     1       3.664   2.059  -1.868  0.00  0.00    +0.038 A 
ATOM     27  C   UNL     1       2.462   1.377  -1.849  0.00  0.00    +0.004 A 
ATOM     28  C   UNL     1       1.334   1.946  -2.411  0.00  0.00    -0.064 A 
ATOM     29  F   UNL     1       4.912   3.981  -2.471  0.00  0.00    -0.205 F 
ENDBRANCH  22  28
ENDBRANCH   1  22
TORSDOF 5
