REMARK  Name = ZINC39920469
REMARK  9 active torsions:
REMARK  status: ('A' for Active; 'I' for Inactive)
REMARK    1  A    between atoms: C_1  and  C_2
REMARK    2  A    between atoms: C_2  and  C_3
REMARK    3  A    between atoms: C_3  and  C_4
REMARK    4  A    between atoms: N_15  and  N_16
REMARK    5  A    between atoms: C_17  and  C_19
REMARK    6  A    between atoms: C_19  and  C_21
REMARK    7  A    between atoms: C_19  and  O_22
REMARK    8  A    between atoms: O_22  and  C_23
REMARK    9  A    between atoms: C_28  and  C_29
REMARK                            x       y       z     vdW  Elec       q    Type
REMARK                         _______ _______ _______ _____ _____    ______ ____
ROOT
ATOM      1  C   UNL     1       0.894  -2.026  -0.647  0.00  0.00    +0.180 C 
ATOM      2  N   UNL     1      -0.471  -2.542  -0.487  0.00  0.00    -0.324 N 
ATOM      3  C   UNL     1      -1.316  -2.536  -1.591  0.00  0.00    +0.041 A 
ATOM      4  C   UNL     1      -2.689  -2.411  -1.462  0.00  0.00    +0.025 A 
ATOM      5  C   UNL     1      -3.484  -2.407  -2.592  0.00  0.00    +0.017 A 
ATOM      6  C   UNL     1      -2.918  -2.528  -3.853  0.00  0.00    +0.019 A 
ATOM      7  C   UNL     1      -1.552  -2.655  -3.998  0.00  0.00    +0.030 A 
ATOM      8  C   UNL     1      -0.739  -2.662  -2.867  0.00  0.00    +0.060 A 
ATOM      9  C   UNL     1       0.725  -2.804  -2.964  0.00  0.00    +0.266 C 
ATOM     10  O   UNL     1       1.240  -3.161  -4.006  0.00  0.00    -0.268 OA
ATOM     11  N   UNL     1       1.483  -2.534  -1.886  0.00  0.00    -0.196 N 
ATOM     12 BR   UNL     1      -4.028  -2.519  -5.384  0.00  0.00    -0.050 Br
ATOM     13  H   UNL     1      -0.776  -2.880   0.369  0.00  0.00    +0.148 HD
ENDROOT
BRANCH  11  14
ATOM     14  N   UNL     1       2.867  -2.742  -1.955  0.00  0.00    -0.227 N 
ATOM     15  C   UNL     1       3.363  -3.994  -1.907  0.00  0.00    +0.270 C 
ATOM     16  O   UNL     1       2.611  -4.941  -1.805  0.00  0.00    -0.270 OA
ATOM     17  H   UNL     1       3.468  -1.985  -2.036  0.00  0.00    +0.173 HD
BRANCH  15  18
ATOM     18  C   UNL     1       4.851  -4.219  -1.981  0.00  0.00    +0.257 C 
ATOM     19  C   UNL     1       5.520  -3.613  -0.746  0.00  0.00    +0.062 C 
BRANCH  18  20
ATOM     20  O   UNL     1       5.120  -5.622  -2.029  0.00  0.00    -0.480 OA
BRANCH  20  21
ATOM     21  C   UNL     1       6.290  -6.006  -2.602  0.00  0.00    +0.124 A 
ATOM     22  C   UNL     1       7.213  -5.052  -3.006  0.00  0.00    +0.046 A 
ATOM     23  C   UNL     1       8.402  -5.446  -3.587  0.00  0.00    +0.004 A 
ATOM     24  C   UNL     1       8.674  -6.790  -3.767  0.00  0.00    +0.000 A 
ATOM     25  C   UNL     1       7.756  -7.743  -3.366  0.00  0.00    +0.007 A 
ATOM     26  C   UNL     1       6.567  -7.354  -2.778  0.00  0.00    -0.009 A 
ATOM     27  C   UNL     1       5.570  -8.393  -2.335  0.00  0.00    +0.047 C 
ENDBRANCH  20  21
ENDBRANCH  18  20
ENDBRANCH  15  18
ENDBRANCH  11  14
BRANCH   1  28
ATOM     28  C   UNL     1       0.856  -0.497  -0.693  0.00  0.00    +0.043 C 
BRANCH  28  30
ATOM     29  C   UNL     1       0.326   1.571   0.605  0.00  0.00    +0.004 C 
ATOM     30  C   UNL     1       0.364   0.042   0.652  0.00  0.00    +0.000 C 
ENDBRANCH  28  30
ENDBRANCH   1  28
TORSDOF 6
