REMARK  Name = ZINC20150259
REMARK  7 active torsions:
REMARK  status: ('A' for Active; 'I' for Inactive)
REMARK    1  A    between atoms: C_1  and  C_2
REMARK    2  A    between atoms: C_3  and  C_32
REMARK    3  A    between atoms: C_4  and  N_31
REMARK    4  A    between atoms: C_11  and  C_17
REMARK    5  A    between atoms: C_20  and  O_23
REMARK    6  A    between atoms: O_23  and  C_24
REMARK    7  A    between atoms: C_24  and  C_25
REMARK                            x       y       z     vdW  Elec       q    Type
REMARK                         _______ _______ _______ _____ _____    ______ ____
ROOT
ATOM      1  C   UNL     1      -0.018   1.503   0.010  0.00  0.00    +0.046 C 
ATOM      2  C   UNL     1       0.002  -0.004   0.002  0.00  0.00    -0.014 A 
ATOM      3  C   UNL     1       0.006  -0.720  -1.205  0.00  0.00    +0.095 A 
ATOM      4  C   UNL     1       0.026  -2.128  -1.141  0.00  0.00    +0.135 A 
ATOM      5  N   UNL     1       0.041  -2.768   0.004  0.00  0.00    -0.230 NA
ATOM      6  C   UNL     1       0.037  -2.131   1.199  0.00  0.00    +0.086 A 
ATOM      7  C   UNL     1       0.023  -0.716   1.174  0.00  0.00    +0.044 A 
ATOM      8  S   UNL     1       0.035  -0.271   2.893  0.00  0.00    -0.071 S 
ATOM      9  C   UNL     1       0.071  -1.905   3.569  0.00  0.00    +0.078 A 
ATOM     10  C   UNL     1       0.048  -2.729   2.479  0.00  0.00    +0.015 A 
ATOM     11  C   UNL     1       0.034  -4.240   2.698  0.00  0.00    +0.062 C 
ATOM     12  C   UNL     1       0.750  -4.549   4.012  0.00  0.00    +0.109 C 
ATOM     13  C   UNL     1       0.299  -3.637   5.118  0.00  0.00    +0.218 C 
ATOM     14  O   UNL     1       0.138  -4.082   6.235  0.00  0.00    -0.275 OA
ATOM     15  N   UNL     1       0.093  -2.323   4.881  0.00  0.00    -0.280 N 
ATOM     16  H   UNL     1      -0.051  -1.699   5.610  0.00  0.00    +0.155 HD
ENDROOT
BRANCH  11  17
ATOM     17  C   UNL     1      -1.390  -4.728   2.767  0.00  0.00    -0.039 A 
ATOM     18  C   UNL     1      -2.241  -4.239   3.740  0.00  0.00    +0.008 A 
ATOM     19  C   UNL     1      -3.547  -4.685   3.806  0.00  0.00    +0.046 A 
ATOM     20  C   UNL     1      -4.004  -5.625   2.893  0.00  0.00    +0.121 A 
ATOM     21  C   UNL     1      -3.148  -6.115   1.918  0.00  0.00    +0.046 A 
ATOM     22  C   UNL     1      -1.844  -5.661   1.853  0.00  0.00    +0.008 A 
BRANCH  20  23
ATOM     23  O   UNL     1      -5.288  -6.066   2.956  0.00  0.00    -0.487 OA
BRANCH  23  24
ATOM     24  C   UNL     1      -5.689  -7.035   1.985  0.00  0.00    +0.264 C 
BRANCH  24  25
ATOM     25  C   UNL     1      -7.133  -7.402   2.209  0.00  0.00    -0.010 A 
ATOM     26  C   UNL     1      -7.458  -8.447   3.053  0.00  0.00    +0.007 A 
ATOM     27  C   UNL     1      -8.783  -8.784   3.259  0.00  0.00    +0.000 A 
ATOM     28  C   UNL     1      -9.783  -8.075   2.620  0.00  0.00    +0.000 A 
ATOM     29  C   UNL     1      -9.459  -7.030   1.776  0.00  0.00    +0.000 A 
ATOM     30  C   UNL     1      -8.134  -6.690   1.574  0.00  0.00    +0.007 A 
ENDBRANCH  24  25
ENDBRANCH  23  24
ENDBRANCH  20  23
ENDBRANCH  11  17
BRANCH   4  31
ATOM     31  N   UNL     1       0.031  -2.856  -2.320  0.00  0.00    -0.342 N 
ATOM     32  H   UNL     1       0.020  -2.396  -3.174  0.00  0.00    +0.144 HD
ATOM     33  H   UNL     1       0.045  -3.826  -2.292  0.00  0.00    +0.144 HD
ENDBRANCH   4  31
BRANCH   3  34
ATOM     34  C   UNL     1      -0.010  -0.040  -2.465  0.00  0.00    +0.103 C 
ATOM     35  N   UNL     1      -0.023   0.499  -3.465  0.00  0.00    -0.191 NA
ENDBRANCH   3  34
TORSDOF 6
