REMARK  Name = ZINC20418921
REMARK  11 active torsions:
REMARK  status: ('A' for Active; 'I' for Inactive)
REMARK    1  A    between atoms: C_1  and  C_2
REMARK    2  A    between atoms: C_3  and  C_33
REMARK    3  A    between atoms: C_4  and  C_24
REMARK    4  A    between atoms: C_10  and  C_15
REMARK    5  A    between atoms: C_18  and  N_21
REMARK    6  A    between atoms: N_21  and  C_22
REMARK    7  A    between atoms: N_21  and  C_23
REMARK    8  A    between atoms: C_27  and  N_30
REMARK    9  A    between atoms: C_33  and  O_35
REMARK   10  A    between atoms: O_35  and  C_36
REMARK   11  A    between atoms: C_36  and  C_37
REMARK                            x       y       z     vdW  Elec       q    Type
REMARK                         _______ _______ _______ _____ _____    ______ ____
ROOT
ATOM      1  C   UNL     1       8.438  -1.540  -3.902  0.00  0.00    +0.061 C 
ATOM      2  C   UNL     1       7.746  -1.613  -2.565  0.00  0.00    +0.016 C 
ATOM      3  C   UNL     1       8.451  -1.927  -1.465  0.00  0.00    +0.065 C 
ATOM      4  C   UNL     1       7.794  -2.018  -0.119  0.00  0.00    +0.092 C 
ATOM      5  C   UNL     1       6.457  -1.319  -0.120  0.00  0.00    +0.024 C 
ATOM      6  C   UNL     1       5.833  -1.028  -1.281  0.00  0.00    +0.016 C 
ATOM      7  N   UNL     1       6.405  -1.361  -2.480  0.00  0.00    -0.321 N 
ATOM      8  C   UNL     1       4.497  -0.329  -1.291  0.00  0.00    +0.059 C 
ATOM      9  C   UNL     1       3.710  -0.707  -0.034  0.00  0.00    +0.032 C 
ATOM     10  C   UNL     1       4.535  -0.315   1.197  0.00  0.00    +0.088 C 
ATOM     11  C   UNL     1       5.880  -0.986   1.117  0.00  0.00    +0.162 C 
ATOM     12  O   UNL     1       6.476  -1.247   2.143  0.00  0.00    -0.292 OA
ATOM     13  H   UNL     1       5.775  -1.424  -3.380  0.00  0.00    +0.152 HD
ENDROOT
BRANCH   9  14
ATOM     14  C   UNL     1       2.396   0.031  -0.018  0.00  0.00    -0.043 A 
ATOM     15  C   UNL     1       1.208  -0.677   0.004  0.00  0.00    +0.006 A 
ATOM     16  C   UNL     1       0.002  -0.004   0.018  0.00  0.00    +0.023 A 
ATOM     17  C   UNL     1      -0.017   1.385   0.011  0.00  0.00    +0.029 A 
ATOM     18  C   UNL     1       1.178   2.092  -0.011  0.00  0.00    +0.023 A 
ATOM     19  C   UNL     1       2.381   1.413  -0.025  0.00  0.00    +0.006 A 
BRANCH  17  20
ATOM     20  N   UNL     1      -1.235   2.068   0.019  0.00  0.00    -0.336 N 
ATOM     21  C   UNL     1      -2.493   1.325  -0.090  0.00  0.00    +0.129 C 
ATOM     22  C   UNL     1      -1.255   3.528   0.138  0.00  0.00    +0.129 C 
ENDBRANCH  17  20
ENDBRANCH   9  14
BRANCH   4  23
ATOM     23  C   UNL     1       7.594  -3.469   0.236  0.00  0.00    -0.035 A 
ATOM     24  C   UNL     1       6.815  -4.277  -0.571  0.00  0.00    +0.007 A 
ATOM     25  C   UNL     1       6.635  -5.609  -0.248  0.00  0.00    +0.033 A 
ATOM     26  C   UNL     1       7.226  -6.131   0.887  0.00  0.00    +0.126 A 
ATOM     27  C   UNL     1       8.001  -5.322   1.698  0.00  0.00    +0.033 A 
ATOM     28  C   UNL     1       8.184  -3.991   1.372  0.00  0.00    +0.007 A 
BRANCH  26  29
ATOM     29  N   UNL     1       7.030  -7.556   1.236  0.00  0.00    +0.056 N 
ATOM     30  O   UNL     1       7.552  -8.016   2.236  0.00  0.00    -0.126 OA
ATOM     31  O   UNL     1       6.348  -8.269   0.522  0.00  0.00    -0.126 OA
ENDBRANCH  26  29
ENDBRANCH   4  23
BRANCH   3  32
ATOM     32  C   UNL     1       9.839  -2.175  -1.577  0.00  0.00    +0.338 C 
ATOM     33  O   UNL     1      10.384  -2.104  -2.663  0.00  0.00    -0.245 OA
BRANCH  32  34
ATOM     34  O   UNL     1      10.559  -2.491  -0.481  0.00  0.00    -0.459 OA
BRANCH  34  35
ATOM     35  C   UNL     1      11.956  -2.730  -0.668  0.00  0.00    +0.264 C 
BRANCH  35  36
ATOM     36  C   UNL     1      12.600  -3.071   0.677  0.00  0.00    +0.156 C 
ATOM     37  C   UNL     1      14.127  -3.217   0.504  0.00  0.00    +0.037 C 
ATOM     38  C   UNL     1      14.450  -4.421   1.431  0.00  0.00    +0.031 C 
ATOM     39  C   UNL     1      13.168  -5.275   1.261  0.00  0.00    +0.160 C 
ATOM     40  O   UNL     1      12.096  -4.325   1.153  0.00  0.00    -0.373 OA
ENDBRANCH  35  36
ENDBRANCH  34  35
ENDBRANCH  32  34
ENDBRANCH   3  32
TORSDOF 8
