REMARK  Name = ZINC50834628
REMARK  11 active torsions:
REMARK  status: ('A' for Active; 'I' for Inactive)
REMARK    1  A    between atoms: C_1  and  C_2
REMARK    2  A    between atoms: C_2  and  C_4
REMARK    3  A    between atoms: C_2  and  N_10
REMARK    4  A    between atoms: C_13  and  C_28
REMARK    5  A    between atoms: N_19  and  C_22
REMARK    6  A    between atoms: C_22  and  N_24
REMARK    7  A    between atoms: N_24  and  C_25
REMARK    8  A    between atoms: C_25  and  C_26
REMARK    9  A    between atoms: C_25  and  C_27
REMARK   10  A    between atoms: C_28  and  C_29
REMARK   11  A    between atoms: C_28  and  C_30
REMARK                            x       y       z     vdW  Elec       q    Type
REMARK                         _______ _______ _______ _____ _____    ______ ____
ROOT
ATOM      1  N   UNL     1      -0.844  -1.636   0.995  0.00  0.00    -0.307 N 
ATOM      2  C   UNL     1      -0.105  -2.662   1.468  0.00  0.00    +0.201 C 
ATOM      3  O   UNL     1       1.105  -2.741   1.426  0.00  0.00    -0.277 OA
ATOM      4  C   UNL     1      -1.039  -3.695   2.059  0.00  0.00    +0.022 C 
ATOM      5  N   UNL     1      -2.325  -2.980   2.245  0.00  0.00    +0.401 N 
ATOM      6  C   UNL     1      -2.265  -1.908   1.231  0.00  0.00    +0.007 C 
ATOM      7  C   UNL     1      -2.932  -2.386  -0.058  0.00  0.00    +0.025 C 
ATOM      8  C   UNL     1      -2.835  -1.285  -1.119  0.00  0.00    +0.107 C 
ATOM      9  N   UNL     1      -3.391  -0.043  -0.564  0.00  0.00    -0.313 N 
ATOM     10  C   UNL     1      -2.865   0.459   0.712  0.00  0.00    +0.107 C 
ATOM     11  C   UNL     1      -2.963  -0.656   1.758  0.00  0.00    +0.025 C 
ATOM     12  H   UNL     1      -3.104  -3.596   2.070  0.00  0.00    -0.082 HD
ATOM     13  H   UNL     1      -2.382  -2.585   3.172  0.00  0.00    -0.082 HD
ENDROOT
BRANCH   4  14
ATOM     14  C   UNL     1      -0.503  -4.191   3.403  0.00  0.00    -0.023 C 
ATOM     15  C   UNL     1       0.859  -4.856   3.195  0.00  0.00    +0.006 C 
ATOM     16  C   UNL     1      -0.352  -3.007   4.360  0.00  0.00    +0.006 C 
ENDBRANCH   4  14
BRANCH   1  18
ATOM     17  C   UNL     1       0.326   0.471   1.409  0.00  0.00    +0.033 C 
ATOM     18  C   UNL     1      -0.309  -0.434   0.351  0.00  0.00    +0.101 C 
BRANCH  18  19
ATOM     19  C   UNL     1       0.733  -0.829  -0.663  0.00  0.00    -0.027 A 
ATOM     20  C   UNL     1       2.072  -0.606  -0.400  0.00  0.00    +0.005 A 
ATOM     21  C   UNL     1       3.029  -0.969  -1.330  0.00  0.00    +0.000 A 
ATOM     22  C   UNL     1       2.646  -1.554  -2.523  0.00  0.00    +0.000 A 
ATOM     23  C   UNL     1       1.307  -1.777  -2.785  0.00  0.00    +0.000 A 
ATOM     24  C   UNL     1       0.351  -1.419  -1.853  0.00  0.00    +0.005 A 
ENDBRANCH  18  19
ENDBRANCH   1  18
BRANCH   9  25
ATOM     25  C   UNL     1      -4.366   0.623  -1.215  0.00  0.00    +0.133 C 
ATOM     26  S   UNL     1      -4.852   2.172  -0.674  0.00  0.00    -0.019 S 
BRANCH  25  27
ATOM     27  N   UNL     1      -4.958   0.068  -2.292  0.00  0.00    -0.324 N 
ATOM     28  H   UNL     1      -4.551  -0.696  -2.729  0.00  0.00    +0.148 HD
BRANCH  27  29
ATOM     29  C   UNL     1      -6.215   0.621  -2.802  0.00  0.00    +0.066 C 
ATOM     30  C   UNL     1      -6.355   0.283  -4.287  0.00  0.00    +0.027 C 
ATOM     31  C   UNL     1      -7.389   0.016  -2.028  0.00  0.00    +0.027 C 
ENDBRANCH  27  29
ENDBRANCH  25  27
ENDBRANCH   9  25
TORSDOF 6
