REMARK  Name = ZINC06731236
REMARK  5 active torsions:
REMARK  status: ('A' for Active; 'I' for Inactive)
REMARK    1  A    between atoms: C_4  and  O_7
REMARK    2  A    between atoms: O_7  and  C_8
REMARK    3  A    between atoms: C_13  and  N_14
REMARK    4  A    between atoms: C_15  and  C_17
REMARK    5  A    between atoms: C_25  and  C_27
REMARK                            x       y       z     vdW  Elec       q    Type
REMARK                         _______ _______ _______ _____ _____    ______ ____
ROOT
ATOM      1  N   UNL     1       4.669   5.331  -0.232  0.00  0.00    -0.282 N 
ATOM      2  C   UNL     1       5.724   5.927  -0.824  0.00  0.00    +0.224 C 
ATOM      3  O   UNL     1       5.574   6.973  -1.419  0.00  0.00    -0.275 OA
ATOM      4  H   UNL     1       4.770   4.455   0.171  0.00  0.00    +0.155 HD
ENDROOT
BRANCH   2   5
ATOM      5  C   UNL     1       7.088   5.293  -0.746  0.00  0.00    +0.124 C 
ATOM      6  C   UNL     1       8.205   6.380  -0.658  0.00  0.00    +0.154 C 
ATOM      7  C   UNL     1       9.495   5.604  -0.380  0.00  0.00    +0.003 C 
ATOM      8  C   UNL     1       9.802   4.993  -1.533  0.00  0.00    +0.003 C 
ATOM      9  C   UNL     1       8.709   5.370  -2.536  0.00  0.00    +0.156 C 
ATOM     10  C   UNL     1       7.446   4.577  -2.076  0.00  0.00    +0.149 C 
ATOM     11  O   UNL     1       8.375   6.723  -2.075  0.00  0.00    -0.364 OA
BRANCH  10  12
ATOM     12  C   UNL     1       6.329   4.715  -3.079  0.00  0.00    +0.363 C 
ATOM     13  O   UNL     1       6.358   5.601  -3.898  0.00  0.00    -0.246 OA
ATOM     14  O   UNL     1       5.301   3.851  -3.060  0.00  0.00    -0.246 OA
ENDBRANCH  10  12
ENDBRANCH   2   5
BRANCH   1  20
ATOM     15  C   UNL     1       2.255   5.234  -0.083  0.00  0.00    +0.150 A 
ATOM     16  C   UNL     1       1.028   5.878  -0.059  0.00  0.00    +0.048 A 
ATOM     17  C   UNL     1       0.970   7.257  -0.139  0.00  0.00    +0.004 A 
ATOM     18  C   UNL     1       2.133   7.996  -0.256  0.00  0.00    +0.002 A 
ATOM     19  C   UNL     1       3.360   7.361  -0.287  0.00  0.00    +0.027 A 
ATOM     20  C   UNL     1       3.426   5.978  -0.201  0.00  0.00    +0.076 A 
BRANCH  15  21
ATOM     21  O   UNL     1       2.314   3.878   0.002  0.00  0.00    -0.454 OA
BRANCH  21  25
ATOM     22  C   UNL     1      -1.236   1.777   0.010  0.00  0.00    +0.000 A 
ATOM     23  C   UNL     1      -0.430   1.774   1.133  0.00  0.00    +0.004 A 
ATOM     24  C   UNL     1       0.760   2.475   1.132  0.00  0.00    +0.046 A 
ATOM     25  C   UNL     1       1.144   3.187   0.005  0.00  0.00    +0.129 A 
ATOM     26  C   UNL     1       0.330   3.194  -1.119  0.00  0.00    +0.046 A 
ATOM     27  C   UNL     1      -0.859   2.491  -1.113  0.00  0.00    +0.004 A 
ENDBRANCH  21  25
ENDBRANCH  15  21
ENDBRANCH   1  20
TORSDOF 5
