REMARK  Name = ZINC39608198
REMARK  10 active torsions:
REMARK  status: ('A' for Active; 'I' for Inactive)
REMARK    1  A    between atoms: C_1  and  C_2
REMARK    2  A    between atoms: C_2  and  N_3
REMARK    3  A    between atoms: C_4  and  C_10
REMARK    4  A    between atoms: C_6  and  C_8
REMARK    5  A    between atoms: C_14  and  C_23
REMARK    6  A    between atoms: N_25  and  C_26
REMARK    7  A    between atoms: C_26  and  C_28
REMARK    8  A    between atoms: C_26  and  C_29
REMARK    9  A    between atoms: C_29  and  C_30
REMARK   10  A    between atoms: C_29  and  C_31
REMARK                            x       y       z     vdW  Elec       q    Type
REMARK                         _______ _______ _______ _____ _____    ______ ____
ROOT
ATOM      1  C   UNL     1      -1.727  -0.628  -2.651  0.00  0.00    +0.266 C 
ATOM      2  O   UNL     1      -2.253  -0.956  -3.698  0.00  0.00    -0.268 OA
ATOM      3  N   UNL     1      -2.482  -0.175  -1.630  0.00  0.00    -0.295 N 
ATOM      4  C   UNL     1      -2.038   0.197  -0.267  0.00  0.00    +0.121 C 
ATOM      5  C   UNL     1      -2.867   1.451   0.086  0.00  0.00    +0.100 C 
ATOM      6  C   UNL     1      -4.119   1.357  -0.803  0.00  0.00    -0.004 C 
ATOM      7  C   UNL     1      -3.945   0.069  -1.621  0.00  0.00    +0.115 C 
ATOM      8  C   UNL     1      -4.196   2.561  -1.737  0.00  0.00    -0.010 C 
ATOM      9  C   UNL     1      -5.478   2.473  -2.570  0.00  0.00    -0.082 C 
ATOM     10  N   UNL     1      -6.643   2.446  -1.677  0.00  0.00    +0.379 N 
ATOM     11  C   UNL     1      -6.609   1.236  -0.847  0.00  0.00    -0.082 C 
ATOM     12  C   UNL     1      -5.375   1.271   0.059  0.00  0.00    -0.010 C 
ATOM     13  H   UNL     1      -6.629   3.261  -1.083  0.00  0.00    -0.086 HD
ATOM     14  H   UNL     1      -7.487   2.449  -2.229  0.00  0.00    -0.086 HD
ENDROOT
BRANCH   1  16
ATOM     15  N   UNL     1       0.437  -1.791  -2.013  0.00  0.00    -0.258 N 
ATOM     16  C   UNL     1      -0.268  -0.726  -2.499  0.00  0.00    +0.138 A 
ATOM     17  C   UNL     1       0.668   0.243  -2.820  0.00  0.00    +0.071 A 
ATOM     18  C   UNL     1       1.907  -0.318  -2.497  0.00  0.00    +0.075 A 
ATOM     19  N   UNL     1       1.692  -1.518  -2.022  0.00  0.00    -0.175 NA
ATOM     20  C   UNL     1       3.251   0.343  -2.662  0.00  0.00    +0.069 C 
ATOM     21 BR   UNL     1       0.341   1.960  -3.541  0.00  0.00    -0.046 Br
BRANCH  15  23
ATOM     22  C   UNL     1      -0.534  -2.918  -0.072  0.00  0.00    +0.029 C 
ATOM     23  C   UNL     1      -0.149  -3.050  -1.547  0.00  0.00    +0.141 C 
ENDBRANCH  15  23
ENDBRANCH   1  16
BRANCH   5  24
ATOM     24  C   UNL     1      -2.088   2.702  -0.232  0.00  0.00    +0.218 C 
ATOM     25  O   UNL     1      -1.334   2.722  -1.181  0.00  0.00    -0.275 OA
ATOM     26  N   UNL     1      -2.230   3.798   0.539  0.00  0.00    -0.312 N 
ATOM     27  H   UNL     1      -2.777   3.761   1.340  0.00  0.00    +0.149 HD
BRANCH  26  28
ATOM     28  C   UNL     1      -1.558   5.046   0.169  0.00  0.00    +0.072 C 
ATOM     29  C   UNL     1      -0.099   4.995   0.627  0.00  0.00    +0.028 C 
BRANCH  28  30
ATOM     30  C   UNL     1      -2.263   6.225   0.844  0.00  0.00    +0.003 C 
ATOM     31  C   UNL     1      -2.103   6.114   2.361  0.00  0.00    +0.009 C 
ATOM     32  C   UNL     1      -1.640   7.536   0.360  0.00  0.00    +0.009 C 
ENDBRANCH  28  30
ENDBRANCH  26  28
ENDBRANCH   5  24
TORSDOF 5
