REMARK  Name = ZINC12402362
REMARK  9 active torsions:
REMARK  status: ('A' for Active; 'I' for Inactive)
REMARK    1  A    between atoms: C_1  and  C_2
REMARK    2  A    between atoms: C_2  and  C_30
REMARK    3  A    between atoms: C_6  and  C_14
REMARK    4  A    between atoms: C_8  and  C_12
REMARK    5  A    between atoms: C_9  and  N_11
REMARK    6  A    between atoms: C_16  and  C_19
REMARK    7  A    between atoms: C_19  and  S_20
REMARK    8  A    between atoms: S_20  and  C_21
REMARK    9  A    between atoms: N_25  and  C_26
REMARK                            x       y       z     vdW  Elec       q    Type
REMARK                         _______ _______ _______ _____ _____    ______ ____
ROOT
ATOM      1  C   UNL     1       2.910   7.909  -2.687  0.00  0.00    +0.012 C 
ATOM      2  C   UNL     1       3.160   6.558  -3.360  0.00  0.00    -0.021 C 
ATOM      3  C   UNL     1       3.917   5.638  -2.400  0.00  0.00    +0.081 C 
ATOM      4  C   UNL     1       3.088   5.406  -1.158  0.00  0.00    +0.115 C 
ATOM      5  C   UNL     1       1.744   5.404  -1.220  0.00  0.00    +0.046 C 
ATOM      6  C   UNL     1       0.918   5.160   0.020  0.00  0.00    +0.108 C 
ATOM      7  C   UNL     1       1.751   5.396   1.249  0.00  0.00    +0.099 C 
ATOM      8  C   UNL     1       3.104   5.403   1.169  0.00  0.00    +0.198 C 
ATOM      9  O   UNL     1       3.736   5.197   0.003  0.00  0.00    -0.445 OA
ATOM     10  C   UNL     1       1.067   5.628  -2.434  0.00  0.00    +0.164 C 
ATOM     11  O   UNL     1      -0.147   5.601  -2.454  0.00  0.00    -0.292 OA
ATOM     12  C   UNL     1       1.820   5.900  -3.708  0.00  0.00    +0.086 C 
ATOM     13  C   UNL     1       3.983   6.763  -4.633  0.00  0.00    +0.012 C 
ENDROOT
BRANCH   6  14
ATOM     14  C   UNL     1       0.421   3.738   0.017  0.00  0.00    +0.003 A 
ATOM     15  C   UNL     1      -0.855   3.279   0.027  0.00  0.00    +0.016 A 
ATOM     16  C   UNL     1      -1.077   1.915   0.017  0.00  0.00    -0.030 A 
ATOM     17  C   UNL     1      -0.013   1.076   0.008  0.00  0.00    +0.050 A 
ATOM     18  S   UNL     1       1.359   2.219   0.001  0.00  0.00    -0.100 S 
BRANCH  16  19
ATOM     19  C   UNL     1      -2.482   1.369   0.019  0.00  0.00    +0.113 C 
BRANCH  19  20
ATOM     20  S   UNL     1      -3.038   1.141   1.726  0.00  0.00    -0.080 S 
BRANCH  20  21
ATOM     21  C   UNL     1      -4.659   0.513   1.439  0.00  0.00    +0.209 A 
ATOM     22  N   UNL     1      -5.219   0.302   0.268  0.00  0.00    -0.102 NA
ATOM     23  N   UNL     1      -6.407  -0.161   0.415  0.00  0.00    -0.022 NA
ATOM     24  N   UNL     1      -6.691  -0.279   1.667  0.00  0.00    -0.043 NA
ATOM     25  N   UNL     1      -5.560   0.150   2.382  0.00  0.00    -0.223 N 
ATOM     26  C   UNL     1      -5.393   0.198   3.837  0.00  0.00    +0.177 C 
ENDBRANCH  20  21
ENDBRANCH  19  20
ENDBRANCH  16  19
ENDBRANCH   6  14
BRANCH   8  27
ATOM     27  N   UNL     1       3.842   5.626   2.304  0.00  0.00    -0.328 N 
ATOM     28  H   UNL     1       4.811   5.633   2.258  0.00  0.00    +0.145 HD
ATOM     29  H   UNL     1       3.396   5.776   3.152  0.00  0.00    +0.145 HD
ENDBRANCH   8  27
BRANCH   7  30
ATOM     30  C   UNL     1       1.111   5.613   2.511  0.00  0.00    +0.101 C 
ATOM     31  N   UNL     1       0.604   5.786   3.513  0.00  0.00    -0.191 NA
ENDBRANCH   7  30
TORSDOF 6
