REMARK  Name = ZINC05055710
REMARK  6 active torsions:
REMARK  status: ('A' for Active; 'I' for Inactive)
REMARK    1  A    between atoms: C_1  and  N_2
REMARK    2  A    between atoms: C_3  and  C_5
REMARK    3  A    between atoms: C_9  and  N_10
REMARK    4  A    between atoms: C_11  and  C_13
REMARK    5  A    between atoms: C_14  and  C_15
REMARK    6  A    between atoms: C_18  and  N_21
REMARK                            x       y       z     vdW  Elec       q    Type
REMARK                         _______ _______ _______ _____ _____    ______ ____
ROOT
ATOM      1  N   UNL     1       0.345   0.980   1.442  0.00  0.00    -0.276 N 
ATOM      2  C   UNL     1       1.466   1.637   1.087  0.00  0.00    +0.241 C 
ATOM      3  O   UNL     1       1.602   2.811   1.379  0.00  0.00    -0.270 OA
ATOM      4  H   UNL     1       0.236   0.044   1.208  0.00  0.00    +0.156 HD
ENDROOT
BRANCH   1   9
ATOM      5  C   UNL     1      -1.872   1.144   2.572  0.00  0.00    +0.069 A 
ATOM      6  C   UNL     1      -2.757   2.059   3.292  0.00  0.00    -0.023 A 
ATOM      7  C   UNL     1      -2.285   3.309   3.444  0.00  0.00    -0.004 A 
ATOM      8  S   UNL     1      -0.693   3.290   2.657  0.00  0.00    -0.077 S 
ATOM      9  C   UNL     1      -0.656   1.641   2.135  0.00  0.00    +0.085 A 
ATOM     10  C   UNL     1      -3.250   4.190   4.190  0.00  0.00    +0.043 C 
ATOM     11  C   UNL     1      -4.226   3.207   4.873  0.00  0.00    +0.010 C 
ATOM     12  C   UNL     1      -4.139   1.981   3.943  0.00  0.00    +0.037 C 
BRANCH   5  15
ATOM     13  C   UNL     1      -3.310  -1.967   0.957  0.00  0.00    +0.128 C 
ATOM     14  N   UNL     1      -2.925  -0.575   1.203  0.00  0.00    -0.314 N 
ATOM     15  C   UNL     1      -2.257  -0.249   2.327  0.00  0.00    +0.246 C 
ATOM     16  O   UNL     1      -1.973  -1.111   3.138  0.00  0.00    -0.270 OA
ATOM     17  H   UNL     1      -3.152   0.112   0.556  0.00  0.00    +0.149 HD
ENDBRANCH   5  15
ENDBRANCH   1   9
BRANCH   2  18
ATOM     18  C   UNL     1       2.521   0.940   0.349  0.00  0.00    +0.068 C 
ATOM     19  C   UNL     1       3.579   1.628  -0.125  0.00  0.00    +0.013 C 
BRANCH  19  20
ATOM     20  C   UNL     1       3.564   3.100  -0.117  0.00  0.00    -0.025 A 
ATOM     21  C   UNL     1       2.419   3.793  -0.522  0.00  0.00    +0.010 A 
ATOM     22  C   UNL     1       2.411   5.172  -0.506  0.00  0.00    +0.033 A 
ATOM     23  C   UNL     1       3.536   5.870  -0.102  0.00  0.00    +0.126 A 
ATOM     24  C   UNL     1       4.675   5.191   0.294  0.00  0.00    +0.033 A 
ATOM     25  C   UNL     1       4.697   3.812   0.289  0.00  0.00    +0.010 A 
BRANCH  23  26
ATOM     26  N   UNL     1       3.521   7.350  -0.094  0.00  0.00    +0.056 N 
ATOM     27  O   UNL     1       4.509   7.967   0.260  0.00  0.00    -0.126 OA
ATOM     28  O   UNL     1       2.519   7.950  -0.442  0.00  0.00    -0.126 OA
ENDBRANCH  23  26
ENDBRANCH  19  20
ENDBRANCH   2  18
TORSDOF 5
