REMARK  Name = ZINC02763497
REMARK  7 active torsions:
REMARK  status: ('A' for Active; 'I' for Inactive)
REMARK    1  A    between atoms: C_1  and  C_2
REMARK    2  A    between atoms: C_3  and  N_16
REMARK    3  A    between atoms: C_4  and  C_15
REMARK    4  A    between atoms: N_5  and  C_7
REMARK    5  A    between atoms: C_7  and  C_8
REMARK    6  A    between atoms: C_17  and  C_19
REMARK    7  A    between atoms: C_25  and  C_27
REMARK                            x       y       z     vdW  Elec       q    Type
REMARK                         _______ _______ _______ _____ _____    ______ ____
ROOT
ATOM      1  C   UNL     1      -0.406   1.515   0.072  0.00  0.00    +0.069 C 
ATOM      2  C   UNL     1      -0.196   0.023   0.044  0.00  0.00    +0.081 A 
ATOM      3  C   UNL     1      -0.163  -0.780  -1.106  0.00  0.00    +0.077 A 
ATOM      4  C   UNL     1       0.048  -2.062  -0.712  0.00  0.00    +0.058 A 
ATOM      5  N   UNL     1       0.144  -2.064   0.643  0.00  0.00    -0.262 N 
ATOM      6  N   UNL     1      -0.007  -0.744   1.087  0.00  0.00    -0.174 NA
ATOM      7  C   UNL     1       0.155  -3.265  -1.614  0.00  0.00    +0.067 C 
ENDROOT
BRANCH   3   8
ATOM      8  N   UNL     1      -0.321  -0.336  -2.432  0.00  0.00    -0.282 N 
ATOM      9  C   UNL     1       0.132   0.881  -2.793  0.00  0.00    +0.221 C 
ATOM     10  O   UNL     1       0.736   1.566  -1.994  0.00  0.00    -0.275 OA
ATOM     11  H   UNL     1      -0.755  -0.905  -3.086  0.00  0.00    +0.155 HD
BRANCH   9  12
ATOM     12  C   UNL     1      -0.110   1.391  -4.190  0.00  0.00    +0.093 C 
ATOM     13  C   UNL     1      -0.454   2.882  -4.141  0.00  0.00    +0.040 C 
ATOM     14  C   UNL     1       0.760   3.680  -3.764  0.00  0.00    -0.030 C 
ATOM     15  C   UNL     1       1.972   3.230  -3.829  0.00  0.00    -0.030 C 
ATOM     16  C   UNL     1       2.332   1.845  -4.278  0.00  0.00    +0.042 C 
ATOM     17  C   UNL     1       1.158   1.209  -5.034  0.00  0.00    +0.118 C 
BRANCH  17  18
ATOM     18  C   UNL     1       1.418  -0.260  -5.246  0.00  0.00    +0.360 C 
ATOM     19  O   UNL     1       1.810  -0.660  -6.329  0.00  0.00    -0.246 OA
ATOM     20  O   UNL     1       1.237  -1.049  -4.334  0.00  0.00    -0.246 OA
ENDBRANCH  17  18
ENDBRANCH   9  12
ENDBRANCH   3   8
BRANCH   5  21
ATOM     21  C   UNL     1       0.371  -3.238   1.490  0.00  0.00    +0.179 C 
BRANCH  21  22
ATOM     22  C   UNL     1       1.852  -3.441   1.680  0.00  0.00    -0.026 A 
ATOM     23  C   UNL     1       2.562  -4.226   0.791  0.00  0.00    +0.007 A 
ATOM     24  C   UNL     1       3.920  -4.413   0.965  0.00  0.00    +0.020 A 
ATOM     25  C   UNL     1       4.569  -3.814   2.030  0.00  0.00    +0.041 A 
ATOM     26  C   UNL     1       3.859  -3.029   2.920  0.00  0.00    +0.020 A 
ATOM     27  C   UNL     1       2.501  -2.838   2.741  0.00  0.00    +0.007 A 
ATOM     28 CL   UNL     1       6.275  -4.049   2.250  0.00  0.00    -0.084 Cl
ENDBRANCH  21  22
ENDBRANCH   5  21
TORSDOF 5
