REMARK  Name = ZINC40829557
REMARK  3 active torsions:
REMARK  status: ('A' for Active; 'I' for Inactive)
REMARK    1  A    between atoms: C_1  and  C_2
REMARK    2  A    between atoms: C_10  and  O_30
REMARK    3  A    between atoms: N_22  and  N_23
REMARK                            x       y       z     vdW  Elec       q    Type
REMARK                         _______ _______ _______ _____ _____    ______ ____
ROOT
ATOM      1  C   UNL     1      -0.019   1.531   0.011  0.00  0.00    +0.018 C 
ATOM      2  C   UNL     1       0.002  -0.004   0.002  0.00  0.00    +0.011 C 
ATOM      3  C   UNL     1       0.634  -0.460  -1.292  0.00  0.00    +0.013 C 
ATOM      4  C   UNL     1       0.885  -1.964  -1.300  0.00  0.00    +0.009 C 
ATOM      5  C   UNL     1       1.815  -2.314  -0.132  0.00  0.00    +0.023 C 
ATOM      6  C   UNL     1       2.110  -3.793  -0.188  0.00  0.00    -0.041 A 
ATOM      7  C   UNL     1       3.044  -4.228  -1.119  0.00  0.00    +0.008 A 
ATOM      8  C   UNL     1       3.356  -5.567  -1.226  0.00  0.00    +0.046 A 
ATOM      9  C   UNL     1       2.732  -6.486  -0.394  0.00  0.00    +0.117 A 
ATOM     10  C   UNL     1       1.803  -6.050   0.534  0.00  0.00    +0.049 A 
ATOM     11  C   UNL     1       1.491  -4.701   0.641  0.00  0.00    -0.040 A 
ATOM     12  C   UNL     1       0.475  -4.298   1.676  0.00  0.00    +0.036 C 
ATOM     13  C   UNL     1      -0.059  -2.890   1.399  0.00  0.00    +0.009 C 
ATOM     14  C   UNL     1       1.130  -1.958   1.181  0.00  0.00    +0.001 C 
ATOM     15  C   UNL     1       0.749  -0.490   1.253  0.00  0.00    +0.005 C 
ATOM     16  C   UNL     1      -0.313  -0.307   2.371  0.00  0.00    +0.010 C 
ATOM     17  C   UNL     1      -1.675  -0.485   1.671  0.00  0.00    +0.053 C 
ATOM     18  C   UNL     1      -1.414  -0.500   0.176  0.00  0.00    +0.043 C 
ATOM     19  N   UNL     1      -2.227  -0.855  -0.744  0.00  0.00    -0.190 NA
ENDROOT
BRANCH  19  20
ATOM     20  N   UNL     1      -3.515  -1.293  -0.409  0.00  0.00    -0.221 N 
ATOM     21  C   UNL     1      -4.400  -1.680  -1.409  0.00  0.00    +0.138 A 
ATOM     22  C   UNL     1      -5.679  -2.109  -1.070  0.00  0.00    +0.045 A 
ATOM     23  C   UNL     1      -6.549  -2.490  -2.076  0.00  0.00    +0.005 A 
ATOM     24  C   UNL     1      -6.109  -2.430  -3.392  0.00  0.00    +0.020 A 
ATOM     25  C   UNL     1      -4.826  -1.994  -3.656  0.00  0.00    +0.113 A 
ATOM     26  N   UNL     1      -4.019  -1.632  -2.677  0.00  0.00    -0.239 NA
ATOM     27  H   UNL     1      -3.790  -1.327   0.521  0.00  0.00    +0.176 HD
ENDBRANCH  19  20
BRANCH   9  28
ATOM     28  O   UNL     1       3.031  -7.808  -0.493  0.00  0.00    -0.507 OA
ATOM     29  H   UNL     1       3.761  -8.089   0.075  0.00  0.00    +0.292 HD
ENDBRANCH   9  28
TORSDOF 2
