REMARK  Name = ZINC19521617
REMARK  9 active torsions:
REMARK  status: ('A' for Active; 'I' for Inactive)
REMARK    1  A    between atoms: C_1  and  C_2
REMARK    2  A    between atoms: C_2  and  C_3
REMARK    3  A    between atoms: C_4  and  C_20
REMARK    4  A    between atoms: N_8  and  C_9
REMARK    5  A    between atoms: C_9  and  C_11
REMARK    6  A    between atoms: C_14  and  C_19
REMARK    7  A    between atoms: N_15  and  C_18
REMARK    8  A    between atoms: C_23  and  O_26
REMARK    9  A    between atoms: O_26  and  C_27
REMARK                            x       y       z     vdW  Elec       q    Type
REMARK                         _______ _______ _______ _____ _____    ______ ____
ROOT
ATOM      1  C   UNL     1       3.450   1.508  -0.816  0.00  0.00    +0.017 A 
ATOM      2  C   UNL     1       2.428   1.048  -0.033  0.00  0.00    +0.058 A 
ATOM      3  N   UNL     1       2.606  -0.047   0.691  0.00  0.00    -0.335 N 
ATOM      4  C   UNL     1       3.753  -0.700   0.675  0.00  0.00    +0.164 A 
ATOM      5  S   UNL     1       4.712   0.292  -0.462  0.00  0.00    -0.057 S 
ATOM      6  N   UNL     1       4.118  -1.851   1.361  0.00  0.00    -0.152 NA
ATOM      7  H   UNL     1       1.789  -0.429   1.321  0.00  0.00    +0.168 HD
ENDROOT
BRANCH   2   8
ATOM      8  C   UNL     1       1.129   1.764   0.000  0.00  0.00    -0.001 A 
ATOM      9  C   UNL     1      -0.065   1.050  -0.071  0.00  0.00    +0.013 A 
ATOM     10  C   UNL     1      -1.270   1.719  -0.045  0.00  0.00    +0.046 A 
ATOM     11  C   UNL     1      -1.295   3.103   0.062  0.00  0.00    +0.120 A 
ATOM     12  C   UNL     1      -0.107   3.818   0.132  0.00  0.00    +0.046 A 
ATOM     13  C   UNL     1       1.101   3.154   0.102  0.00  0.00    +0.013 A 
BRANCH  11  14
ATOM     14  O   UNL     1      -2.485   3.760   0.092  0.00  0.00    -0.495 OA
ATOM     15  C   UNL     1      -3.668   2.963   0.015  0.00  0.00    +0.277 C 
ENDBRANCH  11  14
ENDBRANCH   2   8
BRANCH   1  17
ATOM     16  C   UNL     1       2.918   2.338  -3.091  0.00  0.00    +0.009 C 
ATOM     17  C   UNL     1       3.499   2.708  -1.725  0.00  0.00    +0.041 C 
ENDBRANCH   1  17
BRANCH   6  18
ATOM     18  C   UNL     1       3.236  -2.455   2.181  0.00  0.00    +0.275 C 
ATOM     19  O   UNL     1       2.153  -1.944   2.392  0.00  0.00    -0.268 OA
BRANCH  18  20
ATOM     20  C   UNL     1       3.583  -3.732   2.821  0.00  0.00    +0.103 A 
ATOM     21  C   UNL     1       2.640  -4.428   3.575  0.00  0.00    +0.020 A 
ATOM     22  C   UNL     1       3.006  -5.636   4.167  0.00  0.00    +0.022 A 
ATOM     23  C   UNL     1       4.264  -6.120   4.007  0.00  0.00    +0.019 A 
ATOM     24  N   UNL     1       5.186  -5.450   3.276  0.00  0.00    -0.315 N 
ATOM     25  C   UNL     1       4.884  -4.282   2.678  0.00  0.00    +0.263 A 
ATOM     26  O   UNL     1       5.726  -3.696   2.020  0.00  0.00    -0.267 OA
ATOM     27  C   UNL     1       6.532  -6.009   3.127  0.00  0.00    +0.152 C 
ATOM     28  C   UNL     1       4.641  -7.428   4.654  0.00  0.00    +0.063 C 
ENDBRANCH  18  20
ENDBRANCH   6  18
TORSDOF 5
