REMARK  Name = ZINC39850298
REMARK  9 active torsions:
REMARK  status: ('A' for Active; 'I' for Inactive)
REMARK    1  A    between atoms: C_1  and  C_2
REMARK    2  A    between atoms: C_2  and  C_3
REMARK    3  A    between atoms: C_2  and  O_4
REMARK    4  A    between atoms: O_4  and  C_5
REMARK    5  A    between atoms: C_8  and  C_11
REMARK    6  A    between atoms: C_13  and  C_25
REMARK    7  A    between atoms: C_15  and  C_20
REMARK    8  A    between atoms: C_15  and  O_24
REMARK    9  A    between atoms: C_25  and  C_27
REMARK                            x       y       z     vdW  Elec       q    Type
REMARK                         _______ _______ _______ _____ _____    ______ ____
ROOT
ATOM      1  C   UNL     1      -2.276  -5.473  -1.981  0.00  0.00    +0.120 C 
ATOM      2  C   UNL     1      -2.728  -6.570  -1.012  0.00  0.00    +0.144 C 
ATOM      3  C   UNL     1      -3.234  -7.764  -1.828  0.00  0.00    +0.243 C 
ATOM      4  N   UNL     1      -4.287  -7.312  -2.739  0.00  0.00    -0.264 N 
ATOM      5  C   UNL     1      -4.306  -6.058  -3.215  0.00  0.00    +0.302 C 
ATOM      6  O   UNL     1      -5.197  -5.737  -3.977  0.00  0.00    -0.253 OA
ATOM      7  N   UNL     1      -3.380  -5.144  -2.885  0.00  0.00    -0.292 N 
ATOM      8  H   UNL     1      -4.985  -7.931  -3.003  0.00  0.00    +0.153 HD
ATOM      9  H   UNL     1      -3.443  -4.249  -3.251  0.00  0.00    +0.151 HD
ENDROOT
BRANCH   1  13
ATOM     10  C   UNL     1      -1.153  -1.990   0.226  0.00  0.00    +0.121 A 
ATOM     11  C   UNL     1      -0.218  -2.983  -0.029  0.00  0.00    +0.046 A 
ATOM     12  C   UNL     1      -0.584  -4.108  -0.742  0.00  0.00    +0.009 A 
ATOM     13  C   UNL     1      -1.880  -4.245  -1.203  0.00  0.00    -0.026 A 
ATOM     14  C   UNL     1      -2.813  -3.257  -0.951  0.00  0.00    +0.009 A 
ATOM     15  C   UNL     1      -2.454  -2.132  -0.233  0.00  0.00    +0.046 A 
BRANCH  10  16
ATOM     16  O   UNL     1      -0.795  -0.883   0.928  0.00  0.00    -0.489 OA
BRANCH  16  18
ATOM     17  C   UNL     1      -1.418   0.815   2.531  0.00  0.00    +0.051 C 
ATOM     18  C   UNL     1      -1.842   0.017   1.296  0.00  0.00    +0.167 C 
ATOM     19  C   UNL     1      -2.119   0.979   0.139  0.00  0.00    +0.051 C 
ENDBRANCH  16  18
ENDBRANCH  10  16
ENDBRANCH   1  13
BRANCH   3  20
ATOM     20  C   UNL     1      -2.079  -8.358  -2.636  0.00  0.00    +0.436 C 
ATOM     21  F   UNL     1      -1.070  -8.783  -1.765  0.00  0.00    -0.166 F 
ATOM     22  F   UNL     1      -2.542  -9.448  -3.381  0.00  0.00    -0.166 F 
ATOM     23  F   UNL     1      -1.567  -7.385  -3.502  0.00  0.00    -0.166 F 
ENDBRANCH   3  20
BRANCH   3  24
ATOM     24  O   UNL     1      -3.761  -8.757  -0.945  0.00  0.00    -0.364 OA
ATOM     25  H   UNL     1      -4.100  -9.543  -1.395  0.00  0.00    +0.212 HD
ENDBRANCH   3  24
BRANCH   2  26
ATOM     26  C   UNL     1      -3.836  -6.046  -0.135  0.00  0.00    +0.173 C 
ATOM     27  O   UNL     1      -4.652  -5.271  -0.587  0.00  0.00    -0.292 OA
BRANCH  26  28
ATOM     28  C   UNL     1      -3.927  -6.473   1.270  0.00  0.00    +0.018 A 
ATOM     29  C   UNL     1      -2.984  -7.362   1.796  0.00  0.00    +0.013 A 
ATOM     30  C   UNL     1      -3.075  -7.758   3.113  0.00  0.00    +0.020 A 
ATOM     31  C   UNL     1      -4.098  -7.278   3.915  0.00  0.00    +0.041 A 
ATOM     32  C   UNL     1      -5.036  -6.398   3.400  0.00  0.00    +0.020 A 
ATOM     33  C   UNL     1      -4.954  -5.989   2.087  0.00  0.00    +0.013 A 
ATOM     34 CL   UNL     1      -4.206  -7.784   5.572  0.00  0.00    -0.084 Cl
ENDBRANCH  26  28
ENDBRANCH   2  26
TORSDOF 7
