REMARK  Name = ZINC43764008
REMARK  15 active torsions:
REMARK  status: ('A' for Active; 'I' for Inactive)
REMARK    1  A    between atoms: C_1  and  C_2
REMARK    2  A    between atoms: C_2  and  N_3
REMARK    3  A    between atoms: N_3  and  C_4
REMARK    4  A    between atoms: C_9  and  C_10
REMARK    5  A    between atoms: C_11  and  C_23
REMARK    6  A    between atoms: C_14  and  C_22
REMARK    7  A    between atoms: N_16  and  C_17
REMARK    8  A    between atoms: C_17  and  C_18
REMARK    9  A    between atoms: C_28  and  C_29
REMARK   10  A    between atoms: N_31  and  C_32
REMARK   11  A    between atoms: C_32  and  C_33
REMARK   12  A    between atoms: C_33  and  N_34
REMARK   13  A    between atoms: N_34  and  C_35
REMARK   14  A    between atoms: C_35  and  C_36
REMARK   15  A    between atoms: C_36  and  N_37
REMARK                            x       y       z     vdW  Elec       q    Type
REMARK                         _______ _______ _______ _____ _____    ______ ____
ROOT
ATOM      1  C   UNL     1      -1.651  -5.162  -5.724  0.00  0.00    +0.034 A 
ATOM      2  C   UNL     1      -1.791  -5.362  -4.350  0.00  0.00    +0.070 A 
ATOM      3  C   UNL     1      -1.286  -6.508  -3.766  0.00  0.00    +0.138 A 
ATOM      4  C   UNL     1      -0.631  -7.467  -4.572  0.00  0.00    +0.026 A 
ATOM      5  C   UNL     1      -0.497  -7.252  -5.956  0.00  0.00    +0.017 A 
ATOM      6  C   UNL     1      -1.004  -6.124  -6.519  0.00  0.00    -0.029 A 
ATOM      7  C   UNL     1      -0.864  -5.900  -8.003  0.00  0.00    +0.045 C 
ATOM      8  C   UNL     1      -0.113  -8.641  -3.975  0.00  0.00    +0.004 A 
ATOM      9  C   UNL     1      -0.273  -8.809  -2.579  0.00  0.00    +0.026 A 
ATOM     10  C   UNL     1       0.224  -9.957  -1.937  0.00  0.00    +0.017 A 
ATOM     11  C   UNL     1       0.065 -10.108  -0.596  0.00  0.00    -0.027 A 
ATOM     12  C   UNL     1      -0.595  -9.120   0.156  0.00  0.00    +0.042 A 
ATOM     13  N   UNL     1      -0.749  -9.281   1.500  0.00  0.00    -0.384 N 
ATOM     14  C   UNL     1      -1.093  -7.974  -0.467  0.00  0.00    +0.072 A 
ATOM     15  C   UNL     1      -0.938  -7.810  -1.831  0.00  0.00    +0.138 A 
ATOM     16  O   UNL     1      -1.419  -6.704  -2.437  0.00  0.00    -0.455 OA
ATOM     17  C   UNL     1       0.599 -11.339   0.089  0.00  0.00    +0.046 C 
ATOM     18  H   UNL     1      -1.411  -8.758   1.978  0.00  0.00    +0.160 HD
ENDROOT
BRANCH   8  19
ATOM     19  C   UNL     1       0.575  -9.662  -4.786  0.00  0.00    -0.004 A 
ATOM     20  C   UNL     1      -0.159 -10.513  -5.614  0.00  0.00    +0.009 A 
ATOM     21  C   UNL     1       0.491 -11.468  -6.371  0.00  0.00    +0.001 A 
ATOM     22  C   UNL     1       1.869 -11.589  -6.315  0.00  0.00    +0.001 A 
ATOM     23  C   UNL     1       2.613 -10.755  -5.502  0.00  0.00    +0.013 A 
ATOM     24  C   UNL     1       1.978  -9.782  -4.735  0.00  0.00    +0.044 A 
BRANCH  24  25
ATOM     25  C   UNL     1       2.771  -8.884  -3.868  0.00  0.00    +0.245 C 
ATOM     26  O   UNL     1       2.212  -8.039  -3.196  0.00  0.00    -0.270 OA
ATOM     27  N   UNL     1       4.112  -9.003  -3.822  0.00  0.00    -0.310 N 
ATOM     28  H   UNL     1       4.558  -9.677  -4.358  0.00  0.00    +0.149 HD
BRANCH  27  29
ATOM     29  C   UNL     1       4.897  -8.113  -2.963  0.00  0.00    +0.119 C 
BRANCH  29  30
ATOM     30  C   UNL     1       6.383  -8.455  -3.096  0.00  0.00    +0.099 C 
BRANCH  30  31
ATOM     31  N   UNL     1       7.170  -7.563  -2.234  0.00  0.00    -0.316 NA
ATOM     32  H   UNL     1       6.987  -6.595  -2.453  0.00  0.00    +0.122 HD
BRANCH  31  33
ATOM     33  C   UNL     1       8.604  -7.864  -2.336  0.00  0.00    +0.061 C 
BRANCH  33  34
ATOM     34  C   UNL     1       9.389  -6.916  -1.427  0.00  0.00    -0.071 C 
BRANCH  34  35
ATOM     35  N   UNL     1      10.824  -7.216  -1.529  0.00  0.00    +0.379 N 
ATOM     36  H   UNL     1      10.989  -8.170  -1.244  0.00  0.00    -0.090 HD
ATOM     37  H   UNL     1      11.126  -7.094  -2.484  0.00  0.00    -0.090 HD
ATOM     38  H   UNL     1      11.342  -6.592  -0.929  0.00  0.00    -0.090 HD
ENDBRANCH  34  35
ENDBRANCH  33  34
ENDBRANCH  31  33
ENDBRANCH  30  31
ENDBRANCH  29  30
ENDBRANCH  27  29
ENDBRANCH  24  25
ENDBRANCH   8  19
BRANCH   1  39
ATOM     39  N   UNL     1      -2.149  -4.032  -6.299  0.00  0.00    -0.344 N 
ATOM     40  H   UNL     1      -2.057  -3.893  -7.254  0.00  0.00    +0.146 HD
BRANCH  39  42
ATOM     41  C   UNL     1      -3.285  -1.867  -6.359  0.00  0.00    +0.024 C 
ATOM     42  C   UNL     1      -2.824  -3.027  -5.474  0.00  0.00    +0.098 C 
ENDBRANCH  39  42
ENDBRANCH   1  39
BRANCH  13  43
ATOM     43  C   UNL     1       0.086 -10.245   2.222  0.00  0.00    +0.109 C 
ATOM     44  C   UNL     1      -0.038  -9.999   3.727  0.00  0.00    +0.026 C 
ENDBRANCH  13  43
TORSDOF 11
