REMARK  Name = ZINC43218590
REMARK  8 active torsions:
REMARK  status: ('A' for Active; 'I' for Inactive)
REMARK    1  A    between atoms: C_1  and  C_2
REMARK    2  A    between atoms: C_5  and  N_9
REMARK    3  A    between atoms: C_14  and  C_26
REMARK    4  A    between atoms: C_17  and  C_22
REMARK    5  A    between atoms: C_17  and  C_23
REMARK    6  A    between atoms: C_29  and  O_32
REMARK    7  A    between atoms: O_32  and  C_33
REMARK    8  A    between atoms: C_33  and  C_35
REMARK                            x       y       z     vdW  Elec       q    Type
REMARK                         _______ _______ _______ _____ _____    ______ ____
ROOT
ATOM      1  N   UNL     1      -0.173  -4.273   0.211  0.00  0.00    -0.210 N 
ATOM      2  C   UNL     1      -0.129  -4.960  -0.977  0.00  0.00    +0.229 C 
ATOM      3  O   UNL     1       0.054  -4.507  -2.086  0.00  0.00    -0.275 OA
ATOM      4  C   UNL     1      -0.347  -6.338  -0.614  0.00  0.00    +0.077 C 
ATOM      5  C   UNL     1      -0.128  -7.699  -1.133  0.00  0.00    -0.027 C 
ATOM      6  N   UNL     1      -0.455  -8.549   0.063  0.00  0.00    +0.395 N 
ATOM      7  C   UNL     1      -0.281  -7.706   1.284  0.00  0.00    +0.045 C 
ATOM      8  C   UNL     1       0.390  -6.419   0.782  0.00  0.00    +0.086 C 
ATOM      9  C   UNL     1      -0.104  -5.096   1.300  0.00  0.00    +0.229 C 
ATOM     10  O   UNL     1      -0.385  -4.820   2.446  0.00  0.00    -0.275 OA
ATOM     11  C   UNL     1      -1.641  -7.410   1.921  0.00  0.00    +0.002 C 
ATOM     12  H   UNL     1      -1.410  -8.871   0.004  0.00  0.00    -0.083 HD
ATOM     13  H   UNL     1       0.171  -9.340   0.102  0.00  0.00    -0.083 HD
ENDROOT
BRANCH   1  18
ATOM     14  C   UNL     1      -0.578   1.378   0.562  0.00  0.00    +0.045 C 
ATOM     15  C   UNL     1      -0.470  -0.122   0.469  0.00  0.00    -0.032 A 
ATOM     16  C   UNL     1      -0.436  -0.737  -0.769  0.00  0.00    +0.006 A 
ATOM     17  C   UNL     1      -0.338  -2.111  -0.857  0.00  0.00    +0.024 A 
ATOM     18  C   UNL     1      -0.272  -2.878   0.299  0.00  0.00    +0.045 A 
ATOM     19  C   UNL     1      -0.306  -2.259   1.541  0.00  0.00    +0.044 A 
ATOM     20  C   UNL     1      -0.400  -0.882   1.624  0.00  0.00    +0.046 A 
ATOM     21 CL   UNL     1      -0.435  -0.107   3.176  0.00  0.00    -0.083 Cl
ENDBRANCH   1  18
BRANCH   5  22
ATOM     22  C   UNL     1      -1.065  -7.995  -2.276  0.00  0.00    -0.060 A 
ATOM     23  C   UNL     1      -2.375  -8.354  -2.020  0.00  0.00    +0.005 A 
ATOM     24  C   UNL     1      -3.235  -8.627  -3.066  0.00  0.00    +0.046 A 
ATOM     25  C   UNL     1      -2.783  -8.540  -4.375  0.00  0.00    +0.132 A 
ATOM     26  C   UNL     1      -1.468  -8.179  -4.629  0.00  0.00    +0.046 A 
ATOM     27  C   UNL     1      -0.613  -7.902  -3.580  0.00  0.00    +0.005 A 
BRANCH  25  28
ATOM     28  O   UNL     1      -3.627  -8.807  -5.405  0.00  0.00    -0.426 OA
BRANCH  28  29
ATOM     29  C   UNL     1      -4.628  -7.943  -5.642  0.00  0.00    +0.309 C 
ATOM     30  O   UNL     1      -4.695  -6.912  -5.017  0.00  0.00    -0.251 OA
ATOM     31  C   UNL     1      -5.665  -8.260  -6.688  0.00  0.00    +0.136 C 
ENDBRANCH  28  29
ENDBRANCH  25  28
ENDBRANCH   5  22
BRANCH   7  32
ATOM     32  C   UNL     1       0.620  -8.399   2.273  0.00  0.00    +0.346 C 
ATOM     33  O   UNL     1       1.065  -9.506   2.020  0.00  0.00    -0.248 OA
ATOM     34  O   UNL     1       0.904  -7.854   3.326  0.00  0.00    -0.248 OA
ENDBRANCH   7  32
TORSDOF 5
