REMARK  Name = ZINC08961885
REMARK  4 active torsions:
REMARK  status: ('A' for Active; 'I' for Inactive)
REMARK    1  A    between atoms: C_1  and  C_2
REMARK    2  A    between atoms: C_10  and  N_15
REMARK    3  A    between atoms: N_15  and  S_16
REMARK    4  A    between atoms: S_16  and  C_19
REMARK                            x       y       z     vdW  Elec       q    Type
REMARK                         _______ _______ _______ _____ _____    ______ ____
ROOT
ATOM      1  C   UNL     1      -4.702   8.580  -2.522  0.00  0.00    +0.053 C 
ATOM      2  C   UNL     1      -3.850   7.325  -2.723  0.00  0.00    +0.187 C 
ATOM      3  C   UNL     1      -4.720   6.221  -3.309  0.00  0.00    +0.148 C 
ATOM      4  N   UNL     1      -5.599   5.654  -2.285  0.00  0.00    -0.308 N 
ATOM      5  C   UNL     1      -5.084   4.817  -1.352  0.00  0.00    +0.248 C 
ATOM      6  O   UNL     1      -5.810   4.266  -0.547  0.00  0.00    -0.270 OA
ATOM      7  C   UNL     1      -3.627   4.588  -1.329  0.00  0.00    +0.080 A 
ATOM      8  C   UNL     1      -3.103   3.299  -1.255  0.00  0.00    +0.041 A 
ATOM      9  C   UNL     1      -1.729   3.119  -1.225  0.00  0.00    +0.049 A 
ATOM     10  C   UNL     1      -0.879   4.219  -1.277  0.00  0.00    +0.028 A 
ATOM     11  C   UNL     1      -1.393   5.498  -1.356  0.00  0.00    +0.048 A 
ATOM     12  C   UNL     1      -2.763   5.693  -1.385  0.00  0.00    +0.133 A 
ATOM     13  O   UNL     1      -3.289   6.942  -1.473  0.00  0.00    -0.487 OA
ATOM     14  H   UNL     1      -6.543   5.875  -2.275  0.00  0.00    +0.149 HD
ENDROOT
BRANCH   9  15
ATOM     15  N   UNL     1      -1.196   1.828  -1.147  0.00  0.00    -0.216 N 
ATOM     16  H   UNL     1      -1.543   1.125  -1.718  0.00  0.00    +0.174 HD
BRANCH  15  17
ATOM     17  S   UNL     1       0.028   1.500  -0.080  0.00  0.00    +0.074 S 
ATOM     18  O   UNL     1      -0.354   2.070   1.164  0.00  0.00    -0.150 OA
ATOM     19  O   UNL     1       0.332   0.119  -0.224  0.00  0.00    -0.150 OA
BRANCH  17  20
ATOM     20  C   UNL     1       1.448   2.388  -0.627  0.00  0.00    +0.127 A 
ATOM     21  C   UNL     1       1.985   3.387   0.163  0.00  0.00    +0.030 A 
ATOM     22  C   UNL     1       3.099   4.084  -0.266  0.00  0.00    +0.002 A 
ATOM     23  C   UNL     1       3.676   3.783  -1.485  0.00  0.00    +0.002 A 
ATOM     24  C   UNL     1       3.140   2.785  -2.276  0.00  0.00    +0.022 A 
ATOM     25  C   UNL     1       2.028   2.083  -1.845  0.00  0.00    +0.068 A 
ATOM     26 CL   UNL     1       1.358   0.824  -2.835  0.00  0.00    -0.082 Cl
ENDBRANCH  17  20
ENDBRANCH  15  17
ENDBRANCH   9  15
TORSDOF 3
