REMARK  Name = ZINC53620172
REMARK  8 active torsions:
REMARK  status: ('A' for Active; 'I' for Inactive)
REMARK    1  A    between atoms: C_1  and  C_2
REMARK    2  A    between atoms: C_2  and  C_3
REMARK    3  A    between atoms: C_3  and  O_4
REMARK    4  A    between atoms: O_4  and  C_5
REMARK    5  A    between atoms: C_10  and  C_11
REMARK    6  A    between atoms: C_16  and  C_32
REMARK    7  A    between atoms: C_17  and  C_20
REMARK    8  A    between atoms: C_23  and  C_27
REMARK                            x       y       z     vdW  Elec       q    Type
REMARK                         _______ _______ _______ _____ _____    ______ ____
ROOT
ATOM      1  C   UNL     1       0.827  -4.765   1.264  0.00  0.00    +0.253 C 
ATOM      2  O   UNL     1       0.268  -4.222   0.331  0.00  0.00    -0.270 OA
ATOM      3  N   UNL     1       0.886  -6.111   1.324  0.00  0.00    -0.261 N 
ATOM      4  C   UNL     1       0.307  -6.876   0.321  0.00  0.00    +0.165 A 
ATOM      5  N   UNL     1      -0.329  -6.467  -0.756  0.00  0.00    -0.229 NA
ATOM      6  C   UNL     1      -0.826  -7.330  -1.623  0.00  0.00    +0.054 A 
ATOM      7  C   UNL     1      -0.653  -8.646  -1.352  0.00  0.00    +0.059 A 
ATOM      8  H   UNL     1       1.332  -6.544   2.069  0.00  0.00    +0.157 HD
ATOM      9  S   UNL     1       0.254  -8.553   0.183  0.00  0.00    -0.053 S 
ATOM     10  C   UNL     1      -1.556  -6.870  -2.860  0.00  0.00    +0.066 C 
ENDROOT
BRANCH   7  11
ATOM     11  C   UNL     1      -1.097  -9.856  -2.134  0.00  0.00    +0.250 C 
ATOM     12  N   UNL     1      -0.146 -10.970  -1.922  0.00  0.00    -0.265 NA
ATOM     13  C   UNL     1      -0.065 -11.634  -3.250  0.00  0.00    +0.187 C 
ATOM     14  N   UNL     1      -0.147 -10.480  -4.185  0.00  0.00    -0.177 NA
ATOM     15  O   UNL     1      -1.100  -9.555  -3.538  0.00  0.00    -0.274 OA
ATOM     16  H   UNL     1       0.758 -10.624  -1.635  0.00  0.00    +0.127 HD
ATOM     17  H   UNL     1      -0.486 -10.771  -5.090  0.00  0.00    +0.156 HD
BRANCH  13  18
ATOM     18  C   UNL     1       1.244 -12.364  -3.406  0.00  0.00    +0.023 A 
ATOM     19  C   UNL     1       1.958 -12.606  -4.533  0.00  0.00    +0.014 A 
ATOM     20  C   UNL     1       3.147 -13.303  -4.437  0.00  0.00    +0.008 A 
ATOM     21  C   UNL     1       3.565 -13.725  -3.218  0.00  0.00    +0.045 A 
ATOM     22  S   UNL     1       2.263 -13.127  -2.154  0.00  0.00    -0.099 S 
ENDBRANCH  13  18
ENDBRANCH   7  11
BRANCH   1  28
ATOM     23  C   UNL     1       1.384  -2.553   2.271  0.00  0.00    +0.133 A 
ATOM     24  C   UNL     1       1.961  -1.798   3.282  0.00  0.00    +0.046 A 
ATOM     25  C   UNL     1       2.594  -2.424   4.337  0.00  0.00    +0.004 A 
ATOM     26  C   UNL     1       2.659  -3.806   4.396  0.00  0.00    +0.001 A 
ATOM     27  C   UNL     1       2.091  -4.572   3.401  0.00  0.00    +0.017 A 
ATOM     28  C   UNL     1       1.442  -3.952   2.330  0.00  0.00    +0.079 A 
BRANCH  23  29
ATOM     29  O   UNL     1       0.761  -1.940   1.234  0.00  0.00    -0.491 OA
BRANCH  29  30
ATOM     30  C   UNL     1       0.742  -0.511   1.242  0.00  0.00    +0.229 C 
BRANCH  30  32
ATOM     31  C   UNL     1      -0.019   1.526   0.010  0.00  0.00    +0.007 C 
ATOM     32  C   UNL     1       0.002  -0.004   0.002  0.00  0.00    +0.038 C 
ENDBRANCH  30  32
ENDBRANCH  29  30
ENDBRANCH  23  29
ENDBRANCH   1  28
TORSDOF 6
