REMARK  Name = ZINC22472600
REMARK  6 active torsions:
REMARK  status: ('A' for Active; 'I' for Inactive)
REMARK    1  A    between atoms: C_4  and  C_7
REMARK    2  A    between atoms: C_7  and  C_8
REMARK    3  A    between atoms: N_13  and  C_16
REMARK    4  A    between atoms: C_16  and  C_17
REMARK    5  A    between atoms: C_17  and  N_18
REMARK    6  A    between atoms: C_21  and  O_22
REMARK                            x       y       z     vdW  Elec       q    Type
REMARK                         _______ _______ _______ _____ _____    ______ ____
ROOT
ATOM      1  C   UNL     1       3.509   1.943   1.238  0.00  0.00    +0.105 C 
ENDROOT
BRANCH   1   7
ATOM      2  C   UNL     1      -0.722  -0.701  -0.896  0.00  0.00    +0.220 C 
ATOM      3  O   UNL     1      -1.403  -0.115  -1.712  0.00  0.00    -0.275 OA
ATOM      4  N   UNL     1       0.002  -0.004   0.002  0.00  0.00    -0.299 N 
ATOM      5  C   UNL     1      -0.018   1.467   0.010  0.00  0.00    +0.123 C 
ATOM      6  C   UNL     1       1.428   1.973  -0.001  0.00  0.00    +0.103 C 
ATOM      7  N   UNL     1       2.168   1.356   1.108  0.00  0.00    -0.298 NA
ATOM      8  C   UNL     1       2.246  -0.103   0.950  0.00  0.00    +0.103 C 
ATOM      9  C   UNL     1       0.833  -0.694   1.000  0.00  0.00    +0.123 C 
BRANCH   2  10
ATOM     10  C   UNL     1      -0.687  -2.207  -0.886  0.00  0.00    +0.131 C 
BRANCH  10  14
ATOM     11  C   UNL     1      -3.208  -3.711  -3.990  0.00  0.00    +0.000 A 
ATOM     12  C   UNL     1      -1.875  -3.451  -4.247  0.00  0.00    +0.000 A 
ATOM     13  C   UNL     1      -1.059  -2.964  -3.243  0.00  0.00    +0.004 A 
ATOM     14  C   UNL     1      -1.577  -2.738  -1.981  0.00  0.00    -0.039 A 
ATOM     15  C   UNL     1      -2.908  -3.003  -1.722  0.00  0.00    +0.004 A 
ATOM     16  C   UNL     1      -3.725  -3.485  -2.728  0.00  0.00    +0.000 A 
ENDBRANCH  10  14
ENDBRANCH   2  10
ENDBRANCH   1   7
BRANCH   1  17
ATOM     17  C   UNL     1       3.384   3.412   1.646  0.00  0.00    +0.128 C 
BRANCH  17  18
ATOM     18  N   UNL     1       4.721   3.998   1.776  0.00  0.00    -0.382 N 
ATOM     19  C   UNL     1       4.861   5.319   2.138  0.00  0.00    +0.053 A 
ATOM     20  C   UNL     1       3.765   6.106   2.381  0.00  0.00    +0.113 A 
ATOM     21  C   UNL     1       3.940   7.447   2.747  0.00  0.00    +0.286 A 
ATOM     22  O   UNL     1       5.160   7.995   2.869  0.00  0.00    -0.425 OA
ATOM     23  C   UNL     1       6.285   7.282   2.645  0.00  0.00    +0.141 A 
ATOM     24  C   UNL     1       6.194   5.930   2.280  0.00  0.00    +0.041 A 
ATOM     25  C   UNL     1       7.354   5.188   2.054  0.00  0.00    +0.013 A 
ATOM     26  C   UNL     1       8.586   5.789   2.197  0.00  0.00    +0.001 A 
ATOM     27  C   UNL     1       8.675   7.123   2.563  0.00  0.00    +0.004 A 
ATOM     28  C   UNL     1       7.536   7.871   2.777  0.00  0.00    +0.047 A 
ATOM     29  H   UNL     1       5.612   3.382   1.584  0.00  0.00    +0.160 HD
BRANCH  21  30
ATOM     30  O   UNL     1       2.957   8.135   2.961  0.00  0.00    -0.480 OA
ATOM     31  H   UNL     1       3.077   9.190   3.250  0.00  0.00    +0.295 HD
ENDBRANCH  21  30
ENDBRANCH  17  18
ENDBRANCH   1  17
TORSDOF 6
