REMARK  Name = ZINC38183358
REMARK  3 active torsions:
REMARK  status: ('A' for Active; 'I' for Inactive)
REMARK    1  A    between atoms: C_3  and  O_22
REMARK    2  A    between atoms: C_4  and  C_8
REMARK    3  A    between atoms: C_11  and  C_14
REMARK                            x       y       z     vdW  Elec       q    Type
REMARK                         _______ _______ _______ _____ _____    ______ ____
ROOT
ATOM      1  C   UNL     1       3.693  -0.689  -0.038  0.00  0.00    +0.072 C 
ATOM      2  N   UNL     1       4.855  -0.132  -0.042  0.00  0.00    -0.190 NA
ATOM      3  N   UNL     1       5.918  -1.032  -0.058  0.00  0.00    -0.261 N 
ATOM      4  C   UNL     1       5.381  -2.402  -0.067  0.00  0.00    +0.126 C 
ATOM      5  C   UNL     1       3.854  -2.192  -0.048  0.00  0.00    +0.086 C 
ATOM      6  H   UNL     1       6.859  -0.794  -0.063  0.00  0.00    +0.169 HD
ENDROOT
BRANCH   4   7
ATOM      7  C   UNL     1       5.808  -3.131  -1.315  0.00  0.00    -0.007 A 
ATOM      8  C   UNL     1       6.261  -2.419  -2.411  0.00  0.00    +0.008 A 
ATOM      9  C   UNL     1       6.653  -3.087  -3.555  0.00  0.00    +0.020 A 
ATOM     10  C   UNL     1       6.593  -4.468  -3.606  0.00  0.00    +0.042 A 
ATOM     11  C   UNL     1       6.141  -5.181  -2.510  0.00  0.00    +0.040 A 
ATOM     12  C   UNL     1       5.753  -4.512  -1.363  0.00  0.00    +0.047 A 
ATOM     13 CL   UNL     1       5.191  -5.406   0.015  0.00  0.00    -0.083 Cl
ATOM     14 CL   UNL     1       7.085  -5.307  -5.044  0.00  0.00    -0.083 Cl
ENDBRANCH   4   7
BRANCH   1  18
ATOM     15  C   UNL     1      -0.017   1.381   0.010  0.00  0.00    +0.042 A 
ATOM     16  C   UNL     1       1.167   2.096   0.002  0.00  0.00    +0.049 A 
ATOM     17  C   UNL     1       2.381   1.431  -0.013  0.00  0.00    +0.126 A 
ATOM     18  C   UNL     1       2.406   0.029  -0.021  0.00  0.00    +0.042 A 
ATOM     19  C   UNL     1       1.205  -0.683  -0.013  0.00  0.00    +0.051 A 
ATOM     20  C   UNL     1       0.002  -0.004   0.002  0.00  0.00    +0.124 A 
ATOM     21  F   UNL     1      -1.160  -0.693   0.009  0.00  0.00    -0.205 F 
BRANCH  17  22
ATOM     22  O   UNL     1       3.544   2.133  -0.022  0.00  0.00    -0.506 OA
ATOM     23  H   UNL     1       3.889   2.332   0.859  0.00  0.00    +0.292 HD
ENDBRANCH  17  22
ENDBRANCH   1  18
TORSDOF 3
