REMARK  Name = ZINC13498808
REMARK  13 active torsions:
REMARK  status: ('A' for Active; 'I' for Inactive)
REMARK    1  A    between atoms: C_1  and  C_2
REMARK    2  A    between atoms: C_2  and  C_3
REMARK    3  A    between atoms: C_2  and  C_4
REMARK    4  A    between atoms: C_4  and  C_6
REMARK    5  A    between atoms: C_4  and  N_66
REMARK    6  A    between atoms: N_10  and  C_11
REMARK    7  A    between atoms: C_11  and  C_12
REMARK    8  A    between atoms: C_17  and  C_18
REMARK    9  A    between atoms: C_17  and  N_66
REMARK   10  A    between atoms: C_18  and  C_19
REMARK   11  A    between atoms: C_19  and  O_20
REMARK   12  A    between atoms: C_21  and  C_22
REMARK   13  A    between atoms: C_21  and  N_66
REMARK                            x       y       z     vdW  Elec       q    Type
REMARK                         _______ _______ _______ _____ _____    ______ ____
ROOT
ATOM      1  N   UNL     1      -0.619   1.180   0.749  0.00  0.00    +0.389 N 
ATOM      2  H   UNL     1      -1.316   0.487   0.453  0.00  0.00    -0.080 HD
ENDROOT
BRANCH   1   3
ATOM      3  C   UNL     1       0.457   1.242  -0.263  0.00  0.00    +0.006 C 
BRANCH   3   4
ATOM      4  C   UNL     1      -0.168   1.200  -1.634  0.00  0.00    +0.139 A 
ATOM      5  N   UNL     1      -1.248   1.834  -2.021  0.00  0.00    -0.115 NA
ATOM      6  N   UNL     1      -1.457   1.543  -3.259  0.00  0.00    -0.023 NA
ATOM      7  N   UNL     1      -0.538   0.741  -3.671  0.00  0.00    -0.044 NA
ATOM      8  N   UNL     1       0.279   0.510  -2.700  0.00  0.00    -0.223 N 
BRANCH   8   9
ATOM      9  C   UNL     1       1.467  -0.345  -2.746  0.00  0.00    +0.221 C 
BRANCH   9  10
ATOM     10  C   UNL     1       1.055  -1.787  -2.590  0.00  0.00    +0.126 A 
ATOM     11  C   UNL     1       0.843  -2.657  -3.594  0.00  0.00    +0.046 A 
ATOM     12  C   UNL     1       0.478  -3.887  -2.998  0.00  0.00    +0.041 A 
ATOM     13  C   UNL     1       0.481  -3.692  -1.668  0.00  0.00    +0.195 A 
ATOM     14  O   UNL     1       0.831  -2.418  -1.426  0.00  0.00    -0.466 OA
ENDBRANCH   9  10
ENDBRANCH   8   9
ENDBRANCH   3   4
BRANCH   3  16
ATOM     15  C   UNL     1       0.407   3.724  -0.545  0.00  0.00    +0.006 C 
ATOM     16  C   UNL     1       1.263   2.534  -0.109  0.00  0.00    -0.024 C 
ATOM     17  C   UNL     1       1.671   2.708   1.356  0.00  0.00    +0.006 C 
ENDBRANCH   3  16
ENDBRANCH   1   3
BRANCH   1  18
ATOM     18  C   UNL     1      -1.274   2.499   0.872  0.00  0.00    -0.075 C 
BRANCH  18  19
ATOM     19  C   UNL     1      -2.625   2.312   1.566  0.00  0.00    +0.009 C 
BRANCH  19  20
ATOM     20  C   UNL     1      -3.397   3.633   1.542  0.00  0.00    +0.154 C 
BRANCH  20  21
ATOM     21  O   UNL     1      -4.658   3.459   2.191  0.00  0.00    -0.395 OA
ATOM     22  H   UNL     1      -5.203   4.258   2.213  0.00  0.00    +0.209 HD
ENDBRANCH  20  21
ENDBRANCH  19  20
ENDBRANCH  18  19
ENDBRANCH   1  18
BRANCH   1  23
ATOM     23  C   UNL     1      -0.060   0.770   2.055  0.00  0.00    -0.037 C 
BRANCH  23  24
ATOM     24  C   UNL     1       0.120  -0.726   2.054  0.00  0.00    +0.001 A 
ATOM     25  C   UNL     1       1.311  -1.263   1.684  0.00  0.00    +0.017 A 
ATOM     26  C   UNL     1       1.456  -2.718   1.699  0.00  0.00    +0.002 A 
ATOM     27  C   UNL     1       2.662  -3.328   1.331  0.00  0.00    +0.059 A 
ATOM     28  C   UNL     1       2.768  -4.702   1.350  0.00  0.00    +0.163 A 
ATOM     29  C   UNL     1       1.677  -5.487   1.735  0.00  0.00    +0.164 A 
ATOM     30  C   UNL     1       0.481  -4.893   2.100  0.00  0.00    +0.075 A 
ATOM     31  C   UNL     1       0.358  -3.510   2.085  0.00  0.00    +0.053 A 
ATOM     32  N   UNL     1      -0.828  -2.901   2.445  0.00  0.00    -0.322 N 
ATOM     33  H   UNL     1      -1.584  -3.447   2.711  0.00  0.00    +0.169 HD
ATOM     34  C   UNL     1      -0.949  -1.562   2.433  0.00  0.00    +0.251 A 
ATOM     35  O   UNL     1      -2.011  -1.059   2.757  0.00  0.00    -0.268 OA
ATOM     36  O   UNL     1       1.775  -6.844   1.760  0.00  0.00    -0.485 OA
ATOM     37  C   UNL     1       2.862  -7.425   1.033  0.00  0.00    +0.270 C 
ATOM     38  C   UNL     1       4.140  -6.645   1.372  0.00  0.00    +0.270 C 
ATOM     39  O   UNL     1       3.947  -5.280   0.986  0.00  0.00    -0.485 OA
ENDBRANCH  23  24
ENDBRANCH   1  23
TORSDOF 11
