REMARK  Name = ZINC00091584
REMARK  4 active torsions:
REMARK  status: ('A' for Active; 'I' for Inactive)
REMARK    1  A    between atoms: C_1  and  C_2
REMARK    2  A    between atoms: C_9  and  S_12
REMARK    3  A    between atoms: S_12  and  C_13
REMARK    4  A    between atoms: C_13  and  C_14
REMARK                            x       y       z     vdW  Elec       q    Type
REMARK                         _______ _______ _______ _____ _____    ______ ____
ROOT
ATOM      1  S   UNL     1       6.527   0.838  -1.762  0.00  0.00    -0.082 S 
ENDROOT
BRANCH   1  10
ATOM      2  C   UNL     1      13.710   0.897   0.929  0.00  0.00    +0.044 C 
ATOM      3  C   UNL     1      12.557   0.890  -0.042  0.00  0.00    -0.048 A 
ATOM      4  C   UNL     1      12.806   0.900  -1.407  0.00  0.00    +0.005 A 
ATOM      5  C   UNL     1      11.762   0.894  -2.308  0.00  0.00    +0.028 A 
ATOM      6  C   UNL     1      10.454   0.879  -1.848  0.00  0.00    +0.067 A 
ATOM      7  C   UNL     1      10.195   0.869  -0.468  0.00  0.00    +0.090 A 
ATOM      8  C   UNL     1      11.264   0.875   0.432  0.00  0.00    +0.033 A 
ATOM      9  N   UNL     1       8.846   0.859  -0.313  0.00  0.00    -0.222 NA
ATOM     10  C   UNL     1       8.268   0.854  -1.489  0.00  0.00    +0.168 A 
ATOM     11  N   UNL     1       9.217   0.869  -2.472  0.00  0.00    -0.333 N 
ATOM     12  H   UNL     1       9.050   0.872  -3.458  0.00  0.00    +0.168 HD
ENDBRANCH   1  10
BRANCH   1  13
ATOM     13  C   UNL     1       5.941   0.823  -0.050  0.00  0.00    +0.134 C 
BRANCH  13  14
ATOM     14  C   UNL     1       4.434   0.807  -0.035  0.00  0.00    +0.070 A 
ATOM     15  C   UNL     1       3.634   1.897  -0.022  0.00  0.00    +0.116 A 
ATOM     16  N   UNL     1       2.341   1.449  -0.013  0.00  0.00    -0.305 N 
ATOM     17  C   UNL     1       1.140   2.098   0.002  0.00  0.00    +0.112 A 
ATOM     18  C   UNL     1      -0.017   1.401   0.010  0.00  0.00    +0.058 A 
ATOM     19  C   UNL     1       0.002  -0.004   0.002  0.00  0.00    +0.025 A 
ATOM     20  C   UNL     1       1.193  -0.662  -0.013  0.00  0.00    +0.048 A 
ATOM     21  C   UNL     1       2.391   0.080  -0.020  0.00  0.00    +0.138 A 
ATOM     22  N   UNL     1       3.666  -0.285  -0.034  0.00  0.00    -0.232 NA
ATOM     23 CL   UNL     1      -1.534   2.245   0.021  0.00  0.00    -0.082 Cl
ENDBRANCH  13  14
ENDBRANCH   1  13
TORSDOF 3
