REMARK  Name = ZINC12679102
REMARK  6 active torsions:
REMARK  status: ('A' for Active; 'I' for Inactive)
REMARK    1  A    between atoms: C_3  and  C_6
REMARK    2  A    between atoms: C_15  and  C_16
REMARK    3  A    between atoms: C_15  and  N_57
REMARK    4  A    between atoms: N_18  and  C_19
REMARK    5  A    between atoms: C_22  and  S_25
REMARK    6  A    between atoms: S_25  and  N_28
REMARK                            x       y       z     vdW  Elec       q    Type
REMARK                         _______ _______ _______ _____ _____    ______ ____
ROOT
ATOM      1  C   UNL     1      -0.536   1.477   1.237  0.00  0.00    +0.201 C 
ATOM      2  O   UNL     1      -1.583   2.089   1.242  0.00  0.00    -0.278 OA
ATOM      3  N   UNL     1       0.078   1.183   2.400  0.00  0.00    -0.287 N 
ATOM      4  H   UNL     1       0.947   0.751   2.394  0.00  0.00    +0.155 HD
ENDROOT
BRANCH   3   5
ATOM      5  C   UNL     1      -0.537   1.500   3.616  0.00  0.00    +0.033 A 
ATOM      6  C   UNL     1      -1.299   2.655   3.730  0.00  0.00    +0.025 A 
ATOM      7  C   UNL     1      -1.909   2.963   4.931  0.00  0.00    +0.030 A 
ATOM      8  C   UNL     1      -1.754   2.127   6.021  0.00  0.00    +0.106 A 
ATOM      9  C   UNL     1      -0.992   0.978   5.912  0.00  0.00    +0.030 A 
ATOM     10  C   UNL     1      -0.384   0.662   4.713  0.00  0.00    +0.025 A 
BRANCH   8  11
ATOM     11  S   UNL     1      -2.529   2.526   7.552  0.00  0.00    +0.061 S 
ATOM     12  O   UNL     1      -3.631   3.367   7.242  0.00  0.00    -0.153 OA
ATOM     13  O   UNL     1      -2.679   1.304   8.262  0.00  0.00    -0.153 OA
BRANCH  11  14
ATOM     14  N   UNL     1      -1.459   3.448   8.417  0.00  0.00    -0.177 NA
ATOM     15  C   UNL     1      -0.452   2.936   9.358  0.00  0.00    +0.109 C 
ATOM     16  C   UNL     1       0.293   4.155   9.940  0.00  0.00    +0.018 C 
ATOM     17  C   UNL     1      -0.718   5.312   9.728  0.00  0.00    +0.018 C 
ATOM     18  C   UNL     1      -1.362   4.918   8.375  0.00  0.00    +0.109 C 
ENDBRANCH  11  14
ENDBRANCH   8  11
ENDBRANCH   3   5
BRANCH   1  19
ATOM     19  C   UNL     1       0.079   1.046  -0.069  0.00  0.00    +0.020 C 
BRANCH  19  28
ATOM     20  C   UNL     1      -0.673   3.049  -1.202  0.00  0.00    +0.002 C 
ATOM     21  C   UNL     1      -1.530   3.547  -2.362  0.00  0.00    -0.046 A 
ATOM     22  C   UNL     1      -1.433   4.825  -2.906  0.00  0.00    +0.010 A 
ATOM     23  C   UNL     1      -2.233   5.184  -3.938  0.00  0.00    +0.045 A 
ATOM     24  S   UNL     1      -3.189   3.696  -4.198  0.00  0.00    -0.101 S 
ATOM     25  C   UNL     1      -2.454   2.716  -2.920  0.00  0.00    -0.010 A 
ATOM     26  C   UNL     1      -2.749   1.308  -2.515  0.00  0.00    +0.024 C 
ATOM     27  C   UNL     1      -2.091   1.068  -1.145  0.00  0.00    -0.072 C 
ATOM     28  N   UNL     1      -0.697   1.567  -1.212  0.00  0.00    +0.393 N 
ATOM     29  H   UNL     1      -0.268   1.236  -2.084  0.00  0.00    -0.080 HD
BRANCH  20  32
ATOM     30  C   UNL     1       2.714   4.791  -1.123  0.00  0.00    +0.008 A 
ATOM     31  C   UNL     1       1.393   4.549  -0.797  0.00  0.00    +0.010 A 
ATOM     32  C   UNL     1       0.749   3.513  -1.388  0.00  0.00    -0.019 A 
ATOM     33  S   UNL     1       2.024   2.836  -2.438  0.00  0.00    -0.103 S 
ATOM     34  C   UNL     1       3.326   3.985  -2.025  0.00  0.00    +0.045 A 
ENDBRANCH  20  32
ENDBRANCH  19  28
ENDBRANCH   1  19
TORSDOF 6
