REMARK  Name = ZINC06599790
REMARK  16 active torsions:
REMARK  status: ('A' for Active; 'I' for Inactive)
REMARK    1  A    between atoms: C_1  and  C_2
REMARK    2  A    between atoms: C_2  and  O_3
REMARK    3  A    between atoms: O_3  and  C_4
REMARK    4  A    between atoms: C_4  and  C_6
REMARK    5  A    between atoms: C_11  and  O_19
REMARK    6  A    between atoms: C_14  and  N_15
REMARK    7  A    between atoms: C_16  and  C_18
REMARK    8  A    between atoms: O_19  and  C_20
REMARK    9  A    between atoms: C_20  and  C_21
REMARK   10  A    between atoms: C_21  and  C_23
REMARK   11  A    between atoms: C_21  and  O_29
REMARK   12  A    between atoms: C_23  and  N_24
REMARK   13  A    between atoms: N_24  and  C_25
REMARK   14  A    between atoms: C_25  and  C_26
REMARK   15  A    between atoms: C_25  and  C_27
REMARK   16  A    between atoms: C_25  and  C_28
REMARK                            x       y       z     vdW  Elec       q    Type
REMARK                         _______ _______ _______ _____ _____    ______ ____
ROOT
ATOM      1  C   UNL     1       1.427  -2.327  -2.478  0.00  0.00    +0.095 A 
ATOM      2  C   UNL     1       2.868  -2.602  -2.468  0.00  0.00    +0.009 A 
ATOM      3  C   UNL     1       3.787  -2.408  -1.412  0.00  0.00    +0.011 A 
ATOM      4  C   UNL     1       5.113  -2.719  -1.569  0.00  0.00    +0.019 A 
ATOM      5  C   UNL     1       5.596  -3.230  -2.764  0.00  0.00    +0.061 A 
ATOM      6  C   UNL     1       4.721  -3.433  -3.820  0.00  0.00    +0.149 A 
ATOM      7  C   UNL     1       3.382  -3.122  -3.668  0.00  0.00    +0.065 A 
ATOM      8  S   UNL     1       1.974  -3.226  -4.742  0.00  0.00    -0.069 S 
ATOM      9  C   UNL     1       0.722  -2.604  -3.638  0.00  0.00    +0.087 A 
ATOM     10 BR   UNL     1       7.431  -3.648  -2.952  0.00  0.00    -0.046 Br
ENDROOT
BRANCH   9  11
ATOM     11  N   UNL     1      -0.629  -2.435  -3.880  0.00  0.00    -0.280 N 
ATOM     12  C   UNL     1      -1.143  -2.762  -5.082  0.00  0.00    +0.214 C 
ATOM     13  O   UNL     1      -0.422  -3.205  -5.950  0.00  0.00    -0.276 OA
ATOM     14  C   UNL     1      -2.615  -2.578  -5.347  0.00  0.00    +0.109 C 
ATOM     15  H   UNL     1      -1.206  -2.081  -3.186  0.00  0.00    +0.155 HD
ENDBRANCH   9  11
BRANCH   1  16
ATOM     16  C   UNL     1       0.776  -1.801  -1.335  0.00  0.00    +0.342 C 
ATOM     17  O   UNL     1       0.312  -2.553  -0.499  0.00  0.00    -0.245 OA
BRANCH  16  18
ATOM     18  O   UNL     1       0.671  -0.465  -1.174  0.00  0.00    -0.461 OA
BRANCH  18  20
ATOM     19  C   UNL     1      -0.019   1.526   0.010  0.00  0.00    +0.048 C 
ATOM     20  C   UNL     1       0.002  -0.004   0.002  0.00  0.00    +0.229 C 
ENDBRANCH  18  20
ENDBRANCH  16  18
ENDBRANCH   1  16
BRANCH   6  21
ATOM     21  O   UNL     1       5.176  -3.933  -5.000  0.00  0.00    -0.487 OA
BRANCH  21  22
ATOM     22  C   UNL     1       5.167  -5.354  -5.148  0.00  0.00    +0.258 C 
BRANCH  22  23
ATOM     23  C   UNL     1       5.711  -5.726  -6.529  0.00  0.00    +0.135 C 
BRANCH  23  24
ATOM     24  O   UNL     1       7.085  -5.346  -6.618  0.00  0.00    -0.390 OA
ATOM     25  H   UNL     1       7.654  -5.772  -5.963  0.00  0.00    +0.210 HD
ENDBRANCH  23  24
BRANCH  23  26
ATOM     26  C   UNL     1       5.585  -7.237  -6.736  0.00  0.00    -0.047 C 
BRANCH  26  27
ATOM     27  N   UNL     1       6.107  -7.594  -8.062  0.00  0.00    +0.384 N 
ATOM     28  H   UNL     1       5.578  -7.112  -8.773  0.00  0.00    -0.085 HD
ATOM     29  H   UNL     1       7.078  -7.326  -8.125  0.00  0.00    -0.085 HD
BRANCH  27  30
ATOM     30  C   UNL     1       5.987  -9.045  -8.261  0.00  0.00    -0.077 C 
ATOM     31  C   UNL     1       4.515  -9.452  -8.166  0.00  0.00    -0.011 C 
ATOM     32  C   UNL     1       6.530  -9.417  -9.642  0.00  0.00    -0.011 C 
ATOM     33  C   UNL     1       6.789  -9.776  -7.183  0.00  0.00    -0.011 C 
ENDBRANCH  27  30
ENDBRANCH  26  27
ENDBRANCH  23  26
ENDBRANCH  22  23
ENDBRANCH  21  22
ENDBRANCH   6  21
TORSDOF 11
