REMARK  Name = ZINC01190815
REMARK  5 active torsions:
REMARK  status: ('A' for Active; 'I' for Inactive)
REMARK    1  A    between atoms: C_1  and  C_2
REMARK    2  A    between atoms: C_2  and  S_3
REMARK    3  A    between atoms: S_3  and  C_4
REMARK    4  A    between atoms: C_17  and  C_20
REMARK    5  A    between atoms: C_23  and  O_26
REMARK                            x       y       z     vdW  Elec       q    Type
REMARK                         _______ _______ _______ _____ _____    ______ ____
ROOT
ATOM      1  C   UNL     1       4.691  -0.076   0.057  0.00  0.00    +0.212 A 
ATOM      2  N   UNL     1       3.752  -0.427  -0.816  0.00  0.00    -0.184 NA
ATOM      3  C   UNL     1       2.615   0.247  -0.849  0.00  0.00    +0.248 A 
ATOM      4  C   UNL     1       2.436   1.321   0.053  0.00  0.00    +0.156 A 
ATOM      5  N   UNL     1       3.413   1.620   0.896  0.00  0.00    -0.141 NA
ATOM      6  N   UNL     1       4.505   0.938   0.892  0.00  0.00    -0.122 NA
ATOM      7  C   UNL     1       1.168   2.081   0.042  0.00  0.00    +0.028 A 
ATOM      8  C   UNL     1       1.152   3.470   0.044  0.00  0.00    +0.012 A 
ATOM      9  C   UNL     1      -0.054   4.142   0.058  0.00  0.00    +0.001 A 
ATOM     10  C   UNL     1      -1.247   3.439   0.069  0.00  0.00    +0.002 A 
ATOM     11  C   UNL     1      -1.246   2.057   0.058  0.00  0.00    +0.024 A 
ATOM     12  C   UNL     1      -0.046   1.369   0.039  0.00  0.00    +0.039 A 
ATOM     13  N   UNL     1      -0.008  -0.028   0.011  0.00  0.00    -0.305 N 
ATOM     14  C   UNL     1       0.464  -0.693  -1.199  0.00  0.00    +0.294 C 
ATOM     15  O   UNL     1       1.631  -0.070  -1.724  0.00  0.00    -0.449 OA
ATOM     16  H   UNL     1      -0.289  -0.545   0.782  0.00  0.00    +0.150 HD
ENDROOT
BRANCH  14  17
ATOM     17  C   UNL     1      -0.626  -0.648  -2.240  0.00  0.00    +0.011 A 
ATOM     18  C   UNL     1      -1.945  -0.829  -1.866  0.00  0.00    +0.012 A 
ATOM     19  C   UNL     1      -2.946  -0.783  -2.817  0.00  0.00    +0.046 A 
ATOM     20  C   UNL     1      -2.626  -0.567  -4.149  0.00  0.00    +0.117 A 
ATOM     21  C   UNL     1      -1.301  -0.391  -4.523  0.00  0.00    +0.046 A 
ATOM     22  C   UNL     1      -0.304  -0.432  -3.567  0.00  0.00    +0.012 A 
BRANCH  20  23
ATOM     23  O   UNL     1      -3.608  -0.526  -5.088  0.00  0.00    -0.507 OA
ATOM     24  H   UNL     1      -3.812  -1.385  -5.481  0.00  0.00    +0.292 HD
ENDBRANCH  20  23
ENDBRANCH  14  17
BRANCH   1  25
ATOM     25  S   UNL     1       6.208  -0.972   0.106  0.00  0.00    -0.085 S 
BRANCH  25  27
ATOM     26  C   UNL     1       8.438  -0.699   1.659  0.00  0.00    +0.016 C 
ATOM     27  C   UNL     1       7.058  -0.080   1.431  0.00  0.00    +0.074 C 
ENDBRANCH  25  27
ENDBRANCH   1  25
TORSDOF 4
