REMARK  Name = ZINC31632828
REMARK  5 active torsions:
REMARK  status: ('A' for Active; 'I' for Inactive)
REMARK    1  A    between atoms: C_1  and  C_2
REMARK    2  A    between atoms: C_9  and  C_13
REMARK    3  A    between atoms: C_13  and  N_14
REMARK    4  A    between atoms: C_17  and  C_21
REMARK    5  A    between atoms: C_17  and  C_22
REMARK                            x       y       z     vdW  Elec       q    Type
REMARK                         _______ _______ _______ _____ _____    ______ ____
ROOT
ATOM      1  N   UNL     1      -1.234  -2.091  -1.209  0.00  0.00    -0.218 N 
ATOM      2  C   UNL     1      -1.911  -1.340  -2.099  0.00  0.00    +0.251 C 
ATOM      3  O   UNL     1      -2.407  -0.250  -1.909  0.00  0.00    -0.272 OA
ATOM      4  C   UNL     1      -1.923  -2.140  -3.386  0.00  0.00    +0.136 C 
ATOM      5  N   UNL     1      -1.188  -3.368  -3.037  0.00  0.00    -0.281 N 
ATOM      6  C   UNL     1      -0.826  -3.246  -1.747  0.00  0.00    +0.310 C 
ATOM      7  O   UNL     1      -0.200  -4.092  -1.139  0.00  0.00    -0.252 OA
ATOM      8  C   UNL     1      -3.359  -2.470  -3.796  0.00  0.00    +0.047 C 
ATOM      9  H   UNL     1      -1.039  -4.153  -3.793  0.00  0.00    +0.152 HD
ENDROOT
BRANCH   4  10
ATOM     10  C   UNL     1      -1.217  -1.394  -4.489  0.00  0.00    -0.008 A 
ATOM     11  C   UNL     1      -0.090  -1.911  -5.052  0.00  0.00    +0.007 A 
ATOM     12  C   UNL     1       0.576  -1.236  -6.073  0.00  0.00    +0.001 A 
ATOM     13  C   UNL     1       0.120  -0.040  -6.536  0.00  0.00    +0.008 A 
ATOM     14  C   UNL     1      -1.039   0.525  -5.979  0.00  0.00    -0.018 A 
ATOM     15  C   UNL     1      -1.720  -0.164  -4.945  0.00  0.00    -0.012 A 
ATOM     16  C   UNL     1      -2.877   0.404  -4.384  0.00  0.00    +0.009 A 
ATOM     17  C   UNL     1      -3.333   1.600  -4.847  0.00  0.00    +0.001 A 
ATOM     18  C   UNL     1      -2.666   2.275  -5.868  0.00  0.00    +0.001 A 
ATOM     19  C   UNL     1      -1.540   1.758  -6.432  0.00  0.00    +0.008 A 
ENDBRANCH   4  10
BRANCH   1  20
ATOM     20  C   UNL     1      -0.980  -1.696   0.179  0.00  0.00    +0.173 C 
BRANCH  20  29
ATOM     21  C   UNL     1       6.288  -1.690  -0.534  0.00  0.00    +0.044 C 
ATOM     22  C   UNL     1       5.008  -0.964  -0.210  0.00  0.00    -0.046 A 
ATOM     23  C   UNL     1       5.037   0.389   0.158  0.00  0.00    +0.021 A 
ATOM     24  C   UNL     1       3.888   1.039   0.449  0.00  0.00    +0.096 A 
ATOM     25  N   UNL     1       2.690   0.394   0.391  0.00  0.00    -0.268 N 
ATOM     26  C   UNL     1       2.629  -0.924   0.035  0.00  0.00    +0.141 A 
ATOM     27  C   UNL     1       3.814  -1.618  -0.272  0.00  0.00    +0.050 A 
ATOM     28  N   UNL     1       1.461  -1.562  -0.025  0.00  0.00    -0.232 NA
ATOM     29  C   UNL     1       0.324  -0.944   0.256  0.00  0.00    +0.067 A 
ATOM     30  C   UNL     1       0.332   0.388   0.621  0.00  0.00    +0.095 A 
ATOM     31  C   UNL     1       1.556   1.065   0.686  0.00  0.00    +0.259 A 
ATOM     32  O   UNL     1       1.597   2.243   1.004  0.00  0.00    -0.267 OA
ENDBRANCH  20  29
ENDBRANCH   1  20
TORSDOF 3
