REMARK  Name = ZINC05396610
REMARK  5 active torsions:
REMARK  status: ('A' for Active; 'I' for Inactive)
REMARK    1  A    between atoms: C_3  and  C_6
REMARK    2  A    between atoms: C_24  and  C_26
REMARK    3  A    between atoms: C_26  and  C_27
REMARK    4  A    between atoms: C_27  and  C_32
REMARK    5  A    between atoms: C_32  and  C_33
REMARK                            x       y       z     vdW  Elec       q    Type
REMARK                         _______ _______ _______ _____ _____    ______ ____
ROOT
ATOM      1  C   UNL     1      -4.893  -0.051  -1.032  0.00  0.00    -0.010 A 
ATOM      2  C   UNL     1      -4.961  -1.186  -0.217  0.00  0.00    +0.011 A 
ATOM      3  C   UNL     1      -3.867  -1.570   0.517  0.00  0.00    +0.024 A 
ATOM      4  C   UNL     1      -2.672  -0.840   0.469  0.00  0.00    +0.046 A 
ATOM      5  C   UNL     1      -2.605   0.309  -0.317  0.00  0.00    +0.059 A 
ATOM      6  C   UNL     1      -3.721   0.690  -1.079  0.00  0.00    +0.024 A 
ATOM      7  C   UNL     1      -1.426   1.182  -0.383  0.00  0.00    +0.249 C 
ATOM      8  O   UNL     1      -1.600   2.384  -0.435  0.00  0.00    -0.270 OA
ATOM      9  N   UNL     1      -0.157   0.719  -0.389  0.00  0.00    -0.283 N 
ATOM     10  C   UNL     1       0.925   1.686  -0.252  0.00  0.00    +0.128 C 
ATOM     11  C   UNL     1       2.215   1.245  -0.896  0.00  0.00    +0.127 C 
ATOM     12  N   UNL     1       2.444  -0.181  -0.723  0.00  0.00    -0.298 N 
ATOM     13  C   UNL     1       1.399  -1.163  -0.959  0.00  0.00    +0.139 C 
ATOM     14  C   UNL     1       0.047  -0.713  -0.477  0.00  0.00    +0.180 C 
ATOM     15  C   UNL     1      -0.351  -1.370   0.809  0.00  0.00    +0.239 C 
ATOM     16  O   UNL     1       0.485  -1.938   1.479  0.00  0.00    -0.273 OA
ATOM     17  N   UNL     1      -1.619  -1.335   1.222  0.00  0.00    -0.283 N 
ATOM     18  C   UNL     1       3.662  -0.605  -0.333  0.00  0.00    +0.216 C 
ATOM     19  O   UNL     1       3.873  -1.790  -0.183  0.00  0.00    -0.276 OA
ATOM     20  H   UNL     1      -1.818  -1.680   2.107  0.00  0.00    +0.155 HD
ENDROOT
BRANCH   1  23
ATOM     21  C   UNL     1      -8.241   0.334  -2.757  0.00  0.00    +0.008 A 
ATOM     22  C   UNL     1      -7.294  -0.235  -1.933  0.00  0.00    +0.016 A 
ATOM     23  C   UNL     1      -6.063   0.357  -1.838  0.00  0.00    +0.019 A 
ATOM     24  S   UNL     1      -6.237   1.746  -2.946  0.00  0.00    -0.097 S 
ATOM     25  C   UNL     1      -7.923   1.454  -3.455  0.00  0.00    +0.046 A 
ENDBRANCH   1  23
BRANCH  18  26
ATOM     26  C   UNL     1       4.763   0.394  -0.082  0.00  0.00    +0.103 C 
BRANCH  26  27
ATOM     27  C   UNL     1       5.989  -0.330   0.477  0.00  0.00    -0.011 C 
ATOM     28  C   UNL     1       7.155   0.666   0.652  0.00  0.00    +0.008 C 
ATOM     29  C   UNL     1       8.413  -0.152   0.269  0.00  0.00    +0.001 C 
ATOM     30  C   UNL     1       7.912  -1.016  -0.914  0.00  0.00    +0.001 C 
ATOM     31  C   UNL     1       6.471  -1.399  -0.519  0.00  0.00    +0.008 C 
BRANCH  27  32
ATOM     32  C   UNL     1       5.648  -0.979   1.820  0.00  0.00    +0.132 C 
BRANCH  32  33
ATOM     33  C   UNL     1       5.217   0.084   2.797  0.00  0.00    +0.357 C 
ATOM     34  O   UNL     1       5.285   1.250   2.490  0.00  0.00    -0.246 OA
ATOM     35  O   UNL     1       4.758  -0.266   4.009  0.00  0.00    -0.246 OA
ENDBRANCH  32  33
ENDBRANCH  27  32
ENDBRANCH  26  27
ENDBRANCH  18  26
TORSDOF 5
