REMARK  Name = ZINC09861371
REMARK  6 active torsions:
REMARK  status: ('A' for Active; 'I' for Inactive)
REMARK    1  A    between atoms: C_1  and  C_2
REMARK    2  A    between atoms: C_2  and  C_34
REMARK    3  A    between atoms: C_6  and  C_24
REMARK    4  A    between atoms: C_12  and  C_16
REMARK    5  A    between atoms: C_16  and  C_18
REMARK    6  A    between atoms: C_28  and  O_30
REMARK                            x       y       z     vdW  Elec       q    Type
REMARK                         _______ _______ _______ _____ _____    ______ ____
ROOT
ATOM      1  C   UNL     1      -0.461   1.499  -4.303  0.00  0.00    +0.011 C 
ATOM      2  C   UNL     1      -1.162   2.758  -4.817  0.00  0.00    -0.023 C 
ATOM      3  C   UNL     1      -2.607   2.784  -4.324  0.00  0.00    +0.058 C 
ATOM      4  C   UNL     1      -2.639   2.787  -2.804  0.00  0.00    +0.017 C 
ATOM      5  C   UNL     1      -1.657   3.373  -2.103  0.00  0.00    +0.036 C 
ATOM      6  C   UNL     1      -1.566   3.454  -0.598  0.00  0.00    +0.136 C 
ATOM      7  N   UNL     1      -2.774   3.063   0.096  0.00  0.00    -0.331 N 
ATOM      8  C   UNL     1      -3.247   1.763   0.025  0.00  0.00    +0.049 A 
ATOM      9  C   UNL     1      -3.277   0.946   1.151  0.00  0.00    +0.025 A 
ATOM     10  C   UNL     1      -3.706  -0.358   1.036  0.00  0.00    +0.013 A 
ATOM     11  C   UNL     1      -4.107  -0.863  -0.206  0.00  0.00    +0.024 A 
ATOM     12  C   UNL     1      -4.094  -0.033  -1.334  0.00  0.00    +0.036 A 
ATOM     13  C   UNL     1      -3.685   1.276  -1.201  0.00  0.00    +0.053 A 
ATOM     14  N   UNL     1      -3.725   2.179  -2.260  0.00  0.00    -0.316 N 
ATOM     15  C   UNL     1      -0.575   3.996  -2.773  0.00  0.00    +0.163 C 
ATOM     16  O   UNL     1       0.290   4.539  -2.114  0.00  0.00    -0.292 OA
ATOM     17  C   UNL     1      -0.459   4.005  -4.268  0.00  0.00    +0.086 C 
ATOM     18  C   UNL     1      -1.136   2.779  -6.347  0.00  0.00    +0.011 C 
ATOM     19  H   UNL     1      -3.260   3.721   0.617  0.00  0.00    +0.147 HD
ATOM     20  H   UNL     1      -4.593   2.389  -2.638  0.00  0.00    +0.152 HD
ENDROOT
BRANCH   6  21
ATOM     21  C   UNL     1      -0.441   2.563  -0.139  0.00  0.00    -0.019 A 
ATOM     22  C   UNL     1      -0.530   1.194  -0.312  0.00  0.00    +0.006 A 
ATOM     23  C   UNL     1       0.497   0.372   0.113  0.00  0.00    +0.004 A 
ATOM     24  C   UNL     1       1.620   0.919   0.704  0.00  0.00    +0.045 A 
ATOM     25  C   UNL     1       1.714   2.292   0.874  0.00  0.00    +0.117 A 
ATOM     26  C   UNL     1       0.679   3.114   0.451  0.00  0.00    +0.051 A 
BRANCH  25  27
ATOM     27  O   UNL     1       2.818   2.832   1.454  0.00  0.00    -0.507 OA
ATOM     28  H   UNL     1       3.519   3.061   0.829  0.00  0.00    +0.292 HD
ENDBRANCH  25  27
ENDBRANCH   6  21
BRANCH  11  29
ATOM     29  C   UNL     1      -4.543  -2.266  -0.326  0.00  0.00    +0.193 C 
ATOM     30  O   UNL     1      -3.997  -3.131   0.333  0.00  0.00    -0.287 OA
BRANCH  29  31
ATOM     31  C   UNL     1      -5.642  -2.622  -1.247  0.00  0.00    +0.022 A 
ATOM     32  C   UNL     1      -6.380  -1.618  -1.880  0.00  0.00    +0.012 A 
ATOM     33  C   UNL     1      -7.401  -1.958  -2.743  0.00  0.00    +0.001 A 
ATOM     34  C   UNL     1      -7.702  -3.288  -2.974  0.00  0.00    +0.000 A 
ATOM     35  C   UNL     1      -6.979  -4.287  -2.346  0.00  0.00    +0.001 A 
ATOM     36  C   UNL     1      -5.952  -3.962  -1.485  0.00  0.00    +0.012 A 
ENDBRANCH  29  31
ENDBRANCH  11  29
TORSDOF 4
