REMARK  Name = ZINC34954634
REMARK  8 active torsions:
REMARK  status: ('A' for Active; 'I' for Inactive)
REMARK    1  A    between atoms: C_4  and  C_7
REMARK    2  A    between atoms: C_7  and  C_8
REMARK    3  A    between atoms: N_13  and  C_27
REMARK    4  A    between atoms: C_17  and  C_25
REMARK    5  A    between atoms: C_18  and  N_24
REMARK    6  A    between atoms: C_19  and  C_20
REMARK    7  A    between atoms: C_19  and  C_22
REMARK    8  A    between atoms: C_27  and  C_28
REMARK                            x       y       z     vdW  Elec       q    Type
REMARK                         _______ _______ _______ _____ _____    ______ ____
ROOT
ATOM      1  C   UNL     1       4.232  -0.853   1.393  0.00  0.00    +0.039 C 
ATOM      2  C   UNL     1       5.670  -1.377   1.364  0.00  0.00    +0.010 C 
ATOM      3  C   UNL     1       6.629  -0.356   0.793  0.00  0.00    -0.069 C 
ATOM      4  N   UNL     1       6.924  -0.607  -0.619  0.00  0.00    +0.385 N 
ATOM      5  C   UNL     1       7.557  -1.931  -0.748  0.00  0.00    -0.050 C 
ATOM      6  C   UNL     1       6.546  -2.968  -0.323  0.00  0.00    -0.040 C 
ATOM      7  C   UNL     1       5.678  -2.676   0.611  0.00  0.00    -0.032 C 
ATOM      8  C   UNL     1       4.610  -3.655   0.934  0.00  0.00    +0.074 C 
ATOM      9  C   UNL     1       3.530  -3.246   1.647  0.00  0.00    +0.054 C 
ATOM     10  C   UNL     1       3.356  -1.845   2.159  0.00  0.00    +0.184 C 
ATOM     11  H   UNL     1       6.067  -0.590  -1.151  0.00  0.00    -0.081 HD
ENDROOT
BRANCH   9  12
ATOM     12  N   UNL     1       2.547  -4.158   1.913  0.00  0.00    -0.358 N 
ATOM     13  H   UNL     1       2.632  -5.070   1.594  0.00  0.00    +0.142 HD
ATOM     14  H   UNL     1       1.764  -3.893   2.421  0.00  0.00    +0.142 HD
ENDBRANCH   9  12
BRANCH  10  15
ATOM     15  C   UNL     1       3.720  -1.807   3.584  0.00  0.00    +0.091 C 
ATOM     16  N   UNL     1       4.000  -1.777   4.685  0.00  0.00    -0.195 NA
ENDBRANCH  10  15
BRANCH  10  17
ATOM     17  C   UNL     1       1.945  -1.450   2.014  0.00  0.00    +0.091 C 
ATOM     18  N   UNL     1       0.857  -1.145   1.903  0.00  0.00    -0.195 NA
ENDBRANCH  10  17
BRANCH   8  19
ATOM     19  C   UNL     1       4.718  -5.015   0.498  0.00  0.00    +0.101 C 
ATOM     20  N   UNL     1       4.804  -6.093   0.152  0.00  0.00    -0.191 NA
ENDBRANCH   8  19
BRANCH   1  21
ATOM     21  C   UNL     1       3.711  -0.707  -0.038  0.00  0.00    +0.042 C 
BRANCH  21  25
ATOM     22  C   UNL     1      -0.052   1.314   0.015  0.00  0.00    +0.000 A 
ATOM     23  C   UNL     1       1.084   1.956   0.470  0.00  0.00    +0.000 A 
ATOM     24  C   UNL     1       2.302   1.302   0.453  0.00  0.00    +0.003 A 
ATOM     25  C   UNL     1       2.384   0.006  -0.018  0.00  0.00    -0.047 A 
ATOM     26  C   UNL     1       1.247  -0.637  -0.473  0.00  0.00    +0.003 A 
ATOM     27  C   UNL     1       0.030   0.017  -0.457  0.00  0.00    +0.000 A 
ENDBRANCH  21  25
ENDBRANCH   1  21
BRANCH   4  28
ATOM     28  C   UNL     1       7.839   0.427  -1.122  0.00  0.00    -0.043 C 
BRANCH  28  29
ATOM     29  C   UNL     1       8.044   0.239  -2.603  0.00  0.00    -0.064 A 
ATOM     30  C   UNL     1       9.067  -0.570  -3.062  0.00  0.00    +0.002 A 
ATOM     31  C   UNL     1       9.255  -0.742  -4.421  0.00  0.00    +0.000 A 
ATOM     32  C   UNL     1       8.420  -0.106  -5.320  0.00  0.00    +0.000 A 
ATOM     33  C   UNL     1       7.397   0.702  -4.861  0.00  0.00    +0.000 A 
ATOM     34  C   UNL     1       7.206   0.871  -3.502  0.00  0.00    +0.002 A 
ENDBRANCH  28  29
ENDBRANCH   4  28
TORSDOF 8
