REMARK  Name = ZINC02783738
REMARK  13 active torsions:
REMARK  status: ('A' for Active; 'I' for Inactive)
REMARK    1  A    between atoms: C_1  and  C_2
REMARK    2  A    between atoms: C_14  and  C_35
REMARK    3  A    between atoms: C_21  and  C_23
REMARK    4  A    between atoms: C_25  and  O_33
REMARK    5  A    between atoms: C_26  and  O_31
REMARK    6  A    between atoms: C_27  and  O_29
REMARK    7  A    between atoms: O_29  and  C_30
REMARK    8  A    between atoms: O_31  and  C_32
REMARK    9  A    between atoms: O_33  and  C_34
REMARK   10  A    between atoms: C_38  and  O_43
REMARK   11  A    between atoms: C_39  and  O_41
REMARK   12  A    between atoms: O_41  and  C_42
REMARK   13  A    between atoms: O_43  and  C_44
REMARK                            x       y       z     vdW  Elec       q    Type
REMARK                         _______ _______ _______ _____ _____    ______ ____
ROOT
ATOM      1  C   UNL     1       0.455   8.235   2.466  0.00  0.00    +0.109 C 
ATOM      2  C   UNL     1       0.019   7.019   1.689  0.00  0.00    +0.217 C 
ATOM      3  O   UNL     1      -0.829   6.282   2.144  0.00  0.00    -0.276 OA
ATOM      4  N   UNL     1       0.573   6.752   0.490  0.00  0.00    -0.261 N 
ATOM      5  C   UNL     1       1.623   7.539   0.004  0.00  0.00    +0.058 A 
ATOM      6  C   UNL     1       2.863   7.539   0.617  0.00  0.00    +0.025 A 
ATOM      7  C   UNL     1       3.886   8.316   0.105  0.00  0.00    +0.002 A 
ATOM      8  C   UNL     1       3.678   9.094  -1.019  0.00  0.00    +0.002 A 
ATOM      9  C   UNL     1       2.441   9.106  -1.638  0.00  0.00    +0.025 A 
ATOM     10  C   UNL     1       1.411   8.338  -1.129  0.00  0.00    +0.053 A 
ATOM     11  N   UNL     1       0.135   8.339  -1.704  0.00  0.00    -0.316 N 
ATOM     12  C   UNL     1      -0.371   7.148  -2.237  0.00  0.00    +0.017 C 
ATOM     13  C   UNL     1      -0.296   6.982  -3.537  0.00  0.00    +0.001 C 
ATOM     14  C   UNL     1      -0.790   5.766  -4.261  0.00  0.00    +0.050 C 
ATOM     15  C   UNL     1      -1.982   5.169  -3.502  0.00  0.00    +0.087 C 
ATOM     16  C   UNL     1      -1.548   4.968  -2.067  0.00  0.00    +0.145 C 
ATOM     17  O   UNL     1      -1.661   3.889  -1.538  0.00  0.00    -0.297 OA
ATOM     18  C   UNL     1      -0.972   6.135  -1.309  0.00  0.00    +0.124 C 
ATOM     19  C   UNL     1       0.080   5.633  -0.320  0.00  0.00    +0.127 C 
ATOM     20  H   UNL     1      -0.391   9.154  -1.732  0.00  0.00    +0.152 HD
ENDROOT
BRANCH  19  21
ATOM     21  C   UNL     1      -0.536   4.594   0.582  0.00  0.00    -0.018 A 
ATOM     22  C   UNL     1       0.263   3.634   1.173  0.00  0.00    +0.055 A 
ATOM     23  C   UNL     1      -0.300   2.676   2.003  0.00  0.00    +0.165 A 
ATOM     24  C   UNL     1      -1.668   2.687   2.245  0.00  0.00    +0.204 A 
ATOM     25  C   UNL     1      -2.469   3.651   1.644  0.00  0.00    +0.165 A 
ATOM     26  C   UNL     1      -1.898   4.605   0.815  0.00  0.00    +0.055 A 
BRANCH  25  27
ATOM     27  O   UNL     1      -3.809   3.662   1.874  0.00  0.00    -0.491 OA
ATOM     28  C   UNL     1      -4.569   4.686   1.228  0.00  0.00    +0.277 C 
ENDBRANCH  25  27
BRANCH  24  29
ATOM     29  O   UNL     1      -2.224   1.752   3.063  0.00  0.00    -0.488 OA
ATOM     30  C   UNL     1      -2.666   0.537   2.454  0.00  0.00    +0.277 C 
ENDBRANCH  24  29
BRANCH  23  31
ATOM     31  O   UNL     1       0.487   1.732   2.584  0.00  0.00    -0.491 OA
ATOM     32  C   UNL     1       1.886   1.785   2.296  0.00  0.00    +0.277 C 
ENDBRANCH  23  31
ENDBRANCH  19  21
BRANCH  14  33
ATOM     33  C   UNL     1       0.315   4.745  -4.342  0.00  0.00    -0.036 A 
ATOM     34  C   UNL     1       1.290   4.705  -3.362  0.00  0.00    +0.008 A 
ATOM     35  C   UNL     1       2.304   3.767  -3.429  0.00  0.00    +0.050 A 
ATOM     36  C   UNL     1       2.350   2.872  -4.486  0.00  0.00    +0.162 A 
ATOM     37  C   UNL     1       1.372   2.916  -5.474  0.00  0.00    +0.162 A 
ATOM     38  C   UNL     1       0.356   3.855  -5.399  0.00  0.00    +0.053 A 
BRANCH  37  39
ATOM     39  O   UNL     1       1.413   2.039  -6.513  0.00  0.00    -0.491 OA
ATOM     40  C   UNL     1       0.377   2.142  -7.491  0.00  0.00    +0.277 C 
ENDBRANCH  37  39
BRANCH  36  41
ATOM     41  O   UNL     1       3.350   1.952  -4.556  0.00  0.00    -0.491 OA
ATOM     42  C   UNL     1       4.319   1.966  -3.506  0.00  0.00    +0.277 C 
ENDBRANCH  36  41
ENDBRANCH  14  33
TORSDOF 7
