REMARK  Name = ZINC32105782
REMARK  4 active torsions:
REMARK  status: ('A' for Active; 'I' for Inactive)
REMARK    1  A    between atoms: C_1  and  C_2
REMARK    2  A    between atoms: C_7  and  N_8
REMARK    3  A    between atoms: N_24  and  C_27
REMARK    4  A    between atoms: C_27  and  C_28
REMARK                            x       y       z     vdW  Elec       q    Type
REMARK                         _______ _______ _______ _____ _____    ______ ____
ROOT
ATOM      1  N   UNL     1       0.168   0.117   2.335  0.00  0.00    -0.218 N 
ATOM      2  C   UNL     1       0.376  -0.362   3.578  0.00  0.00    +0.133 A 
ATOM      3  C   UNL     1       0.366   0.705   4.441  0.00  0.00    +0.032 A 
ATOM      4  C   UNL     1       0.157   1.855   3.694  0.00  0.00    +0.141 A 
ATOM      5  N   UNL     1       0.044   1.513   2.432  0.00  0.00    -0.173 NA
ATOM      6  C   UNL     1       0.550   0.534   5.923  0.00  0.00    +0.112 C 
ATOM      7  C   UNL     1       1.389  -0.715   6.186  0.00  0.00    +0.122 C 
ATOM      8  C   UNL     1       0.955  -1.856   5.308  0.00  0.00    +0.220 C 
ATOM      9  O   UNL     1       0.957  -2.981   5.762  0.00  0.00    -0.275 OA
ATOM     10  N   UNL     1       0.564  -1.668   4.030  0.00  0.00    -0.270 N 
ATOM     11  C   UNL     1      -0.767   0.459   6.627  0.00  0.00    -0.005 A 
ATOM     12  C   UNL     1      -1.813  -0.432   6.518  0.00  0.00    +0.007 A 
ATOM     13  C   UNL     1      -2.917  -0.213   7.335  0.00  0.00    +0.002 A 
ATOM     14  C   UNL     1      -2.960   0.850   8.216  0.00  0.00    +0.022 A 
ATOM     15  C   UNL     1      -1.911   1.750   8.332  0.00  0.00    +0.063 A 
ATOM     16  C   UNL     1      -0.797   1.541   7.515  0.00  0.00    +0.059 A 
ATOM     17  N   UNL     1       0.375   2.272   7.424  0.00  0.00    -0.265 N 
ATOM     18  C   UNL     1       1.225   1.752   6.513  0.00  0.00    +0.236 C 
ATOM     19  O   UNL     1       2.322   2.180   6.222  0.00  0.00    -0.274 OA
ATOM     20 CL   UNL     1      -1.980   3.081   9.444  0.00  0.00    -0.082 Cl
ATOM     21  H   UNL     1       0.416  -2.423   3.439  0.00  0.00    +0.156 HD
ENDROOT
BRANCH   1  28
ATOM     22  C   UNL     1      -1.984   0.622   0.542  0.00  0.00    +0.046 C 
ATOM     23  C   UNL     1      -0.940  -0.426   0.257  0.00  0.00    -0.025 A 
ATOM     24  C   UNL     1      -1.006  -1.171  -0.905  0.00  0.00    +0.005 A 
ATOM     25  C   UNL     1      -0.049  -2.133  -1.167  0.00  0.00    +0.000 A 
ATOM     26  C   UNL     1       0.979  -2.352  -0.268  0.00  0.00    +0.002 A 
ATOM     27  C   UNL     1       1.052  -1.611   0.895  0.00  0.00    +0.028 A 
ATOM     28  C   UNL     1       0.094  -0.640   1.159  0.00  0.00    +0.070 A 
ENDBRANCH   1  28
BRANCH  17  29
ATOM     29  C   UNL     1       0.660   3.467   8.220  0.00  0.00    +0.140 C 
BRANCH  29  30
ATOM     30  C   UNL     1       1.342   3.066   9.503  0.00  0.00    -0.015 C 
ATOM     31  C   UNL     1       2.496   3.596   9.825  0.00  0.00    +0.005 C 
ENDBRANCH  29  30
ENDBRANCH  17  29
TORSDOF 3
