REMARK  Name = ZINC12635628
REMARK  13 active torsions:
REMARK  status: ('A' for Active; 'I' for Inactive)
REMARK    1  A    between atoms: C_1  and  C_2
REMARK    2  A    between atoms: C_2  and  N_68
REMARK    3  A    between atoms: C_6  and  C_8
REMARK    4  A    between atoms: C_8  and  N_9
REMARK    5  A    between atoms: N_9  and  C_10
REMARK    6  A    between atoms: N_9  and  C_25
REMARK    7  A    between atoms: C_10  and  C_11
REMARK    8  A    between atoms: C_16  and  C_24
REMARK    9  A    between atoms: C_17  and  C_23
REMARK   10  A    between atoms: C_25  and  N_27
REMARK   11  A    between atoms: N_27  and  C_28
REMARK   12  A    between atoms: C_31  and  O_34
REMARK   13  A    between atoms: O_34  and  C_35
REMARK                            x       y       z     vdW  Elec       q    Type
REMARK                         _______ _______ _______ _____ _____    ______ ____
ROOT
ATOM      1  N   UNL     1      -1.824   0.211  -0.344  0.00  0.00    -0.309 N 
ENDROOT
BRANCH   1   2
ATOM      2  C   UNL     1      -2.454  -0.004  -1.516  0.00  0.00    +0.137 C 
ATOM      3  S   UNL     1      -3.239   1.291  -2.316  0.00  0.00    -0.018 S 
BRANCH   2   4
ATOM      4  N   UNL     1      -2.465  -1.237  -2.059  0.00  0.00    -0.297 N 
ATOM      5  H   UNL     1      -2.077  -1.983  -1.575  0.00  0.00    +0.154 HD
BRANCH   4   6
ATOM      6  C   UNL     1      -3.038  -1.442  -3.321  0.00  0.00    +0.033 A 
ATOM      7  C   UNL     1      -3.892  -2.517  -3.530  0.00  0.00    +0.027 A 
ATOM      8  C   UNL     1      -4.460  -2.715  -4.773  0.00  0.00    +0.047 A 
ATOM      9  C   UNL     1      -4.169  -1.847  -5.815  0.00  0.00    +0.120 A 
ATOM     10  C   UNL     1      -3.312  -0.776  -5.608  0.00  0.00    +0.047 A 
ATOM     11  C   UNL     1      -2.748  -0.574  -4.364  0.00  0.00    +0.027 A 
BRANCH   9  12
ATOM     12  O   UNL     1      -4.725  -2.046  -7.040  0.00  0.00    -0.495 OA
ATOM     13  C   UNL     1      -5.598  -3.168  -7.182  0.00  0.00    +0.277 C 
ENDBRANCH   9  12
ENDBRANCH   4   6
ENDBRANCH   2   4
ENDBRANCH   1   2
BRANCH   1  14
ATOM     14  C   UNL     1      -1.153  -0.896   0.341  0.00  0.00    +0.092 C 
BRANCH  14  18
ATOM     15  C   UNL     1      -3.855  -2.987   1.748  0.00  0.00    -0.078 C 
ATOM     16  C   UNL     1      -2.604  -3.705   2.297  0.00  0.00    -0.020 C 
ATOM     17  C   UNL     1      -1.442  -2.717   2.067  0.00  0.00    -0.016 C 
ATOM     18  C   UNL     1      -2.088  -1.485   1.398  0.00  0.00    -0.051 C 
ATOM     19  N   UNL     1      -3.309  -2.028   0.790  0.00  0.00    +0.382 N 
ATOM     20  H   UNL     1      -3.081  -2.504  -0.091  0.00  0.00    -0.081 HD
BRANCH  19  22
ATOM     21  C   UNL     1      -5.385  -1.431  -0.427  0.00  0.00    -0.017 C 
ATOM     22  C   UNL     1      -4.290  -0.931   0.517  0.00  0.00    -0.082 C 
ENDBRANCH  19  22
ENDBRANCH  14  18
ENDBRANCH   1  14
BRANCH   1  23
ATOM     23  C   UNL     1      -1.812   1.552   0.246  0.00  0.00    +0.147 C 
BRANCH  23  24
ATOM     24  C   UNL     1      -0.572   2.284  -0.197  0.00  0.00    +0.035 A 
ATOM     25  C   UNL     1      -0.630   3.132  -1.254  0.00  0.00    +0.020 A 
ATOM     26  C   UNL     1       0.593   3.829  -1.660  0.00  0.00    -0.001 A 
ATOM     27  C   UNL     1       0.595   4.715  -2.742  0.00  0.00    +0.010 A 
ATOM     28  C   UNL     1       1.752   5.349  -3.095  0.00  0.00    +0.004 A 
ATOM     29  C   UNL     1       2.926   5.121  -2.390  0.00  0.00    -0.046 A 
ATOM     30  C   UNL     1       2.947   4.252  -1.321  0.00  0.00    -0.024 A 
ATOM     31  C   UNL     1       1.781   3.595  -0.942  0.00  0.00    +0.052 A 
ATOM     32  N   UNL     1       1.773   2.721   0.124  0.00  0.00    -0.322 N 
ATOM     33  H   UNL     1       2.593   2.561   0.617  0.00  0.00    +0.169 HD
ATOM     34  C   UNL     1       0.644   2.090   0.492  0.00  0.00    +0.254 A 
ATOM     35  O   UNL     1       0.673   1.327   1.442  0.00  0.00    -0.268 OA
ATOM     36  C   UNL     1       4.229   4.015  -0.564  0.00  0.00    +0.046 C 
ATOM     37  C   UNL     1       4.191   5.832  -2.798  0.00  0.00    +0.044 C 
ENDBRANCH  23  24
ENDBRANCH   1  23
TORSDOF 9
