REMARK  Name = ZINC41714492
REMARK  6 active torsions:
REMARK  status: ('A' for Active; 'I' for Inactive)
REMARK    1  A    between atoms: C_1  and  C_2
REMARK    2  A    between atoms: C_2  and  C_22
REMARK    3  A    between atoms: N_8  and  C_9
REMARK    4  A    between atoms: C_12  and  O_16
REMARK    5  A    between atoms: O_16  and  C_17
REMARK    6  A    between atoms: C_18  and  O_21
REMARK                            x       y       z     vdW  Elec       q    Type
REMARK                         _______ _______ _______ _____ _____    ______ ____
ROOT
ATOM      1  C   UNL     1      -0.019   1.526   0.010  0.00  0.00    +0.011 C 
ATOM      2  C   UNL     1       0.002  -0.004   0.002  0.00  0.00    -0.027 C 
ATOM      3  C   UNL     1      -1.437  -0.535   0.012  0.00  0.00    +0.060 C 
ATOM      4  C   UNL     1      -1.394  -2.024   0.252  0.00  0.00    +0.030 A 
ATOM      5  C   UNL     1      -0.316  -2.681   0.738  0.00  0.00    +0.002 A 
ATOM      6  C   UNL     1      -0.649  -4.041   0.821  0.00  0.00    +0.026 A 
ATOM      7  C   UNL     1      -1.921  -4.171   0.384  0.00  0.00    +0.092 A 
ATOM      8  N   UNL     1      -2.382  -2.932   0.033  0.00  0.00    -0.320 N 
ATOM      9  C   UNL     1       0.987  -2.020   1.111  0.00  0.00    +0.147 C 
ATOM     10  C   UNL     1       0.743  -0.511   1.242  0.00  0.00    +0.043 C 
ATOM     11  C   UNL     1       0.719  -0.497  -1.257  0.00  0.00    +0.011 C 
ENDROOT
BRANCH   8  12
ATOM     12  C   UNL     1      -3.662  -2.646  -0.467  0.00  0.00    +0.048 A 
ATOM     13  C   UNL     1      -4.414  -1.624   0.096  0.00  0.00    +0.030 A 
ATOM     14  C   UNL     1      -5.673  -1.343  -0.396  0.00  0.00    +0.049 A 
ATOM     15  C   UNL     1      -6.187  -2.081  -1.452  0.00  0.00    +0.138 A 
ATOM     16  C   UNL     1      -5.435  -3.103  -2.015  0.00  0.00    +0.084 A 
ATOM     17  C   UNL     1      -4.173  -3.381  -1.528  0.00  0.00    +0.049 A 
ATOM     18 CL   UNL     1      -6.078  -4.027  -3.337  0.00  0.00    -0.080 Cl
BRANCH  15  19
ATOM     19  O   UNL     1      -7.427  -1.804  -1.936  0.00  0.00    -0.494 OA
ATOM     20  C   UNL     1      -8.145  -0.739  -1.308  0.00  0.00    +0.277 C 
ENDBRANCH  15  19
ENDBRANCH   8  12
BRANCH   9  21
ATOM     21  O   UNL     1       1.453  -2.543   2.356  0.00  0.00    -0.387 OA
ATOM     22  H   UNL     1       1.612  -3.497   2.348  0.00  0.00    +0.210 HD
ENDBRANCH   9  21
TORSDOF 3
