REMARK  Name = ZINC63669067
REMARK  8 active torsions:
REMARK  status: ('A' for Active; 'I' for Inactive)
REMARK    1  A    between atoms: C_5  and  C_7
REMARK    2  A    between atoms: C_7  and  N_8
REMARK    3  A    between atoms: C_13  and  C_24
REMARK    4  A    between atoms: C_24  and  C_25
REMARK    5  A    between atoms: C_25  and  C_26
REMARK    6  A    between atoms: N_28  and  C_29
REMARK    7  A    between atoms: C_29  and  C_30
REMARK    8  A    between atoms: C_30  and  C_31
REMARK                            x       y       z     vdW  Elec       q    Type
REMARK                         _______ _______ _______ _____ _____    ______ ____
ROOT
ATOM      1  N   UNL     1       1.489  -2.679   1.333  0.00  0.00    -0.254 N 
ATOM      2  C   UNL     1       2.866  -2.898   1.772  0.00  0.00    +0.311 C 
ATOM      3  N   UNL     1       3.730  -3.365   0.693  0.00  0.00    -0.147 NA
ATOM      4  N   UNL     1       4.302  -4.418   0.989  0.00  0.00    -0.166 NA
ATOM      5  C   UNL     1       3.916  -4.890   2.325  0.00  0.00    +0.217 C 
ATOM      6  N   UNL     1       2.856  -3.976   2.786  0.00  0.00    -0.267 N 
ATOM      7  C   UNL     1       1.943  -4.021   3.815  0.00  0.00    +0.047 A 
ATOM      8  C   UNL     1       2.188  -4.564   5.058  0.00  0.00    +0.024 A 
ATOM      9  C   UNL     1       1.198  -4.536   6.024  0.00  0.00    +0.002 A 
ATOM     10  C   UNL     1      -0.035  -3.966   5.749  0.00  0.00    +0.001 A 
ATOM     11  C   UNL     1      -0.300  -3.424   4.508  0.00  0.00    +0.015 A 
ATOM     12  C   UNL     1       0.682  -3.450   3.524  0.00  0.00    +0.058 A 
ATOM     13  C   UNL     1       0.453  -2.921   2.168  0.00  0.00    +0.251 C 
ATOM     14  O   UNL     1      -0.683  -2.702   1.793  0.00  0.00    -0.270 OA
ENDROOT
BRANCH   1  15
ATOM     15  C   UNL     1       1.229  -2.186  -0.022  0.00  0.00    +0.148 C 
BRANCH  15  20
ATOM     16  C   UNL     1      -0.017   1.378   0.010  0.00  0.00    +0.000 A 
ATOM     17  C   UNL     1       1.171   2.086   0.002  0.00  0.00    +0.001 A 
ATOM     18  C   UNL     1       2.377   1.412  -0.013  0.00  0.00    +0.020 A 
ATOM     19  C   UNL     1       2.397   0.029  -0.021  0.00  0.00    +0.046 A 
ATOM     20  C   UNL     1       1.208  -0.679  -0.013  0.00  0.00    -0.012 A 
ATOM     21  C   UNL     1       0.002  -0.004   0.002  0.00  0.00    +0.006 A 
ATOM     22 CL   UNL     1       3.912  -0.818  -0.041  0.00  0.00    -0.083 Cl
ENDBRANCH  15  20
ENDBRANCH   1  15
BRANCH   5  23
ATOM     23  C   UNL     1       3.393  -6.326   2.247  0.00  0.00    +0.058 C 
BRANCH  23  24
ATOM     24  C   UNL     1       4.534  -7.263   1.845  0.00  0.00    +0.099 C 
BRANCH  24  25
ATOM     25  C   UNL     1       4.020  -8.677   1.769  0.00  0.00    +0.213 C 
ATOM     26  O   UNL     1       2.855  -8.913   2.011  0.00  0.00    -0.276 OA
ATOM     27  N   UNL     1       4.854  -9.680   1.430  0.00  0.00    -0.315 N 
ATOM     28  H   UNL     1       5.785  -9.492   1.236  0.00  0.00    +0.149 HD
BRANCH  27  29
ATOM     29  C   UNL     1       4.354 -11.055   1.356  0.00  0.00    +0.108 C 
BRANCH  29  30
ATOM     30  C   UNL     1       5.495 -11.992   0.954  0.00  0.00    +0.052 C 
BRANCH  30  31
ATOM     31  C   UNL     1       4.981 -13.406   0.877  0.00  0.00    -0.040 C 
ATOM     32  C   UNL     1       4.548 -14.056  -0.228  0.00  0.00    -0.001 A 
ATOM     33  C   UNL     1       4.431 -13.654  -1.635  0.00  0.00    +0.010 A 
ATOM     34  C   UNL     1       3.950 -14.544  -2.533  0.00  0.00    +0.001 A 
ATOM     35  C   UNL     1       3.562 -15.837  -2.154  0.00  0.00    +0.002 A 
ATOM     36  C   UNL     1       3.641 -16.278  -0.881  0.00  0.00    +0.026 A 
ATOM     37  C   UNL     1       4.132 -15.426   0.146  0.00  0.00    +0.043 A 
ATOM     38  N   UNL     1       4.301 -15.617   1.432  0.00  0.00    -0.380 N 
ATOM     39  C   UNL     1       4.849 -14.389   2.019  0.00  0.00    +0.144 C 
ATOM     40  H   UNL     1       4.101 -16.435   1.914  0.00  0.00    +0.160 HD
ENDBRANCH  30  31
ENDBRANCH  29  30
ENDBRANCH  27  29
ENDBRANCH  24  25
ENDBRANCH  23  24
ENDBRANCH   5  23
TORSDOF 8
