REMARK  Name = ZINC35929644
REMARK  8 active torsions:
REMARK  status: ('A' for Active; 'I' for Inactive)
REMARK    1  A    between atoms: C_1  and  C_2
REMARK    2  A    between atoms: C_2  and  C_3
REMARK    3  A    between atoms: C_2  and  C_4
REMARK    4  A    between atoms: C_7  and  N_10
REMARK    5  A    between atoms: C_11  and  N_33
REMARK    6  A    between atoms: C_13  and  C_27
REMARK    7  A    between atoms: N_19  and  C_20
REMARK    8  A    between atoms: C_20  and  C_21
REMARK                            x       y       z     vdW  Elec       q    Type
REMARK                         _______ _______ _______ _____ _____    ______ ____
ROOT
ATOM      1  N   UNL     1       2.418  -1.892   4.992  0.00  0.00    -0.239 N 
ATOM      2  C   UNL     1       2.716  -3.198   5.138  0.00  0.00    +0.129 A 
ATOM      3  C   UNL     1       3.850  -3.281   5.937  0.00  0.00    +0.084 A 
ATOM      4  C   UNL     1       4.651  -4.325   6.452  0.00  0.00    +0.089 A 
ATOM      5  N   UNL     1       5.693  -4.004   7.207  0.00  0.00    -0.214 NA
ATOM      6  C   UNL     1       6.000  -2.741   7.488  0.00  0.00    +0.218 A 
ATOM      7  N   UNL     1       5.310  -1.708   7.051  0.00  0.00    -0.195 NA
ATOM      8  C   UNL     1       4.226  -1.896   6.273  0.00  0.00    +0.162 A 
ATOM      9  N   UNL     1       3.350  -1.111   5.684  0.00  0.00    -0.274 N 
ATOM     10  N   UNL     1       7.106  -2.499   8.284  0.00  0.00    -0.311 N 
ATOM     11  H   UNL     1       7.633  -3.240   8.621  0.00  0.00    +0.149 HD
ATOM     12  H   UNL     1       3.349  -0.141   5.726  0.00  0.00    +0.189 HD
ENDROOT
BRANCH   1  16
ATOM     13  C   UNL     1      -0.791  -0.401   2.792  0.00  0.00    -0.045 A 
ATOM     14  C   UNL     1       0.460   0.174   2.663  0.00  0.00    +0.006 A 
ATOM     15  C   UNL     1       1.526  -0.318   3.391  0.00  0.00    +0.028 A 
ATOM     16  C   UNL     1       1.340  -1.391   4.253  0.00  0.00    +0.065 A 
ATOM     17  C   UNL     1       0.082  -1.966   4.380  0.00  0.00    +0.028 A 
ATOM     18  C   UNL     1      -0.981  -1.466   3.653  0.00  0.00    +0.006 A 
BRANCH  13  20
ATOM     19  C   UNL     1      -2.175   1.609   2.352  0.00  0.00    +0.012 C 
ATOM     20  C   UNL     1      -1.951   0.138   1.995  0.00  0.00    +0.013 C 
ATOM     21  C   UNL     1      -1.645   0.016   0.501  0.00  0.00    +0.012 C 
ENDBRANCH  13  20
ENDBRANCH   1  16
BRANCH   4  22
ATOM     22  C   UNL     1       4.334  -5.741   6.158  0.00  0.00    +0.001 A 
ATOM     23  C   UNL     1       4.016  -6.132   4.857  0.00  0.00    +0.010 A 
ATOM     24  C   UNL     1       3.722  -7.453   4.588  0.00  0.00    +0.001 A 
ATOM     25  C   UNL     1       3.743  -8.389   5.606  0.00  0.00    +0.000 A 
ATOM     26  C   UNL     1       4.057  -8.009   6.899  0.00  0.00    +0.001 A 
ATOM     27  C   UNL     1       4.358  -6.691   7.179  0.00  0.00    +0.010 A 
ENDBRANCH   4  22
BRANCH   2  28
ATOM     28  N   UNL     1       2.021  -4.261   4.593  0.00  0.00    -0.343 N 
ATOM     29  H   UNL     1       1.426  -4.116   3.840  0.00  0.00    +0.144 HD
ATOM     30  H   UNL     1       2.128  -5.151   4.962  0.00  0.00    +0.144 HD
ENDBRANCH   2  28
BRANCH  10  31
ATOM     31  C   UNL     1       7.480  -1.122   8.618  0.00  0.00    +0.136 C 
BRANCH  31  32
ATOM     32  C   UNL     1       8.728  -1.134   9.503  0.00  0.00    +0.135 C 
ATOM     33  C   UNL     1       9.121   0.312   9.897  0.00  0.00    +0.035 C 
ATOM     34  C   UNL     1       9.904   0.057  11.214  0.00  0.00    +0.031 C 
ATOM     35  C   UNL     1       9.150  -1.149  11.814  0.00  0.00    +0.160 C 
ATOM     36  O   UNL     1       8.453  -1.802  10.745  0.00  0.00    -0.375 OA
ENDBRANCH  31  32
ENDBRANCH  10  31
TORSDOF 6
