REMARK  Name = ZINC40569190
REMARK  9 active torsions:
REMARK  status: ('A' for Active; 'I' for Inactive)
REMARK    1  A    between atoms: C_1  and  C_2
REMARK    2  A    between atoms: C_2  and  C_3
REMARK    3  A    between atoms: C_3  and  C_4
REMARK    4  A    between atoms: N_10  and  C_11
REMARK    5  A    between atoms: C_11  and  C_12
REMARK    6  A    between atoms: C_12  and  O_13
REMARK    7  A    between atoms: C_14  and  C_22
REMARK    8  A    between atoms: C_16  and  C_20
REMARK    9  A    between atoms: C_17  and  N_19
REMARK                            x       y       z     vdW  Elec       q    Type
REMARK                         _______ _______ _______ _____ _____    ______ ____
ROOT
ATOM      1  C   UNL     1      -1.289  -1.834   0.126  0.00  0.00    +0.026 A 
ATOM      2  C   UNL     1      -1.449  -2.303   1.381  0.00  0.00    +0.068 A 
ATOM      3  C   UNL     1      -1.593  -3.689   1.598  0.00  0.00    +0.141 A 
ATOM      4  C   UNL     1      -1.568  -4.541   0.514  0.00  0.00    +0.072 A 
ATOM      5  C   UNL     1      -1.399  -4.008  -0.771  0.00  0.00    +0.259 A 
ATOM      6  O   UNL     1      -1.375  -4.750  -1.740  0.00  0.00    -0.267 OA
ATOM      7  N   UNL     1      -1.270  -2.679  -0.938  0.00  0.00    -0.310 N 
ATOM      8  C   UNL     1      -1.720  -6.026   0.699  0.00  0.00    +0.103 C 
ATOM      9  C   UNL     1      -1.488  -6.394   2.138  0.00  0.00    +0.098 C 
ATOM     10  C   UNL     1      -1.518  -5.459   3.116  0.00  0.00    +0.199 C 
ATOM     11  O   UNL     1      -1.754  -4.162   2.852  0.00  0.00    -0.441 OA
ENDROOT
BRANCH   8  12
ATOM     12  C   UNL     1      -3.112  -6.439   0.298  0.00  0.00    -0.034 A 
ATOM     13  C   UNL     1      -4.207  -5.901   0.948  0.00  0.00    +0.004 A 
ATOM     14  C   UNL     1      -5.485  -6.281   0.580  0.00  0.00    +0.000 A 
ATOM     15  C   UNL     1      -5.667  -7.197  -0.438  0.00  0.00    +0.000 A 
ATOM     16  C   UNL     1      -4.572  -7.734  -1.089  0.00  0.00    +0.000 A 
ATOM     17  C   UNL     1      -3.295  -7.352  -0.724  0.00  0.00    +0.004 A 
ENDBRANCH   8  12
BRANCH  10  18
ATOM     18  N   UNL     1      -1.301  -5.846   4.415  0.00  0.00    -0.328 N 
ATOM     19  H   UNL     1      -1.130  -6.778   4.621  0.00  0.00    +0.145 HD
ATOM     20  H   UNL     1      -1.319  -5.187   5.127  0.00  0.00    +0.145 HD
ENDBRANCH  10  18
BRANCH   9  21
ATOM     21  C   UNL     1      -1.232  -7.761   2.481  0.00  0.00    +0.101 C 
ATOM     22  N   UNL     1      -1.030  -8.845   2.752  0.00  0.00    -0.191 NA
ENDBRANCH   9  21
BRANCH   1  23
ATOM     23  C   UNL     1      -1.135  -0.352  -0.100  0.00  0.00    +0.053 C 
BRANCH  23  25
ATOM     24  C   UNL     1      -2.369   1.792  -0.457  0.00  0.00    +0.004 C 
ATOM     25  C   UNL     1      -2.512   0.273  -0.337  0.00  0.00    +0.003 C 
ENDBRANCH  23  25
ENDBRANCH   1  23
BRANCH   7  26
ATOM     26  C   UNL     1      -1.100  -2.135  -2.288  0.00  0.00    +0.153 C 
BRANCH  26  27
ATOM     27  C   UNL     1       0.392  -2.003  -2.600  0.00  0.00    +0.177 C 
BRANCH  27  28
ATOM     28  O   UNL     1       0.987  -3.302  -2.643  0.00  0.00    -0.393 OA
ATOM     29  H   UNL     1       1.934  -3.295  -2.836  0.00  0.00    +0.209 HD
ENDBRANCH  27  28
ENDBRANCH  26  27
ENDBRANCH   7  26
TORSDOF 8
