REMARK  Name = ZINC63775316
REMARK  6 active torsions:
REMARK  status: ('A' for Active; 'I' for Inactive)
REMARK    1  A    between atoms: C_1  and  O_2
REMARK    2  A    between atoms: O_2  and  C_3
REMARK    3  A    between atoms: C_8  and  O_9
REMARK    4  A    between atoms: O_9  and  C_10
REMARK    5  A    between atoms: C_12  and  C_16
REMARK    6  A    between atoms: C_19  and  O_23
REMARK                            x       y       z     vdW  Elec       q    Type
REMARK                         _______ _______ _______ _____ _____    ______ ____
ROOT
ATOM      1  C   UNL     1       0.627  -0.619   1.043  0.00  0.00    +0.162 A 
ATOM      2  C   UNL     1       1.199   0.139   2.045  0.00  0.00    +0.064 A 
ATOM      3  C   UNL     1       1.837  -0.497   3.110  0.00  0.00    +0.061 A 
ATOM      4  C   UNL     1       1.889  -1.903   3.158  0.00  0.00    +0.045 A 
ATOM      5  C   UNL     1       1.316  -2.652   2.149  0.00  0.00    +0.073 A 
ATOM      6  C   UNL     1       0.680  -2.013   1.094  0.00  0.00    +0.163 A 
ATOM      7  N   UNL     1       2.524  -2.498   4.246  0.00  0.00    -0.322 N 
ATOM      8  C   UNL     1       2.517  -1.792   5.533  0.00  0.00    +0.190 C 
ATOM      9  N   UNL     1       2.820  -0.374   5.335  0.00  0.00    -0.289 N 
ATOM     10  C   UNL     1       2.467   0.265   4.200  0.00  0.00    +0.248 C 
ATOM     11  O   UNL     1       2.668   1.458   4.079  0.00  0.00    -0.270 OA
ATOM     12  H   UNL     1       2.962  -3.358   4.155  0.00  0.00    +0.148 HD
ATOM     13  H   UNL     1       3.284   0.115   6.032  0.00  0.00    +0.151 HD
ENDROOT
BRANCH   8  14
ATOM     14  C   UNL     1       1.157  -1.927   6.168  0.00  0.00    -0.008 A 
ATOM     15  C   UNL     1       0.393  -3.054   5.929  0.00  0.00    +0.011 A 
ATOM     16  C   UNL     1      -0.854  -3.181   6.510  0.00  0.00    +0.047 A 
ATOM     17  C   UNL     1      -1.339  -2.176   7.335  0.00  0.00    +0.131 A 
ATOM     18  C   UNL     1      -0.570  -1.046   7.574  0.00  0.00    +0.060 A 
ATOM     19  C   UNL     1       0.679  -0.927   6.994  0.00  0.00    +0.026 A 
ATOM     20 BR   UNL     1      -1.228   0.326   8.697  0.00  0.00    -0.047 Br
BRANCH  17  21
ATOM     21  O   UNL     1      -2.566  -2.299   7.907  0.00  0.00    -0.506 OA
ATOM     22  H   UNL     1      -2.555  -2.731   8.772  0.00  0.00    +0.292 HD
ENDBRANCH  17  21
ENDBRANCH   8  14
BRANCH   1  24
ATOM     23  C   UNL     1      -0.017   1.425   0.010  0.00  0.00    +0.277 C 
ATOM     24  O   UNL     1       0.002  -0.004   0.002  0.00  0.00    -0.491 OA
ENDBRANCH   1  24
BRANCH   6  25
ATOM     25  O   UNL     1       0.111  -2.747   0.104  0.00  0.00    -0.491 OA
ATOM     26  C   UNL     1       0.202  -4.169   0.217  0.00  0.00    +0.277 C 
ENDBRANCH   6  25
TORSDOF 4
