REMARK  Name = ZINC54060582
REMARK  4 active torsions:
REMARK  status: ('A' for Active; 'I' for Inactive)
REMARK    1  A    between atoms: C_1  and  C_2
REMARK    2  A    between atoms: N_8  and  C_11
REMARK    3  A    between atoms: N_12  and  C_13
REMARK    4  A    between atoms: C_13  and  C_14
REMARK                            x       y       z     vdW  Elec       q    Type
REMARK                         _______ _______ _______ _____ _____    ______ ____
ROOT
ATOM      1  C   UNL     1       0.015  -2.768  -4.868  0.00  0.00    -0.014 A 
ATOM      2  C   UNL     1       1.216  -3.214  -5.402  0.00  0.00    +0.010 A 
ATOM      3  C   UNL     1       1.178  -4.075  -6.484  0.00  0.00    +0.042 A 
ATOM      4  C   UNL     1      -0.056  -4.464  -6.996  0.00  0.00    +0.099 A 
ATOM      5  N   UNL     1      -1.179  -4.016  -6.458  0.00  0.00    -0.349 N 
ATOM      6  C   UNL     1      -1.173  -3.198  -5.423  0.00  0.00    +0.089 A 
ATOM      7  N   UNL     1      -0.108  -5.329  -8.083  0.00  0.00    -0.312 N 
ATOM      8  C   UNL     1       1.114  -5.745  -8.791  0.00  0.00    +0.111 C 
ATOM      9  C   UNL     1       1.276  -7.252  -8.602  0.00  0.00    +0.054 C 
ATOM     10  C   UNL     1      -0.020  -7.969  -8.878  0.00  0.00    -0.041 A 
ATOM     11  C   UNL     1       0.044  -9.326  -9.170  0.00  0.00    +0.004 A 
ATOM     12  C   UNL     1      -1.105 -10.045  -9.423  0.00  0.00    +0.000 A 
ATOM     13  C   UNL     1      -2.334  -9.412  -9.386  0.00  0.00    +0.000 A 
ATOM     14  C   UNL     1      -2.400  -8.064  -9.100  0.00  0.00    +0.005 A 
ATOM     15  C   UNL     1      -1.243  -7.338  -8.851  0.00  0.00    -0.027 A 
ATOM     16  C   UNL     1      -1.384  -5.868  -8.567  0.00  0.00    +0.141 C 
ATOM     17  H   UNL     1      -2.029  -4.300  -6.832  0.00  0.00    +0.167 HD
ENDROOT
BRANCH   1  18
ATOM     18  C   UNL     1       0.008  -1.828  -3.689  0.00  0.00    +0.139 C 
BRANCH  18  30
ATOM     19  C   UNL     1      -0.012   1.508   0.006  0.00  0.00    +0.088 C 
ATOM     20  C   UNL     1      -0.017   0.001  -0.001  0.00  0.00    +0.130 A 
ATOM     21  N   UNL     1      -0.009  -0.628  -1.163  0.00  0.00    -0.217 NA
ATOM     22  C   UNL     1      -0.013  -1.955  -1.228  0.00  0.00    +0.133 A 
ATOM     23  C   UNL     1      -0.026  -2.683  -0.022  0.00  0.00    +0.078 A 
ATOM     24  C   UNL     1      -0.034  -4.056   0.308  0.00  0.00    +0.148 A 
ATOM     25  N   UNL     1      -0.046  -4.168   1.606  0.00  0.00    -0.177 NA
ATOM     26  N   UNL     1      -0.046  -2.894   2.189  0.00  0.00    -0.249 N 
ATOM     27  C   UNL     1      -0.034  -1.967   1.190  0.00  0.00    +0.163 A 
ATOM     28  N   UNL     1      -0.024  -0.635   1.149  0.00  0.00    -0.213 NA
ATOM     29  C   UNL     1      -0.058  -2.608   3.626  0.00  0.00    +0.174 C 
ATOM     30  N   UNL     1      -0.005  -2.604  -2.447  0.00  0.00    -0.324 N 
ATOM     31  H   UNL     1      -0.008  -3.573  -2.480  0.00  0.00    +0.148 HD
ENDBRANCH  18  30
ENDBRANCH   1  18
TORSDOF 2
