REMARK  Name = ZINC49425353
REMARK  5 active torsions:
REMARK  status: ('A' for Active; 'I' for Inactive)
REMARK    1  A    between atoms: C_1  and  C_2
REMARK    2  A    between atoms: C_8  and  N_10
REMARK    3  A    between atoms: C_11  and  C_13
REMARK    4  A    between atoms: N_22  and  C_23
REMARK    5  A    between atoms: C_23  and  C_24
REMARK                            x       y       z     vdW  Elec       q    Type
REMARK                         _______ _______ _______ _____ _____    ______ ____
ROOT
ATOM      1  C   UNL     1       4.204   0.652   2.375  0.00  0.00    +0.092 C 
ATOM      2  C   UNL     1       4.742   0.700   3.807  0.00  0.00    +0.016 C 
ATOM      3  C   UNL     1       6.190   1.194   3.793  0.00  0.00    +0.020 C 
ATOM      4  C   UNL     1       6.237   2.611   3.212  0.00  0.00    +0.109 C 
ATOM      5  N   UNL     1       5.590   2.602   1.893  0.00  0.00    -0.285 N 
ATOM      6  C   UNL     1       4.228   2.062   1.777  0.00  0.00    +0.122 C 
ATOM      7  C   UNL     1       6.233   3.079   0.809  0.00  0.00    +0.302 C 
ATOM      8  O   UNL     1       5.726   2.980  -0.292  0.00  0.00    -0.253 OA
ATOM      9  N   UNL     1       7.438   3.667   0.945  0.00  0.00    -0.295 N 
ATOM     10  H   UNL     1       7.875   3.682   1.811  0.00  0.00    +0.151 HD
ENDROOT
BRANCH   1  12
ATOM     11  N   UNL     1       2.107   0.008   1.231  0.00  0.00    -0.312 N 
ATOM     12  C   UNL     1       2.788   0.135   2.387  0.00  0.00    +0.218 C 
ATOM     13  O   UNL     1       2.261  -0.167   3.437  0.00  0.00    -0.275 OA
ATOM     14  H   UNL     1       2.529   0.250   0.391  0.00  0.00    +0.149 HD
BRANCH  11  21
ATOM     15  C   UNL     1      -0.025   1.547   0.017  0.00  0.00    +0.009 C 
ATOM     16  C   UNL     1      -0.009   0.018   0.005  0.00  0.00    +0.006 C 
ATOM     17  C   UNL     1      -1.446  -0.507   0.017  0.00  0.00    +0.005 C 
ATOM     18  C   UNL     1      -1.430  -2.037   0.005  0.00  0.00    +0.000 C 
ATOM     19  C   UNL     1      -0.690  -2.549   1.242  0.00  0.00    +0.002 C 
ATOM     20  C   UNL     1       0.747  -2.024   1.230  0.00  0.00    +0.022 C 
ATOM     21  C   UNL     1       0.731  -0.494   1.242  0.00  0.00    +0.076 C 
ENDBRANCH  11  21
ENDBRANCH   1  12
BRANCH   9  22
ATOM     22  C   UNL     1       8.088   4.283  -0.214  0.00  0.00    +0.148 C 
BRANCH  22  23
ATOM     23  C   UNL     1       9.414   4.865   0.203  0.00  0.00    +0.007 A 
ATOM     24  C   UNL     1      10.637   4.281   0.212  0.00  0.00    +0.013 A 
ATOM     25  C   UNL     1      11.727   5.015   0.641  0.00  0.00    +0.008 A 
ATOM     26  C   UNL     1      11.540   6.298   1.039  0.00  0.00    +0.045 A 
ATOM     27  S   UNL     1       9.783   6.504   0.807  0.00  0.00    -0.100 S 
ENDBRANCH  22  23
ENDBRANCH   9  22
TORSDOF 4
