REMARK  Name = ZINC09353498
REMARK  7 active torsions:
REMARK  status: ('A' for Active; 'I' for Inactive)
REMARK    1  A    between atoms: C_3  and  C_10
REMARK    2  A    between atoms: C_5  and  N_7
REMARK    3  A    between atoms: C_13  and  C_14
REMARK    4  A    between atoms: C_13  and  O_21
REMARK    5  A    between atoms: N_26  and  C_27
REMARK    6  A    between atoms: C_27  and  C_28
REMARK    7  A    between atoms: C_28  and  N_55
REMARK                            x       y       z     vdW  Elec       q    Type
REMARK                         _______ _______ _______ _____ _____    ______ ____
ROOT
ATOM      1  C   UNL     1       2.664   0.747   0.023  0.00  0.00    +0.144 C 
ATOM      2  C   UNL     1       3.211   0.759  -1.386  0.00  0.00    +0.071 C 
ATOM      3  C   UNL     1       2.507   0.531  -2.551  0.00  0.00    +0.133 C 
ATOM      4  C   UNL     1       4.581   1.050  -1.269  0.00  0.00    +0.249 C 
ATOM      5  O   UNL     1       5.372   1.147  -2.191  0.00  0.00    -0.282 OA
ATOM      6  C   UNL     1       4.899   1.218   0.175  0.00  0.00    +0.288 C 
ATOM      7  O   UNL     1       5.998   1.475   0.620  0.00  0.00    -0.266 OA
ATOM      8  N   UNL     1       3.790   1.042   0.914  0.00  0.00    -0.285 N 
ENDROOT
BRANCH   3   9
ATOM      9  C   UNL     1       3.161   0.726  -3.856  0.00  0.00    +0.017 A 
ATOM     10  C   UNL     1       3.830   1.923  -4.135  0.00  0.00    +0.012 A 
ATOM     11  C   UNL     1       4.443   2.096  -5.357  0.00  0.00    +0.016 A 
ATOM     12  C   UNL     1       4.388   1.094  -6.313  0.00  0.00    +0.018 A 
ATOM     13  C   UNL     1       3.723  -0.091  -6.045  0.00  0.00    +0.016 A 
ATOM     14  C   UNL     1       3.110  -0.281  -4.825  0.00  0.00    +0.012 A 
ATOM     15 BR   UNL     1       5.226   1.346  -7.989  0.00  0.00    -0.050 Br
ENDBRANCH   3   9
BRANCH   1  18
ATOM     16  C   UNL     1       0.978   4.097   0.459  0.00  0.00    +0.003 A 
ATOM     17  C   UNL     1       1.956   3.129   0.323  0.00  0.00    +0.006 A 
ATOM     18  C   UNL     1       1.599   1.802   0.171  0.00  0.00    -0.020 A 
ATOM     19  C   UNL     1       0.264   1.443   0.156  0.00  0.00    +0.038 A 
ATOM     20  C   UNL     1      -0.714   2.412   0.287  0.00  0.00    +0.127 A 
ATOM     21  C   UNL     1      -0.356   3.738   0.443  0.00  0.00    +0.033 A 
BRANCH  20  22
ATOM     22  N   UNL     1      -2.143   2.028   0.265  0.00  0.00    +0.056 N 
ATOM     23  O   UNL     1      -2.458   0.859   0.131  0.00  0.00    -0.126 OA
ATOM     24  O   UNL     1      -3.005   2.881   0.380  0.00  0.00    -0.126 OA
ENDBRANCH  20  22
ENDBRANCH   1  18
BRANCH   3  25
ATOM     25  O   UNL     1       1.220   0.129  -2.494  0.00  0.00    -0.506 OA
ATOM     26  H   UNL     1       0.866   0.012  -3.421  0.00  0.00    +0.292 HD
ENDBRANCH   3  25
BRANCH   8  27
ATOM     27  C   UNL     1       3.718   1.132   2.374  0.00  0.00    +0.090 C 
BRANCH  27  28
ATOM     28  C   UNL     1       3.983  -0.246   2.983  0.00  0.00    -0.059 C 
BRANCH  28  34
ATOM     29  C   UNL     1       5.005   0.669   4.980  0.00  0.00    -0.050 C 
ATOM     30  C   UNL     1       4.857   0.785   6.499  0.00  0.00    +0.141 C 
ATOM     31  O   UNL     1       4.840  -0.525   7.073  0.00  0.00    -0.383 OA
ATOM     32  C   UNL     1       3.786  -1.356   6.578  0.00  0.00    +0.141 C 
ATOM     33  C   UNL     1       3.923  -1.494   5.059  0.00  0.00    -0.050 C 
ATOM     34  N   UNL     1       3.888  -0.144   4.456  0.00  0.00    +0.384 N 
ATOM     35  H   UNL     1       3.000   0.309   4.702  0.00  0.00    -0.082 HD
ENDBRANCH  28  34
ENDBRANCH  27  28
ENDBRANCH   8  27
TORSDOF 7
