REMARK  Name = ZINC03655691
REMARK  4 active torsions:
REMARK  status: ('A' for Active; 'I' for Inactive)
REMARK    1  A    between atoms: C_1  and  O_2
REMARK    2  A    between atoms: O_2  and  C_3
REMARK    3  A    between atoms: C_5  and  C_10
REMARK    4  A    between atoms: C_8  and  O_9
REMARK                            x       y       z     vdW  Elec       q    Type
REMARK                         _______ _______ _______ _____ _____    ______ ____
ROOT
ATOM      1  C   UNL     1       2.678   1.613  -0.014  0.00  0.00    +0.152 C 
ATOM      2  C   UNL     1       1.222   2.000   0.001  0.00  0.00    +0.072 A 
ATOM      3  C   UNL     1      -0.014   1.214   0.009  0.00  0.00    +0.199 A 
ATOM      4  O   UNL     1       0.002  -0.004   0.002  0.00  0.00    -0.287 OA
ATOM      5  C   UNL     1      -1.281   1.972   0.019  0.00  0.00    +0.064 A 
ATOM      6  C   UNL     1      -2.516   1.325   0.020  0.00  0.00    +0.015 A 
ATOM      7  C   UNL     1      -3.667   2.064   0.029  0.00  0.00    +0.001 A 
ATOM      8  C   UNL     1      -3.609   3.451   0.037  0.00  0.00    +0.004 A 
ATOM      9  C   UNL     1      -2.397   4.107   0.045  0.00  0.00    +0.047 A 
ATOM     10  C   UNL     1      -1.213   3.376   0.031  0.00  0.00    +0.139 A 
ATOM     11  O   UNL     1      -0.022   4.001   0.024  0.00  0.00    -0.450 OA
ATOM     12  C   UNL     1       1.161   3.355   0.009  0.00  0.00    +0.199 A 
ATOM     13  C   UNL     1       2.546   3.885  -0.001  0.00  0.00    +0.289 C 
ATOM     14  O   UNL     1       2.840   5.064   0.003  0.00  0.00    -0.266 OA
ATOM     15  N   UNL     1       3.431   2.873  -0.014  0.00  0.00    -0.230 N 
ATOM     16  C   UNL     1       4.814   2.997  -0.027  0.00  0.00    +0.191 A 
ATOM     17  N   UNL     1       5.755   2.063  -0.042  0.00  0.00    -0.126 NA
ATOM     18  N   UNL     1       6.982   2.354  -0.052  0.00  0.00    -0.148 NA
ATOM     19  C   UNL     1       7.407   3.602  -0.048  0.00  0.00    +0.183 A 
ATOM     20  S   UNL     1       5.839   4.466  -0.035  0.00  0.00    -0.038 S 
ENDROOT
BRANCH   1  23
ATOM     21  C   UNL     1       3.402  -1.313   2.263  0.00  0.00    +0.162 A 
ATOM     22  C   UNL     1       3.088  -0.571   1.136  0.00  0.00    +0.055 A 
ATOM     23  C   UNL     1       3.014   0.807   1.214  0.00  0.00    -0.018 A 
ATOM     24  C   UNL     1       3.240   1.447   2.418  0.00  0.00    +0.009 A 
ATOM     25  C   UNL     1       3.548   0.713   3.548  0.00  0.00    +0.049 A 
ATOM     26  C   UNL     1       3.630  -0.669   3.475  0.00  0.00    +0.158 A 
BRANCH  21  28
ATOM     27  C   UNL     1       3.235  -3.262   0.910  0.00  0.00    +0.277 C 
ATOM     28  O   UNL     1       3.481  -2.669   2.187  0.00  0.00    -0.491 OA
ENDBRANCH  21  28
BRANCH  26  29
ATOM     29  O   UNL     1       3.932  -1.393   4.586  0.00  0.00    -0.503 OA
ATOM     30  H   UNL     1       3.159  -1.664   5.101  0.00  0.00    +0.292 HD
ENDBRANCH  26  29
ENDBRANCH   1  23
TORSDOF 3
