REMARK  Name = ZINC43222025
REMARK  10 active torsions:
REMARK  status: ('A' for Active; 'I' for Inactive)
REMARK    1  A    between atoms: C_1  and  C_2
REMARK    2  A    between atoms: C_7  and  N_8
REMARK    3  A    between atoms: C_13  and  C_27
REMARK    4  A    between atoms: C_16  and  C_21
REMARK    5  A    between atoms: C_16  and  C_24
REMARK    6  A    between atoms: C_21  and  C_22
REMARK    7  A    between atoms: C_21  and  C_23
REMARK    8  A    between atoms: C_30  and  C_33
REMARK    9  A    between atoms: C_33  and  O_35
REMARK   10  A    between atoms: O_35  and  C_36
REMARK                            x       y       z     vdW  Elec       q    Type
REMARK                         _______ _______ _______ _____ _____    ______ ____
ROOT
ATOM      1  N   UNL     1      -1.099   2.011   1.551  0.00  0.00    -0.210 N 
ATOM      2  C   UNL     1      -1.997   2.419   2.506  0.00  0.00    +0.229 C 
ATOM      3  O   UNL     1      -3.180   2.643   2.365  0.00  0.00    -0.275 OA
ATOM      4  C   UNL     1      -1.218   2.520   3.719  0.00  0.00    +0.077 C 
ATOM      5  C   UNL     1      -1.401   2.573   5.176  0.00  0.00    -0.027 C 
ATOM      6  N   UNL     1      -0.055   2.212   5.732  0.00  0.00    +0.396 N 
ATOM      7  C   UNL     1       0.826   1.843   4.577  0.00  0.00    +0.050 C 
ATOM      8  C   UNL     1      -0.198   1.325   3.544  0.00  0.00    +0.086 C 
ATOM      9  C   UNL     1       0.078   1.570   2.085  0.00  0.00    +0.229 C 
ATOM     10  O   UNL     1       1.130   1.411   1.505  0.00  0.00    -0.275 OA
ATOM     11  H   UNL     1       0.336   3.003   6.222  0.00  0.00    -0.083 HD
ATOM     12  H   UNL     1      -0.143   1.428   6.360  0.00  0.00    -0.083 HD
ENDROOT
BRANCH   1  19
ATOM     13  C   UNL     1      -0.423   4.362   0.097  0.00  0.00    +0.045 C 
ATOM     14  C   UNL     1      -1.050   3.166  -0.572  0.00  0.00    -0.029 A 
ATOM     15  C   UNL     1      -1.308   3.188  -1.929  0.00  0.00    +0.005 A 
ATOM     16  C   UNL     1      -1.883   2.091  -2.542  0.00  0.00    +0.000 A 
ATOM     17  C   UNL     1      -2.202   0.968  -1.801  0.00  0.00    +0.002 A 
ATOM     18  C   UNL     1      -1.947   0.940  -0.444  0.00  0.00    +0.024 A 
ATOM     19  C   UNL     1      -1.365   2.039   0.175  0.00  0.00    +0.047 A 
ENDBRANCH   1  19
BRANCH   5  20
ATOM     20  C   UNL     1      -2.440   1.573   5.613  0.00  0.00    -0.061 A 
ATOM     21  C   UNL     1      -2.096   0.240   5.756  0.00  0.00    +0.003 A 
ATOM     22  C   UNL     1      -3.042  -0.681   6.156  0.00  0.00    +0.015 A 
ATOM     23  C   UNL     1      -4.349  -0.266   6.416  0.00  0.00    +0.059 A 
ATOM     24  C   UNL     1      -4.689   1.081   6.270  0.00  0.00    +0.015 A 
ATOM     25  C   UNL     1      -3.732   1.992   5.875  0.00  0.00    +0.003 A 
BRANCH  23  26
ATOM     26  C   UNL     1      -5.368  -1.246   6.844  0.00  0.00    +0.339 C 
ATOM     27  O   UNL     1      -5.069  -2.417   6.970  0.00  0.00    -0.245 OA
BRANCH  26  28
ATOM     28  O   UNL     1      -6.628  -0.842   7.095  0.00  0.00    -0.464 OA
ATOM     29  C   UNL     1      -7.561  -1.844   7.505  0.00  0.00    +0.280 C 
ENDBRANCH  26  28
ENDBRANCH  23  26
ENDBRANCH   5  20
BRANCH   7  30
ATOM     30  C   UNL     1       1.584   3.067   4.059  0.00  0.00    -0.017 C 
ATOM     31  C   UNL     1       2.111   3.879   5.244  0.00  0.00    +0.006 C 
ATOM     32  C   UNL     1       2.758   2.610   3.191  0.00  0.00    +0.006 C 
ENDBRANCH   7  30
BRANCH   7  33
ATOM     33  C   UNL     1       1.783   0.745   4.965  0.00  0.00    +0.346 C 
ATOM     34  O   UNL     1       1.778   0.306   6.102  0.00  0.00    -0.248 OA
ATOM     35  O   UNL     1       2.561   0.295   4.141  0.00  0.00    -0.248 OA
ENDBRANCH   7  33
TORSDOF 6
