REMARK  Name = ZINC02878875
REMARK  6 active torsions:
REMARK  status: ('A' for Active; 'I' for Inactive)
REMARK    1  A    between atoms: C_1  and  C_2
REMARK    2  A    between atoms: C_2  and  C_3
REMARK    3  A    between atoms: N_5  and  N_6
REMARK    4  A    between atoms: N_13  and  C_14
REMARK    5  A    between atoms: C_19  and  C_21
REMARK    6  A    between atoms: C_19  and  C_22
REMARK                            x       y       z     vdW  Elec       q    Type
REMARK                         _______ _______ _______ _____ _____    ______ ____
ROOT
ATOM      1  N   UNL     1      -2.622   3.823  -1.472  0.00  0.00    -0.234 N 
ATOM      2  C   UNL     1      -3.138   2.994  -2.433  0.00  0.00    +0.216 A 
ATOM      3  N   UNL     1      -3.807   3.515  -3.441  0.00  0.00    -0.214 NA
ATOM      4  C   UNL     1      -4.328   2.738  -4.396  0.00  0.00    +0.084 A 
ATOM      5  C   UNL     1      -4.139   1.365  -4.349  0.00  0.00    +0.050 A 
ATOM      6  C   UNL     1      -3.435   0.817  -3.268  0.00  0.00    +0.260 A 
ATOM      7  O   UNL     1      -3.261  -0.388  -3.184  0.00  0.00    -0.267 OA
ATOM      8  N   UNL     1      -2.947   1.651  -2.325  0.00  0.00    -0.276 N 
ATOM      9  C   UNL     1      -4.678   0.481  -5.440  0.00  0.00    +0.007 C 
ATOM     10  C   UNL     1      -4.879  -0.934  -4.890  0.00  0.00    +0.012 C 
ATOM     11  C   UNL     1      -5.423  -1.838  -5.997  0.00  0.00    +0.001 C 
ATOM     12  C   UNL     1      -4.424  -1.884  -7.155  0.00  0.00    +0.000 C 
ATOM     13  C   UNL     1      -4.216  -0.472  -7.705  0.00  0.00    +0.001 C 
ATOM     14  C   UNL     1      -3.674   0.432  -6.596  0.00  0.00    +0.012 C 
ATOM     15  C   UNL     1      -6.014   1.017  -5.952  0.00  0.00    +0.047 C 
ATOM     16  C   UNL     1      -5.905   2.480  -6.291  0.00  0.00    -0.037 A 
ATOM     17  C   UNL     1      -5.095   3.315  -5.522  0.00  0.00    +0.004 A 
ATOM     18  C   UNL     1      -5.014   4.673  -5.818  0.00  0.00    +0.010 A 
ATOM     19  C   UNL     1      -5.726   5.184  -6.885  0.00  0.00    +0.001 A 
ATOM     20  C   UNL     1      -6.517   4.350  -7.654  0.00  0.00    +0.000 A 
ATOM     21  C   UNL     1      -6.607   3.002  -7.358  0.00  0.00    +0.004 A 
ATOM     22  H   UNL     1      -2.063   3.460  -0.768  0.00  0.00    +0.173 HD
ENDROOT
BRANCH   8  23
ATOM     23  C   UNL     1      -2.216   1.107  -1.177  0.00  0.00    +0.098 C 
ATOM     24  C   UNL     1      -3.115   0.132  -0.412  0.00  0.00    +0.053 C 
ATOM     25  C   UNL     1      -2.317  -0.490   0.738  0.00  0.00    +0.162 C 
ATOM     26  O   UNL     1      -1.159  -1.143   0.214  0.00  0.00    -0.374 OA
ATOM     27  C   UNL     1      -0.258  -0.271  -0.472  0.00  0.00    +0.066 C 
ATOM     28  C   UNL     1      -0.973   0.359  -1.670  0.00  0.00    +0.059 C 
ATOM     29  C   UNL     1       0.951  -1.071  -0.962  0.00  0.00    +0.041 C 
ATOM     30  C   UNL     1       0.210   0.831   0.481  0.00  0.00    +0.041 C 
ENDBRANCH   8  23
BRANCH   1  33
ATOM     31  C   UNL     1      -2.394   6.011  -0.562  0.00  0.00    +0.229 C 
ATOM     32  O   UNL     1      -1.695   5.557   0.319  0.00  0.00    -0.274 OA
ATOM     33  N   UNL     1      -2.902   5.196  -1.508  0.00  0.00    -0.234 N 
ATOM     34  H   UNL     1      -3.461   5.559  -2.212  0.00  0.00    +0.173 HD
BRANCH  31  36
ATOM     35  C   UNL     1      -2.003   8.179   0.576  0.00  0.00    +0.013 C 
ATOM     36  C   UNL     1      -2.695   7.487  -0.600  0.00  0.00    +0.094 C 
ENDBRANCH  31  36
ENDBRANCH   1  33
TORSDOF 3
