REMARK  Name = ZINC13332717
REMARK  6 active torsions:
REMARK  status: ('A' for Active; 'I' for Inactive)
REMARK    1  A    between atoms: C_1  and  C_2
REMARK    2  A    between atoms: C_2  and  C_4
REMARK    3  A    between atoms: C_2  and  S_20
REMARK    4  A    between atoms: N_6  and  C_7
REMARK    5  A    between atoms: C_12  and  C_13
REMARK    6  A    between atoms: S_20  and  C_21
REMARK                            x       y       z     vdW  Elec       q    Type
REMARK                         _______ _______ _______ _____ _____    ______ ____
ROOT
ATOM      1  C   UNL     1       0.999   2.316  -0.217  0.00  0.00    +0.051 A 
ATOM      2  C   UNL     1       0.805   3.671  -0.441  0.00  0.00    +0.073 A 
ATOM      3  C   UNL     1       1.898   4.514  -0.557  0.00  0.00    +0.164 A 
ATOM      4  C   UNL     1       3.192   4.008  -0.464  0.00  0.00    +0.163 A 
ATOM      5  C   UNL     1       3.400   2.663  -0.247  0.00  0.00    +0.066 A 
ATOM      6  C   UNL     1       2.302   1.802  -0.122  0.00  0.00    +0.088 A 
ATOM      7  O   UNL     1       4.257   4.854  -0.588  0.00  0.00    -0.488 OA
ATOM      8  C   UNL     1       4.435   5.795   0.472  0.00  0.00    +0.232 C 
ATOM      9  C   UNL     1       3.573   7.027   0.250  0.00  0.00    +0.082 C 
ATOM     10  C   UNL     1       2.087   6.711   0.304  0.00  0.00    +0.232 C 
ATOM     11  O   UNL     1       1.712   5.848  -0.771  0.00  0.00    -0.488 OA
ENDROOT
BRANCH   1  14
ATOM     12  C   UNL     1      -1.220   1.895   0.516  0.00  0.00    +0.230 C 
ATOM     13  O   UNL     1      -1.305   3.047   0.886  0.00  0.00    -0.274 OA
ATOM     14  N   UNL     1      -0.098   1.464  -0.094  0.00  0.00    -0.284 N 
ATOM     15  H   UNL     1      -0.056   0.564  -0.452  0.00  0.00    +0.155 HD
BRANCH  12  17
ATOM     16  C   UNL     1      -3.172   0.802  -0.553  0.00  0.00    +0.029 C 
ATOM     17  C   UNL     1      -2.368   0.945   0.741  0.00  0.00    +0.134 C 
BRANCH  17  18
ATOM     18  S   UNL     1      -3.441   1.591   2.053  0.00  0.00    -0.113 S 
BRANCH  18  19
ATOM     19  C   UNL     1      -2.481   1.407   3.518  0.00  0.00    +0.009 A 
ATOM     20  C   UNL     1      -1.193   0.889   3.447  0.00  0.00    +0.015 A 
ATOM     21  C   UNL     1      -0.442   0.750   4.598  0.00  0.00    +0.001 A 
ATOM     22  C   UNL     1      -0.973   1.117   5.821  0.00  0.00    +0.000 A 
ATOM     23  C   UNL     1      -2.256   1.628   5.896  0.00  0.00    +0.001 A 
ATOM     24  C   UNL     1      -3.011   1.774   4.749  0.00  0.00    +0.015 A 
ENDBRANCH  18  19
ENDBRANCH  17  18
ENDBRANCH  12  17
ENDBRANCH   1  14
BRANCH   6  25
ATOM     25  C   UNL     1       2.514   0.365   0.109  0.00  0.00    +0.388 C 
ATOM     26  O   UNL     1       1.564  -0.394   0.131  0.00  0.00    -0.241 OA
ATOM     27  O   UNL     1       3.761  -0.112   0.296  0.00  0.00    -0.241 OA
ENDBRANCH   6  25
TORSDOF 5
