REMARK  Name = ZINC12037703
REMARK  9 active torsions:
REMARK  status: ('A' for Active; 'I' for Inactive)
REMARK    1  A    between atoms: C_1  and  C_2
REMARK    2  A    between atoms: C_2  and  C_3
REMARK    3  A    between atoms: C_2  and  C_4
REMARK    4  A    between atoms: C_4  and  N_5
REMARK    5  A    between atoms: C_8  and  C_12
REMARK    6  A    between atoms: C_8  and  C_20
REMARK    7  A    between atoms: C_12  and  C_13
REMARK    8  A    between atoms: C_25  and  C_26
REMARK    9  A    between atoms: C_25  and  N_70
REMARK                            x       y       z     vdW  Elec       q    Type
REMARK                         _______ _______ _______ _____ _____    ______ ____
ROOT
ATOM      1  N   UNL     1      -6.516  -1.027   6.138  0.00  0.00    -0.224 N 
ATOM      2  C   UNL     1      -5.235  -1.154   5.738  0.00  0.00    +0.247 C 
ATOM      3  O   UNL     1      -4.339  -0.351   5.887  0.00  0.00    -0.273 OA
ATOM      4  C   UNL     1      -5.148  -2.509   5.063  0.00  0.00    +0.119 C 
ATOM      5  N   UNL     1      -6.519  -3.038   5.171  0.00  0.00    -0.284 N 
ATOM      6  C   UNL     1      -7.243  -2.102   5.813  0.00  0.00    +0.309 C 
ATOM      7  O   UNL     1      -8.425  -2.221   6.069  0.00  0.00    -0.252 OA
ATOM      8  H   UNL     1      -6.838  -3.893   4.844  0.00  0.00    +0.151 HD
ENDROOT
BRANCH   4   9
ATOM      9  C   UNL     1      -4.745  -2.354   3.596  0.00  0.00    +0.018 C 
ATOM     10  C   UNL     1      -5.721  -1.406   2.894  0.00  0.00    -0.013 C 
ATOM     11  C   UNL     1      -5.278  -1.208   1.442  0.00  0.00    -0.078 C 
ATOM     12  C   UNL     1      -2.957  -1.563   2.043  0.00  0.00    -0.078 C 
ATOM     13  C   UNL     1      -3.331  -1.772   3.512  0.00  0.00    -0.013 C 
ATOM     14  N   UNL     1      -3.920  -0.623   1.431  0.00  0.00    +0.382 N 
ATOM     15  H   UNL     1      -3.928   0.247   1.977  0.00  0.00    -0.081 HD
BRANCH  14  16
ATOM     16  C   UNL     1      -3.514  -0.316   0.044  0.00  0.00    -0.043 C 
BRANCH  16  17
ATOM     17  C   UNL     1      -2.231   0.474   0.078  0.00  0.00    -0.060 A 
ATOM     18  C   UNL     1      -2.272   1.854   0.155  0.00  0.00    +0.005 A 
ATOM     19  C   UNL     1      -1.098   2.582   0.180  0.00  0.00    +0.049 A 
ATOM     20  C   UNL     1       0.125   1.929   0.137  0.00  0.00    +0.162 A 
ATOM     21  C   UNL     1       0.166   0.542   0.062  0.00  0.00    +0.162 A 
ATOM     22  C   UNL     1      -1.016  -0.182   0.032  0.00  0.00    +0.051 A 
ATOM     23  O   UNL     1       1.356  -0.118   0.019  0.00  0.00    -0.485 OA
ATOM     24  C   UNL     1       2.509   0.656  -0.327  0.00  0.00    +0.270 C 
ATOM     25  C   UNL     1       2.477   1.956   0.488  0.00  0.00    +0.270 C 
ATOM     26  O   UNL     1       1.274   2.660   0.162  0.00  0.00    -0.485 OA
ENDBRANCH  16  17
ENDBRANCH  14  16
ENDBRANCH   4   9
BRANCH   1  27
ATOM     27  C   UNL     1      -7.046   0.143   6.842  0.00  0.00    +0.121 C 
BRANCH  27  29
ATOM     28  C   UNL     1      -7.199   1.286   9.058  0.00  0.00    +0.009 C 
ATOM     29  C   UNL     1      -6.771   0.004   8.340  0.00  0.00    +0.001 C 
ATOM     30  C   UNL     1      -7.564  -1.181   8.897  0.00  0.00    +0.009 C 
ENDBRANCH  27  29
ENDBRANCH   1  27
BRANCH   4  31
ATOM     31  C   UNL     1      -4.159  -3.414   5.799  0.00  0.00    +0.070 C 
BRANCH  31  32
ATOM     32  C   UNL     1      -4.644  -3.649   7.207  0.00  0.00    -0.042 A 
ATOM     33  C   UNL     1      -5.473  -4.721   7.482  0.00  0.00    +0.004 A 
ATOM     34  C   UNL     1      -5.919  -4.937   8.772  0.00  0.00    +0.003 A 
ATOM     35  C   UNL     1      -5.536  -4.083   9.789  0.00  0.00    +0.038 A 
ATOM     36  C   UNL     1      -4.706  -3.010   9.515  0.00  0.00    +0.124 A 
ATOM     37  C   UNL     1      -4.255  -2.797   8.223  0.00  0.00    +0.042 A 
ATOM     38  F   UNL     1      -4.331  -2.174  10.508  0.00  0.00    -0.205 F 
ENDBRANCH  31  32
ENDBRANCH   4  31
TORSDOF 7
