REMARK  Name = ZINC39779344
REMARK  9 active torsions:
REMARK  status: ('A' for Active; 'I' for Inactive)
REMARK    1  A    between atoms: C_1  and  C_2
REMARK    2  A    between atoms: C_5  and  N_8
REMARK    3  A    between atoms: C_9  and  C_11
REMARK    4  A    between atoms: C_11  and  N_12
REMARK    5  A    between atoms: N_12  and  C_13
REMARK    6  A    between atoms: C_14  and  C_16
REMARK    7  A    between atoms: C_19  and  N_22
REMARK    8  A    between atoms: N_22  and  S_23
REMARK    9  A    between atoms: S_23  and  C_26
REMARK                            x       y       z     vdW  Elec       q    Type
REMARK                         _______ _______ _______ _____ _____    ______ ____
ROOT
ATOM      1  C   UNL     1       1.800  -7.559   4.378  0.00  0.00    +0.037 A 
ATOM      2  C   UNL     1       0.707  -8.097   5.064  0.00  0.00    +0.015 A 
ATOM      3  C   UNL     1       0.859  -8.543   6.356  0.00  0.00    +0.025 A 
ATOM      4  C   UNL     1       2.100  -8.459   6.982  0.00  0.00    +0.048 A 
ATOM      5  C   UNL     1       3.191  -7.923   6.303  0.00  0.00    +0.025 A 
ATOM      6  C   UNL     1       3.046  -7.481   5.008  0.00  0.00    +0.015 A 
ENDROOT
BRANCH   1   9
ATOM      7  N   UNL     1       0.506  -6.457   2.621  0.00  0.00    -0.292 N 
ATOM      8  C   UNL     1      -0.598  -6.315   3.575  0.00  0.00    +0.133 C 
ATOM      9  C   UNL     1       1.641  -7.080   2.992  0.00  0.00    +0.247 C 
ATOM     10  O   UNL     1       2.534  -7.249   2.184  0.00  0.00    -0.270 OA
BRANCH   7  11
ATOM     11  C   UNL     1       0.374  -5.920   1.264  0.00  0.00    +0.203 C 
BRANCH  11  13
ATOM     12  N   UNL     1       0.842  -3.796   0.085  0.00  0.00    -0.284 N 
ATOM     13  C   UNL     1       0.868  -4.496   1.237  0.00  0.00    +0.235 C 
ATOM     14  O   UNL     1       1.287  -3.980   2.251  0.00  0.00    -0.274 OA
ATOM     15  H   UNL     1       0.440  -4.182  -0.708  0.00  0.00    +0.155 HD
BRANCH  12  20
ATOM     16  C   UNL     1       3.091   1.408  -0.121  0.00  0.00    +0.044 C 
ATOM     17  C   UNL     1       2.494   0.025  -0.066  0.00  0.00    -0.050 A 
ATOM     18  C   UNL     1       2.967  -0.895   0.851  0.00  0.00    +0.005 A 
ATOM     19  C   UNL     1       2.422  -2.163   0.904  0.00  0.00    +0.023 A 
ATOM     20  C   UNL     1       1.396  -2.513   0.035  0.00  0.00    +0.033 A 
ATOM     21  C   UNL     1       0.923  -1.586  -0.885  0.00  0.00    +0.023 A 
ATOM     22  C   UNL     1       1.469  -0.318  -0.929  0.00  0.00    +0.005 A 
ENDBRANCH  12  20
ENDBRANCH  11  13
ENDBRANCH   7  11
ENDBRANCH   1   9
BRANCH   4  23
ATOM     23  N   UNL     1       2.250  -8.910   8.289  0.00  0.00    -0.216 N 
ATOM     24  H   UNL     1       1.601  -8.661   8.966  0.00  0.00    +0.174 HD
BRANCH  23  25
ATOM     25  S   UNL     1       3.536  -9.873   8.690  0.00  0.00    +0.072 S 
ATOM     26  O   UNL     1       4.705  -9.193   8.252  0.00  0.00    -0.150 OA
ATOM     27  O   UNL     1       3.345 -10.265  10.042  0.00  0.00    -0.150 OA
BRANCH  25  28
ATOM     28  C   UNL     1       3.413 -11.338   7.718  0.00  0.00    +0.110 A 
ATOM     29  C   UNL     1       2.571 -12.431   8.191  0.00  0.00    +0.031 A 
ATOM     30  C   UNL     1       2.432 -13.580   7.495  0.00  0.00    +0.027 A 
ATOM     31  C   UNL     1       3.142 -13.746   6.229  0.00  0.00    +0.056 A 
ATOM     32  N   UNL     1       3.226 -14.700   5.335  0.00  0.00    -0.268 N 
ATOM     33  C   UNL     1       4.066 -14.280   4.330  0.00  0.00    +0.308 C 
ATOM     34  O   UNL     1       4.356 -14.929   3.348  0.00  0.00    -0.252 OA
ATOM     35  N   UNL     1       4.526 -13.014   4.606  0.00  0.00    -0.267 N 
ATOM     36  C   UNL     1       4.007 -12.624   5.743  0.00  0.00    +0.058 A 
ATOM     37  C   UNL     1       4.097 -11.413   6.556  0.00  0.00    +0.054 A 
ATOM     38  H   UNL     1       5.131 -12.497   4.052  0.00  0.00    +0.156 HD
ATOM     39  H   UNL     1       2.773 -15.556   5.375  0.00  0.00    +0.156 HD
ENDBRANCH  25  28
ENDBRANCH  23  25
ENDBRANCH   4  23
TORSDOF 7
