REMARK  Name = ZINC02785565
REMARK  3 active torsions:
REMARK  status: ('A' for Active; 'I' for Inactive)
REMARK    1  A    between atoms: C_1  and  C_2
REMARK    2  A    between atoms: C_7  and  C_20
REMARK    3  A    between atoms: C_10  and  C_13
REMARK                            x       y       z     vdW  Elec       q    Type
REMARK                         _______ _______ _______ _____ _____    ______ ____
ROOT
ATOM      1  C   UNL     1      -0.018   1.503   0.010  0.00  0.00    +0.067 C 
ATOM      2  C   UNL     1       0.002  -0.004   0.002  0.00  0.00    +0.062 A 
ATOM      3  C   UNL     1       0.008  -0.817  -1.139  0.00  0.00    +0.067 A 
ATOM      4  C   UNL     1       0.027  -2.103  -0.724  0.00  0.00    +0.118 A 
ATOM      5  N   UNL     1       0.035  -2.104   0.635  0.00  0.00    -0.239 N 
ATOM      6  N   UNL     1       0.023  -0.777   1.061  0.00  0.00    -0.174 NA
ATOM      7  C   UNL     1       0.059  -3.323   1.448  0.00  0.00    +0.215 C 
ATOM      8  C   UNL     1       0.552  -4.488   0.583  0.00  0.00    +0.063 C 
ATOM      9  C   UNL     1      -0.231  -4.527  -0.734  0.00  0.00    +0.104 C 
ATOM     10  N   UNL     1       0.037  -3.280  -1.476  0.00  0.00    -0.322 N 
ATOM     11  H   UNL     1       0.210  -3.277  -2.431  0.00  0.00    +0.148 HD
ENDROOT
BRANCH   9  12
ATOM     12  C   UNL     1       0.212  -5.713  -1.552  0.00  0.00    -0.027 A 
ATOM     13  C   UNL     1       1.381  -5.648  -2.286  0.00  0.00    +0.007 A 
ATOM     14  C   UNL     1       1.789  -6.735  -3.036  0.00  0.00    +0.020 A 
ATOM     15  C   UNL     1       1.025  -7.889  -3.052  0.00  0.00    +0.041 A 
ATOM     16  C   UNL     1      -0.145  -7.953  -2.317  0.00  0.00    +0.020 A 
ATOM     17  C   UNL     1      -0.548  -6.868  -1.563  0.00  0.00    +0.007 A 
ATOM     18 CL   UNL     1       1.536  -9.254  -3.994  0.00  0.00    -0.084 Cl
ENDBRANCH   9  12
BRANCH   7  19
ATOM     19  C   UNL     1       1.004  -3.127   2.636  0.00  0.00    +0.412 C 
ATOM     20  F   UNL     1       0.557  -2.056   3.416  0.00  0.00    -0.168 F 
ATOM     21  F   UNL     1       1.026  -4.292   3.411  0.00  0.00    -0.168 F 
ATOM     22  F   UNL     1       2.293  -2.856   2.166  0.00  0.00    -0.168 F 
ENDBRANCH   7  19
TORSDOF 2
