REMARK  Name = ZINC66851856
REMARK  5 active torsions:
REMARK  status: ('A' for Active; 'I' for Inactive)
REMARK    1  A    between atoms: C_1  and  C_2
REMARK    2  A    between atoms: C_6  and  C_19
REMARK    3  A    between atoms: N_9  and  C_10
REMARK    4  A    between atoms: C_10  and  C_11
REMARK    5  A    between atoms: C_13  and  N_16
REMARK                            x       y       z     vdW  Elec       q    Type
REMARK                         _______ _______ _______ _____ _____    ______ ____
ROOT
ATOM      1  C   UNL     1      -0.019   1.526   0.010  0.00  0.00    +0.026 C 
ATOM      2  C   UNL     1       0.002  -0.004   0.002  0.00  0.00    +0.080 C 
ATOM      3  C   UNL     1       0.720  -0.499  -1.256  0.00  0.00    +0.179 C 
ATOM      4  O   UNL     1       0.803  -1.926  -1.222  0.00  0.00    -0.369 OA
ATOM      5  C   UNL     1       1.492  -2.436  -0.077  0.00  0.00    +0.162 C 
ATOM      6  C   UNL     1       0.782  -1.960   1.193  0.00  0.00    +0.121 C 
ATOM      7  N   UNL     1       0.715  -0.492   1.192  0.00  0.00    -0.291 NA
ENDROOT
BRANCH   5   8
ATOM      8  C   UNL     1       1.495  -3.942  -0.120  0.00  0.00    -0.018 A 
ATOM      9  C   UNL     1       0.407  -4.620  -0.637  0.00  0.00    +0.006 A 
ATOM     10  C   UNL     1       0.409  -6.002  -0.677  0.00  0.00    +0.000 A 
ATOM     11  C   UNL     1       1.499  -6.705  -0.200  0.00  0.00    +0.000 A 
ATOM     12  C   UNL     1       2.587  -6.027   0.316  0.00  0.00    +0.000 A 
ATOM     13  C   UNL     1       2.587  -4.645   0.352  0.00  0.00    +0.006 A 
ENDBRANCH   5   8
BRANCH   7  14
ATOM     14  C   UNL     1       0.088   0.008   2.423  0.00  0.00    +0.120 C 
BRANCH  14  15
ATOM     15  C   UNL     1       0.976  -0.302   3.600  0.00  0.00    -0.024 A 
ATOM     16  C   UNL     1       0.838  -1.494   4.287  0.00  0.00    +0.045 A 
ATOM     17  C   UNL     1       1.653  -1.742   5.342  0.00  0.00    +0.164 A 
ATOM     18  S   UNL     1       2.656  -0.266   5.389  0.00  0.00    -0.073 S 
ATOM     19  C   UNL     1       1.925   0.580   3.998  0.00  0.00    +0.052 A 
BRANCH  17  20
ATOM     20  N   UNL     1       1.699  -2.929   6.225  0.00  0.00    +0.063 N 
ATOM     21  O   UNL     1       0.934  -3.848   6.043  0.00  0.00    -0.126 OA
ATOM     22  O   UNL     1       2.502  -2.981   7.128  0.00  0.00    -0.126 OA
ENDBRANCH  17  20
ENDBRANCH  14  15
ENDBRANCH   7  14
TORSDOF 4
