REMARK  Name = ZINC39653478
REMARK  15 active torsions:
REMARK  status: ('A' for Active; 'I' for Inactive)
REMARK    1  A    between atoms: C_1  and  C_2
REMARK    2  A    between atoms: C_2  and  O_3
REMARK    3  A    between atoms: O_3  and  C_4
REMARK    4  A    between atoms: C_6  and  C_12
REMARK    5  A    between atoms: C_9  and  O_10
REMARK    6  A    between atoms: O_10  and  C_11
REMARK    7  A    between atoms: C_12  and  C_13
REMARK    8  A    between atoms: C_13  and  N_14
REMARK    9  A    between atoms: C_15  and  C_17
REMARK   10  A    between atoms: C_28  and  C_30
REMARK   11  A    between atoms: C_32  and  C_39
REMARK   12  A    between atoms: N_34  and  C_35
REMARK   13  A    between atoms: C_35  and  C_36
REMARK   14  A    between atoms: C_35  and  C_37
REMARK   15  A    between atoms: C_35  and  C_38
REMARK                            x       y       z     vdW  Elec       q    Type
REMARK                         _______ _______ _______ _____ _____    ______ ____
ROOT
ATOM      1  C   UNL     1       4.398  -7.404   2.603  0.00  0.00    +0.100 C 
ATOM      2  C   UNL     1       3.928  -8.589   1.731  0.00  0.00    +0.121 C 
ATOM      3  N   UNL     1       4.478  -9.790   2.403  0.00  0.00    -0.295 N 
ATOM      4  C   UNL     1       4.315  -9.510   3.849  0.00  0.00    +0.115 C 
ATOM      5  C   UNL     1       4.651  -8.012   3.993  0.00  0.00    -0.004 C 
ATOM      6  C   UNL     1       6.114  -7.835   4.389  0.00  0.00    -0.010 C 
ATOM      7  C   UNL     1       6.327  -8.397   5.798  0.00  0.00    -0.082 C 
ATOM      8  N   UNL     1       5.454  -7.693   6.745  0.00  0.00    +0.379 N 
ATOM      9  C   UNL     1       4.047  -7.945   6.411  0.00  0.00    -0.082 C 
ATOM     10  C   UNL     1       3.737  -7.364   5.028  0.00  0.00    -0.010 C 
ATOM     11  C   UNL     1       5.006 -10.889   1.828  0.00  0.00    +0.265 C 
ATOM     12  O   UNL     1       5.428 -11.795   2.522  0.00  0.00    -0.268 OA
ATOM     13  H   UNL     1       5.640  -8.023   7.680  0.00  0.00    -0.086 HD
ATOM     14  H   UNL     1       5.637  -6.702   6.697  0.00  0.00    -0.086 HD
ENDROOT
BRANCH  11  15
ATOM     15  C   UNL     1       5.073 -10.992   0.362  0.00  0.00    +0.124 A 
ATOM     16  C   UNL     1       4.458 -10.162  -0.559  0.00  0.00    +0.057 A 
ATOM     17  C   UNL     1       4.820 -10.665  -1.811  0.00  0.00    +0.061 A 
ATOM     18  N   UNL     1       5.587 -11.707  -1.618  0.00  0.00    -0.175 NA
ATOM     19  N   UNL     1       5.761 -11.923  -0.364  0.00  0.00    -0.254 N 
ATOM     20  C   UNL     1       4.400 -10.107  -3.146  0.00  0.00    +0.067 C 
BRANCH  19  21
ATOM     21  C   UNL     1       6.570 -13.006   0.202  0.00  0.00    +0.056 C 
ATOM     22  C   UNL     1       5.668 -13.958   0.990  0.00  0.00    +0.036 C 
ATOM     23  C   UNL     1       7.258 -13.773  -0.928  0.00  0.00    +0.036 C 
ATOM     24  C   UNL     1       7.629 -12.416   1.136  0.00  0.00    +0.036 C 
ENDBRANCH  19  21
ENDBRANCH  11  15
BRANCH   1  26
ATOM     25  N   UNL     1       3.662  -5.053   2.822  0.00  0.00    -0.315 N 
ATOM     26  C   UNL     1       3.324  -6.350   2.679  0.00  0.00    +0.218 C 
ATOM     27  O   UNL     1       2.156  -6.668   2.612  0.00  0.00    -0.275 OA
ATOM     28  H   UNL     1       4.591  -4.804   2.948  0.00  0.00    +0.149 HD
BRANCH  25  29
ATOM     29  C   UNL     1       2.626  -4.018   2.786  0.00  0.00    +0.109 C 
BRANCH  29  30
ATOM     30  C   UNL     1       3.271  -2.643   2.970  0.00  0.00    +0.054 C 
BRANCH  30  33
ATOM     31  C   UNL     1       0.601  -0.207   4.070  0.00  0.00    +0.162 A 
ATOM     32  C   UNL     1       1.581  -1.186   4.102  0.00  0.00    +0.053 A 
ATOM     33  C   UNL     1       2.205  -1.578   2.933  0.00  0.00    -0.042 A 
ATOM     34  C   UNL     1       1.854  -0.996   1.729  0.00  0.00    +0.007 A 
ATOM     35  C   UNL     1       0.877  -0.018   1.690  0.00  0.00    +0.049 A 
ATOM     36  C   UNL     1       0.243   0.375   2.858  0.00  0.00    +0.162 A 
BRANCH  36  37
ATOM     37  O   UNL     1      -0.722   1.332   2.820  0.00  0.00    -0.491 OA
ATOM     38  C   UNL     1      -1.038   1.885   1.541  0.00  0.00    +0.277 C 
ENDBRANCH  36  37
BRANCH  31  39
ATOM     39  O   UNL     1      -0.014   0.179   5.219  0.00  0.00    -0.489 OA
BRANCH  39  41
ATOM     40  C   UNL     1      -0.394   0.100   7.605  0.00  0.00    +0.048 C 
ATOM     41  C   UNL     1       0.404  -0.461   6.426  0.00  0.00    +0.226 C 
ENDBRANCH  39  41
ENDBRANCH  31  39
ENDBRANCH  30  33
ENDBRANCH  29  30
ENDBRANCH  25  29
ENDBRANCH   1  26
TORSDOF 9
