REMARK  Name = ZINC67562707
REMARK  5 active torsions:
REMARK  status: ('A' for Active; 'I' for Inactive)
REMARK    1  A    between atoms: C_1  and  C_2
REMARK    2  A    between atoms: C_6  and  C_8
REMARK    3  A    between atoms: C_8  and  N_9
REMARK    4  A    between atoms: C_16  and  C_20
REMARK    5  A    between atoms: C_18  and  O_19
REMARK                            x       y       z     vdW  Elec       q    Type
REMARK                         _______ _______ _______ _____ _____    ______ ____
ROOT
ATOM      1  N   UNL     1       1.437  -3.552   1.973  0.00  0.00    -0.289 NA
ATOM      2  C   UNL     1       2.235  -3.935   0.812  0.00  0.00    +0.126 C 
ATOM      3  C   UNL     1       3.726  -3.933   1.073  0.00  0.00    +0.244 C 
ATOM      4  O   UNL     1       4.074  -4.936   2.035  0.00  0.00    -0.487 OA
ATOM      5  C   UNL     1       3.965  -4.556   3.338  0.00  0.00    +0.166 A 
ATOM      6  C   UNL     1       2.718  -4.320   3.885  0.00  0.00    +0.013 A 
ATOM      7  C   UNL     1       2.592  -3.903   5.192  0.00  0.00    +0.019 A 
ATOM      8  C   UNL     1       3.736  -3.736   5.977  0.00  0.00    +0.011 A 
ATOM      9  C   UNL     1       4.996  -3.992   5.433  0.00  0.00    +0.059 A 
ATOM     10  C   UNL     1       5.111  -4.400   4.117  0.00  0.00    +0.159 A 
ATOM     11  C   UNL     1       1.480  -4.556   3.042  0.00  0.00    +0.124 C 
ENDROOT
BRANCH   8  12
ATOM     12  C   UNL     1       3.612  -3.289   7.380  0.00  0.00    +0.110 A 
ATOM     13  N   UNL     1       2.524  -3.007   8.064  0.00  0.00    -0.239 NA
ATOM     14  C   UNL     1       2.560  -2.606   9.350  0.00  0.00    +0.079 A 
ATOM     15  C   UNL     1       1.472  -2.274  10.193  0.00  0.00    +0.029 A 
ATOM     16  C   UNL     1       1.681  -1.884  11.478  0.00  0.00    +0.002 A 
ATOM     17  C   UNL     1       2.958  -1.796  12.015  0.00  0.00    +0.001 A 
ATOM     18  C   UNL     1       4.048  -2.112  11.226  0.00  0.00    +0.017 A 
ATOM     19  C   UNL     1       3.848  -2.507   9.926  0.00  0.00    +0.040 A 
ATOM     20  S   UNL     1       4.902  -3.001   8.584  0.00  0.00    -0.067 S 
ENDBRANCH   8  12
BRANCH  10  21
ATOM     21  O   UNL     1       6.337  -4.649   3.584  0.00  0.00    -0.503 OA
ATOM     22  H   UNL     1       6.751  -3.878   3.174  0.00  0.00    +0.292 HD
ENDBRANCH  10  21
BRANCH   1  23
ATOM     23  C   UNL     1       0.052  -3.253   1.586  0.00  0.00    +0.139 C 
BRANCH  23  29
ATOM     24  C   UNL     1      -0.018   1.503   0.010  0.00  0.00    +0.084 C 
ATOM     25  C   UNL     1       0.002  -0.004   0.002  0.00  0.00    +0.081 A 
ATOM     26  N   UNL     1       0.008  -0.785  -1.100  0.00  0.00    -0.350 N 
ATOM     27  H   UNL     1       0.001  -0.481  -2.021  0.00  0.00    +0.166 HD
ATOM     28  C   UNL     1       0.028  -2.086  -0.674  0.00  0.00    +0.106 A 
ATOM     29  C   UNL     1       0.033  -2.055   0.673  0.00  0.00    +0.047 A 
ATOM     30  N   UNL     1       0.022  -0.770   1.058  0.00  0.00    -0.346 N 
ATOM     31  H   UNL     1       0.027  -0.460   1.977  0.00  0.00    +0.167 HD
ENDBRANCH  23  29
ENDBRANCH   1  23
TORSDOF 4
