REMARK  Name = ZINC21011581
REMARK  10 active torsions:
REMARK  status: ('A' for Active; 'I' for Inactive)
REMARK    1  A    between atoms: C_1  and  C_2
REMARK    2  A    between atoms: C_2  and  N_3
REMARK    3  A    between atoms: C_5  and  C_11
REMARK    4  A    between atoms: C_6  and  O_8
REMARK    5  A    between atoms: O_8  and  C_9
REMARK    6  A    between atoms: C_9  and  C_10
REMARK    7  A    between atoms: C_17  and  S_19
REMARK    8  A    between atoms: S_19  and  C_20
REMARK    9  A    between atoms: C_20  and  C_21
REMARK   10  A    between atoms: N_23  and  C_24
REMARK                            x       y       z     vdW  Elec       q    Type
REMARK                         _______ _______ _______ _____ _____    ______ ____
ROOT
ATOM      1  C   UNL     1       2.659  -0.810  -6.628  0.00  0.00    +0.256 C 
ATOM      2  O   UNL     1       3.287  -1.245  -5.681  0.00  0.00    -0.270 OA
ATOM      3  N   UNL     1       1.568  -0.048  -6.420  0.00  0.00    -0.259 N 
ATOM      4  C   UNL     1       1.158   0.243  -5.122  0.00  0.00    +0.189 A 
ATOM      5  N   UNL     1       1.693  -0.127  -3.975  0.00  0.00    -0.125 NA
ATOM      6  N   UNL     1       1.121   0.277  -2.791  0.00  0.00    -0.133 NA
ATOM      7  C   UNL     1       0.038   1.032  -2.809  0.00  0.00    +0.160 A 
ATOM      8  S   UNL     1      -0.237   1.209  -4.565  0.00  0.00    -0.024 S 
ATOM      9  H   UNL     1       1.000   0.345  -7.277  0.00  0.00    +0.157 HD
ENDROOT
BRANCH   1  12
ATOM     10  N   UNL     1       3.190  -1.194 -10.194  0.00  0.00    -0.267 N 
ATOM     11  C   UNL     1       2.480  -0.702  -9.167  0.00  0.00    +0.125 A 
ATOM     12  C   UNL     1       3.092  -1.118  -8.001  0.00  0.00    +0.117 A 
ATOM     13  C   UNL     1       4.213  -1.901  -8.375  0.00  0.00    +0.246 A 
ATOM     14  N   UNL     1       4.259  -1.938  -9.682  0.00  0.00    -0.133 NA
BRANCH  10  16
ATOM     15  C   UNL     1       4.122  -0.412 -12.315  0.00  0.00    +0.029 C 
ATOM     16  C   UNL     1       2.892  -0.992 -11.614  0.00  0.00    +0.140 C 
ENDBRANCH  10  16
BRANCH  13  17
ATOM     17  O   UNL     1       5.084  -2.507  -7.527  0.00  0.00    -0.475 OA
BRANCH  17  18
ATOM     18  C   UNL     1       6.151  -3.253  -8.116  0.00  0.00    +0.227 C 
ATOM     19  C   UNL     1       7.021  -3.857  -7.013  0.00  0.00    +0.048 C 
ENDBRANCH  17  18
ENDBRANCH  13  17
ENDBRANCH   1  12
BRANCH   7  20
ATOM     20  S   UNL     1      -0.891   1.685  -1.462  0.00  0.00    -0.088 S 
BRANCH  20  21
ATOM     21  C   UNL     1      -0.016   1.080   0.008  0.00  0.00    +0.172 C 
BRANCH  21  22
ATOM     22  C   UNL     1      -0.717   1.573   1.248  0.00  0.00    +0.227 C 
ATOM     23  O   UNL     1      -1.709   2.265   1.150  0.00  0.00    -0.275 OA
ATOM     24  N   UNL     1      -0.242   1.246   2.466  0.00  0.00    -0.285 N 
ATOM     25  H   UNL     1       0.612   0.558   2.557  0.00  0.00    +0.155 HD
BRANCH  24  26
ATOM     26  C   UNL     1      -0.833   1.782   3.615  0.00  0.00    +0.033 A 
ATOM     27  C   UNL     1      -0.052   2.086   4.723  0.00  0.00    +0.024 A 
ATOM     28  C   UNL     1      -0.638   2.620   5.854  0.00  0.00    +0.017 A 
ATOM     29  C   UNL     1      -2.004   2.841   5.888  0.00  0.00    +0.018 A 
ATOM     30  C   UNL     1      -2.785   2.534   4.788  0.00  0.00    +0.017 A 
ATOM     31  C   UNL     1      -2.204   2.006   3.652  0.00  0.00    +0.024 A 
ATOM     32 BR   UNL     1      -2.803   3.566   7.441  0.00  0.00    -0.050 Br
ENDBRANCH  24  26
ENDBRANCH  21  22
ENDBRANCH  20  21
ENDBRANCH   7  20
TORSDOF 8
