REMARK  Name = ZINC13940997
REMARK  7 active torsions:
REMARK  status: ('A' for Active; 'I' for Inactive)
REMARK    1  A    between atoms: C_1  and  C_2
REMARK    2  A    between atoms: C_2  and  O_3
REMARK    3  A    between atoms: O_3  and  C_4
REMARK    4  A    between atoms: C_6  and  C_11
REMARK    5  A    between atoms: C_9  and  O_10
REMARK    6  A    between atoms: C_16  and  N_18
REMARK    7  A    between atoms: N_18  and  C_19
REMARK                            x       y       z     vdW  Elec       q    Type
REMARK                         _______ _______ _______ _____ _____    ______ ____
ROOT
ATOM      1  C   UNL     1       0.615  -4.957  -0.115  0.00  0.00    +0.028 C 
ATOM      2  C   UNL     1       0.452  -6.298   0.022  0.00  0.00    +0.079 C 
ATOM      3  C   UNL     1      -0.791  -7.095   0.144  0.00  0.00    +0.276 C 
ATOM      4  O   UNL     1      -1.895  -6.573   0.133  0.00  0.00    -0.267 OA
ATOM      5  N   UNL     1      -0.641  -8.395   0.266  0.00  0.00    -0.152 NA
ATOM      6  C   UNL     1       0.550  -8.974   0.280  0.00  0.00    +0.175 C 
ATOM      7  S   UNL     1       1.676  -7.600   0.097  0.00  0.00    -0.050 S 
ENDROOT
BRANCH   1  10
ATOM      8  C   UNL     1      -2.620  -3.493   1.089  0.00  0.00    +0.162 A 
ATOM      9  C   UNL     1      -1.539  -4.342   0.962  0.00  0.00    +0.057 A 
ATOM     10  C   UNL     1      -0.538  -4.059   0.025  0.00  0.00    -0.020 A 
ATOM     11  C   UNL     1      -0.639  -2.917  -0.779  0.00  0.00    +0.012 A 
ATOM     12  C   UNL     1      -1.722  -2.076  -0.645  0.00  0.00    +0.050 A 
ATOM     13  C   UNL     1      -2.717  -2.360   0.281  0.00  0.00    +0.158 A 
BRANCH  13  14
ATOM     14  O   UNL     1      -3.784  -1.530   0.404  0.00  0.00    -0.503 OA
ATOM     15  H   UNL     1      -3.658  -0.819   1.048  0.00  0.00    +0.292 HD
ENDBRANCH  13  14
BRANCH   8  16
ATOM     16  O   UNL     1      -3.595  -3.764   1.997  0.00  0.00    -0.489 OA
BRANCH  16  18
ATOM     17  C   UNL     1      -4.618  -5.079   3.748  0.00  0.00    +0.048 C 
ATOM     18  C   UNL     1      -3.432  -4.941   2.791  0.00  0.00    +0.226 C 
ENDBRANCH  16  18
ENDBRANCH   8  16
ENDBRANCH   1  10
BRANCH   6  19
ATOM     19  N   UNL     1       0.846 -10.307   0.400  0.00  0.00    -0.192 NA
BRANCH  19  20
ATOM     20  C   UNL     1      -0.176 -11.260   0.332  0.00  0.00    +0.056 A 
ATOM     21  C   UNL     1      -1.354 -10.969  -0.345  0.00  0.00    +0.028 A 
ATOM     22  C   UNL     1      -2.361 -11.912  -0.411  0.00  0.00    +0.040 A 
ATOM     23  C   UNL     1      -2.198 -13.145   0.197  0.00  0.00    +0.124 A 
ATOM     24  C   UNL     1      -1.024 -13.437   0.871  0.00  0.00    +0.040 A 
ATOM     25  C   UNL     1      -0.012 -12.500   0.935  0.00  0.00    +0.028 A 
ATOM     26  F   UNL     1      -3.185 -14.065   0.131  0.00  0.00    -0.205 F 
ENDBRANCH  19  20
ENDBRANCH   6  19
TORSDOF 6
