REMARK  Name = ZINC23828575
REMARK  3 active torsions:
REMARK  status: ('A' for Active; 'I' for Inactive)
REMARK    1  A    between atoms: C_8  and  C_10
REMARK    2  A    between atoms: N_13  and  C_16
REMARK    3  A    between atoms: C_16  and  C_17
REMARK                            x       y       z     vdW  Elec       q    Type
REMARK                         _______ _______ _______ _____ _____    ______ ____
ROOT
ATOM      1  C   UNL     1       3.078  -3.972  -0.050  0.00  0.00    +0.041 C 
ATOM      2  C   UNL     1       3.908  -4.260  -1.304  0.00  0.00    -0.009 C 
ATOM      3  C   UNL     1       4.386  -5.713  -1.270  0.00  0.00    -0.078 C 
ATOM      4  N   UNL     1       5.210  -5.933  -0.076  0.00  0.00    +0.384 N 
ATOM      5  C   UNL     1       4.402  -5.728   1.132  0.00  0.00    -0.078 C 
ATOM      6  C   UNL     1       3.924  -4.275   1.190  0.00  0.00    -0.009 C 
ATOM      7  H   UNL     1       5.982  -5.283  -0.077  0.00  0.00    -0.081 HD
ENDROOT
BRANCH   1  15
ATOM      8  C   UNL     1      -0.016   1.357   0.009  0.00  0.00    +0.002 A 
ATOM      9  C   UNL     1       1.156   2.100   0.002  0.00  0.00    +0.001 A 
ATOM     10  C   UNL     1       2.375   1.449  -0.013  0.00  0.00    +0.017 A 
ATOM     11  C   UNL     1       2.404   0.076  -0.021  0.00  0.00    +0.039 A 
ATOM     12  C   UNL     1       1.226  -0.705  -0.013  0.00  0.00    +0.078 A 
ATOM     13  C   UNL     1       0.002  -0.004   0.002  0.00  0.00    +0.029 A 
ATOM     14  N   UNL     1       1.464  -2.033  -0.023  0.00  0.00    -0.244 NA
ATOM     15  C   UNL     1       2.669  -2.521  -0.038  0.00  0.00    +0.082 A 
ATOM     16  S   UNL     1       3.669  -1.167  -0.040  0.00  0.00    -0.072 S 
ENDBRANCH   1  15
BRANCH   4  17
ATOM     17  C   UNL     1       5.731  -7.306  -0.088  0.00  0.00    -0.003 C 
BRANCH  17  18
ATOM     18  C   UNL     1       6.675  -7.496   1.071  0.00  0.00    +0.094 A 
ATOM     19  N   UNL     1       7.279  -8.699   1.249  0.00  0.00    -0.312 N 
ATOM     20  H   UNL     1       7.095  -9.419   0.626  0.00  0.00    +0.170 HD
ATOM     21  C   UNL     1       8.130  -8.911   2.271  0.00  0.00    +0.260 A 
ATOM     22  O   UNL     1       8.665  -9.996   2.418  0.00  0.00    -0.267 OA
ATOM     23  C   UNL     1       8.393  -7.838   3.183  0.00  0.00    +0.075 A 
ATOM     24  C   UNL     1       9.277  -7.843   4.358  0.00  0.00    -0.023 A 
ATOM     25  C   UNL     1       9.357  -6.702   5.063  0.00  0.00    -0.004 A 
ATOM     26  S   UNL     1       8.281  -5.565   4.219  0.00  0.00    -0.073 S 
ATOM     27  C   UNL     1       7.725  -6.635   2.920  0.00  0.00    +0.116 A 
ATOM     28  N   UNL     1       6.901  -6.498   1.884  0.00  0.00    -0.229 NA
ATOM     29  C   UNL     1      10.284  -6.826   6.242  0.00  0.00    +0.043 C 
ATOM     30  C   UNL     1      10.457  -8.347   6.441  0.00  0.00    +0.010 C 
ATOM     31  C   UNL     1      10.187  -8.882   5.021  0.00  0.00    +0.037 C 
ENDBRANCH  17  18
ENDBRANCH   4  17
TORSDOF 3
