REMARK  Name = ZINC67501614
REMARK  6 active torsions:
REMARK  status: ('A' for Active; 'I' for Inactive)
REMARK    1  A    between atoms: C_3  and  O_20
REMARK    2  A    between atoms: C_6  and  C_7
REMARK    3  A    between atoms: C_7  and  N_8
REMARK    4  A    between atoms: N_8  and  C_9
REMARK    5  A    between atoms: O_20  and  C_21
REMARK    6  A    between atoms: C_21  and  C_22
REMARK                            x       y       z     vdW  Elec       q    Type
REMARK                         _______ _______ _______ _____ _____    ______ ____
ROOT
ATOM      1  C   UNL     1      -1.356  -0.686   0.011  0.00  0.00    -0.046 C 
ENDROOT
BRANCH   1   7
ATOM      2  C   UNL     1      -0.076   1.463  -0.069  0.00  0.00    +0.005 A 
ATOM      3  C   UNL     1       1.111   2.170  -0.068  0.00  0.00    +0.046 A 
ATOM      4  C   UNL     1       2.320   1.494   0.015  0.00  0.00    +0.121 A 
ATOM      5  C   UNL     1       2.333   0.109   0.096  0.00  0.00    +0.046 A 
ATOM      6  C   UNL     1       1.144  -0.593   0.094  0.00  0.00    +0.005 A 
ATOM      7  C   UNL     1      -0.060   0.083   0.012  0.00  0.00    -0.064 A 
BRANCH   4   8
ATOM      8  O   UNL     1       3.488   2.187   0.015  0.00  0.00    -0.483 OA
BRANCH   8   9
ATOM      9  C   UNL     1       4.694   1.426   0.103  0.00  0.00    +0.324 C 
BRANCH   9  10
ATOM     10  C   UNL     1       5.879   2.357   0.091  0.00  0.00    +0.248 C 
ATOM     11  O   UNL     1       5.707   3.556   0.014  0.00  0.00    -0.272 OA
ATOM     12  N   UNL     1       7.129   1.859   0.164  0.00  0.00    -0.327 N 
ATOM     13  H   UNL     1       7.266   0.901   0.226  0.00  0.00    +0.145 HD
ATOM     14  H   UNL     1       7.891   2.459   0.156  0.00  0.00    +0.145 HD
ENDBRANCH   9  10
ENDBRANCH   8   9
ENDBRANCH   4   8
ENDBRANCH   1   7
BRANCH   1  15
ATOM     15  N   UNL     1      -1.728  -1.017  -1.371  0.00  0.00    +0.386 N 
ATOM     16  H   UNL     1      -1.922  -0.167  -1.880  0.00  0.00    -0.085 HD
ATOM     17  H   UNL     1      -0.967  -1.508  -1.816  0.00  0.00    -0.085 HD
BRANCH  15  18
ATOM     18  C   UNL     1      -2.925  -1.869  -1.366  0.00  0.00    -0.040 C 
ATOM     19  C   UNL     1      -4.158  -1.057  -0.914  0.00  0.00    -0.007 C 
ATOM     20  C   UNL     1      -5.290  -1.674  -1.762  0.00  0.00    +0.034 C 
ATOM     21  C   UNL     1      -4.607  -2.218  -2.999  0.00  0.00    -0.044 A 
ATOM     22  C   UNL     1      -3.246  -2.332  -2.771  0.00  0.00    -0.058 A 
ATOM     23  C   UNL     1      -2.415  -2.813  -3.768  0.00  0.00    +0.004 A 
ATOM     24  C   UNL     1      -2.939  -3.182  -4.992  0.00  0.00    +0.020 A 
ATOM     25  C   UNL     1      -4.299  -3.071  -5.222  0.00  0.00    +0.041 A 
ATOM     26  C   UNL     1      -5.133  -2.586  -4.226  0.00  0.00    +0.023 A 
ATOM     27 CL   UNL     1      -4.961  -3.533  -6.759  0.00  0.00    -0.084 Cl
ENDBRANCH  15  18
ENDBRANCH   1  15
TORSDOF 6
