REMARK  Name = ZINC46747405
REMARK  3 active torsions:
REMARK  status: ('A' for Active; 'I' for Inactive)
REMARK    1  A    between atoms: N_12  and  C_13
REMARK    2  A    between atoms: C_13  and  C_14
REMARK    3  A    between atoms: C_19  and  C_22
REMARK                            x       y       z     vdW  Elec       q    Type
REMARK                         _______ _______ _______ _____ _____    ______ ____
ROOT
ATOM      1  C   UNL     1       3.629   3.541   0.325  0.00  0.00    +0.210 C 
ENDROOT
BRANCH   1  13
ATOM      2  C   UNL     1      -0.017   1.379   0.010  0.00  0.00    +0.017 A 
ATOM      3  C   UNL     1       1.169   2.091   0.002  0.00  0.00    +0.028 A 
ATOM      4  C   UNL     1       2.378   1.415  -0.013  0.00  0.00    +0.079 A 
ATOM      5  C   UNL     1       2.397   0.021  -0.022  0.00  0.00    +0.144 A 
ATOM      6  C   UNL     1       1.207  -0.685  -0.014  0.00  0.00    +0.062 A 
ATOM      7  C   UNL     1       0.002  -0.004   0.002  0.00  0.00    +0.021 A 
ATOM      8 BR   UNL     1      -1.625  -0.968   0.013  0.00  0.00    -0.050 Br
ATOM      9  O   UNL     1       3.590  -0.631  -0.039  0.00  0.00    -0.481 OA
ATOM     10  C   UNL     1       4.661   0.007  -0.740  0.00  0.00    +0.325 C 
ATOM     11  C   UNL     1       4.726   1.462  -0.350  0.00  0.00    +0.258 C 
ATOM     12  O   UNL     1       5.791   2.041  -0.334  0.00  0.00    -0.271 OA
ATOM     13  N   UNL     1       3.592   2.118  -0.020  0.00  0.00    -0.257 N 
ENDBRANCH   1  13
BRANCH   1  14
ATOM     14  C   UNL     1       3.845   3.693   1.808  0.00  0.00    +0.237 C 
ATOM     15  O   UNL     1       3.956   2.709   2.509  0.00  0.00    -0.274 OA
ATOM     16  N   UNL     1       3.914   4.922   2.357  0.00  0.00    -0.252 N 
ATOM     17  C   UNL     1       4.114   5.062   3.734  0.00  0.00    +0.243 A 
ATOM     18  N   UNL     1       4.200   6.222   4.393  0.00  0.00    -0.188 NA
ATOM     19  C   UNL     1       4.387   5.994   5.668  0.00  0.00    +0.258 A 
ATOM     20  N   UNL     1       4.426   4.663   5.855  0.00  0.00    -0.122 NA
ATOM     21  N   UNL     1       4.242   4.078   4.592  0.00  0.00    -0.111 NA
ATOM     22  H   UNL     1       3.825   5.709   1.797  0.00  0.00    +0.158 HD
BRANCH  19  23
ATOM     23  C   UNL     1       4.535   7.042   6.741  0.00  0.00    +0.454 C 
ATOM     24  F   UNL     1       3.356   7.110   7.491  0.00  0.00    -0.163 F 
ATOM     25  F   UNL     1       5.602   6.703   7.580  0.00  0.00    -0.163 F 
ATOM     26  F   UNL     1       4.783   8.284   6.148  0.00  0.00    -0.163 F 
ENDBRANCH  19  23
ENDBRANCH   1  14
TORSDOF 3
