REMARK  Name = ZINC08253455
REMARK  10 active torsions:
REMARK  status: ('A' for Active; 'I' for Inactive)
REMARK    1  A    between atoms: C_1  and  C_2
REMARK    2  A    between atoms: C_2  and  O_3
REMARK    3  A    between atoms: O_3  and  C_4
REMARK    4  A    between atoms: C_5  and  C_12
REMARK    5  A    between atoms: C_9  and  O_10
REMARK    6  A    between atoms: O_10  and  C_11
REMARK    7  A    between atoms: C_12  and  N_57
REMARK    8  A    between atoms: C_13  and  N_57
REMARK    9  A    between atoms: C_17  and  C_24
REMARK   10  A    between atoms: C_20  and  C_23
REMARK                            x       y       z     vdW  Elec       q    Type
REMARK                         _______ _______ _______ _____ _____    ______ ____
ROOT
ATOM      1  N   UNL     1      -2.003   0.795   6.356  0.00  0.00    +0.386 N 
ATOM      2  H   UNL     1      -1.681  -0.175   6.447  0.00  0.00    -0.085 HD
ATOM      3  H   UNL     1      -2.678   0.862   5.585  0.00  0.00    -0.085 HD
ENDROOT
BRANCH   1   4
ATOM      4  C   UNL     1      -2.657   1.209   7.612  0.00  0.00    -0.067 C 
ATOM      5  C   UNL     1      -3.146   2.653   7.486  0.00  0.00    -0.009 C 
ATOM      6  C   UNL     1      -3.830   3.076   8.787  0.00  0.00    -0.011 C 
ATOM      7  C   UNL     1      -2.833   2.975   9.944  0.00  0.00    +0.010 C 
ATOM      8  C   UNL     1      -2.344   1.531  10.070  0.00  0.00    -0.033 C 
ATOM      9  C   UNL     1      -1.660   1.108   8.769  0.00  0.00    -0.006 C 
ATOM     10  C   UNL     1      -3.536   0.611  10.342  0.00  0.00    +0.013 C 
ATOM     11  C   UNL     1      -4.533   0.712   9.186  0.00  0.00    -0.033 C 
ATOM     12  C   UNL     1      -5.022   2.156   9.059  0.00  0.00    +0.010 C 
ATOM     13  C   UNL     1      -3.849   0.289   7.884  0.00  0.00    -0.006 C 
ATOM     14  C   UNL     1      -5.725  -0.208   9.457  0.00  0.00    +0.011 C 
ATOM     15  C   UNL     1      -1.348   1.429  11.227  0.00  0.00    +0.011 C 
ENDBRANCH   1   4
BRANCH   1  16
ATOM     16  C   UNL     1      -0.848   1.667   6.069  0.00  0.00    -0.042 C 
BRANCH  16  18
ATOM     17  C   UNL     1      -0.745   1.600   3.566  0.00  0.00    +0.163 A 
ATOM     18  C   UNL     1      -0.201   1.221   4.783  0.00  0.00    -0.019 A 
ATOM     19  C   UNL     1       0.938   0.438   4.817  0.00  0.00    +0.005 A 
ATOM     20  C   UNL     1       1.534   0.028   3.639  0.00  0.00    +0.004 A 
ATOM     21  C   UNL     1       0.993   0.398   2.422  0.00  0.00    +0.049 A 
ATOM     22  C   UNL     1      -0.148   1.182   2.380  0.00  0.00    +0.162 A 
BRANCH  22  23
ATOM     23  O   UNL     1      -0.682   1.547   1.184  0.00  0.00    -0.491 OA
ATOM     24  C   UNL     1      -0.013   1.086   0.008  0.00  0.00    +0.277 C 
ENDBRANCH  22  23
BRANCH  17  25
ATOM     25  O   UNL     1      -1.862   2.374   3.531  0.00  0.00    -0.488 OA
BRANCH  25  27
ATOM     26  C   UNL     1      -4.253   2.726   3.478  0.00  0.00    +0.048 C 
ATOM     27  C   UNL     1      -3.121   1.697   3.518  0.00  0.00    +0.226 C 
ENDBRANCH  25  27
ENDBRANCH  17  25
ENDBRANCH  16  18
ENDBRANCH   1  16
TORSDOF 6
