REMARK  Name = ZINC16599079
REMARK  12 active torsions:
REMARK  status: ('A' for Active; 'I' for Inactive)
REMARK    1  A    between atoms: C_1  and  N_2
REMARK    2  A    between atoms: C_6  and  S_27
REMARK    3  A    between atoms: C_10  and  C_11
REMARK    4  A    between atoms: C_11  and  C_12
REMARK    5  A    between atoms: C_12  and  C_13
REMARK    6  A    between atoms: N_15  and  C_16
REMARK    7  A    between atoms: C_16  and  C_17
REMARK    8  A    between atoms: C_17  and  C_19
REMARK    9  A    between atoms: C_17  and  N_70
REMARK   10  A    between atoms: C_25  and  N_70
REMARK   11  A    between atoms: C_26  and  N_70
REMARK   12  A    between atoms: S_27  and  N_30
REMARK                            x       y       z     vdW  Elec       q    Type
REMARK                         _______ _______ _______ _____ _____    ______ ____
ROOT
ATOM      1  C   UNL     1       4.572   7.738   5.906  0.00  0.00    +0.150 C 
ATOM      2  N   UNL     1       3.276   8.394   6.100  0.00  0.00    -0.331 N 
ATOM      3  C   UNL     1       3.070   9.675   6.572  0.00  0.00    +0.069 A 
ATOM      4  C   UNL     1       3.910  10.698   6.992  0.00  0.00    +0.030 A 
ATOM      5  C   UNL     1       3.370  11.890   7.425  0.00  0.00    +0.030 A 
ATOM      6  C   UNL     1       1.995  12.074   7.444  0.00  0.00    +0.108 A 
ATOM      7  C   UNL     1       1.153  11.079   7.035  0.00  0.00    +0.058 A 
ATOM      8  C   UNL     1       1.678   9.861   6.592  0.00  0.00    +0.091 A 
ATOM      9  N   UNL     1       1.118   8.712   6.135  0.00  0.00    -0.232 NA
ATOM     10  C   UNL     1       2.054   7.856   5.844  0.00  0.00    +0.111 A 
ENDROOT
BRANCH   6  11
ATOM     11  S   UNL     1       1.328  13.606   8.002  0.00  0.00    +0.061 S 
ATOM     12  O   UNL     1       0.003  13.336   8.441  0.00  0.00    -0.153 OA
ATOM     13  O   UNL     1       2.307  14.191   8.850  0.00  0.00    -0.153 OA
BRANCH  11  14
ATOM     14  N   UNL     1       1.196  14.593   6.679  0.00  0.00    -0.177 NA
ATOM     15  C   UNL     1       2.303  15.478   6.292  0.00  0.00    +0.109 C 
ATOM     16  C   UNL     1       2.648  15.213   4.819  0.00  0.00    +0.017 C 
ATOM     17  C   UNL     1       1.386  15.378   3.969  0.00  0.00    +0.003 C 
ATOM     18  C   UNL     1       0.336  14.355   4.408  0.00  0.00    +0.017 C 
ATOM     19  C   UNL     1      -0.033  14.606   5.874  0.00  0.00    +0.109 C 
ENDBRANCH  11  14
ENDBRANCH   6  11
BRANCH  10  20
ATOM     20  C   UNL     1       1.817   6.467   5.308  0.00  0.00    +0.083 C 
BRANCH  20  21
ATOM     21  C   UNL     1       1.787   6.509   3.779  0.00  0.00    +0.103 C 
BRANCH  21  22
ATOM     22  C   UNL     1       1.550   5.120   3.243  0.00  0.00    +0.213 C 
ATOM     23  O   UNL     1       1.419   4.189   4.009  0.00  0.00    -0.276 OA
ATOM     24  N   UNL     1       1.485   4.914   1.913  0.00  0.00    -0.317 N 
ATOM     25  H   UNL     1       1.590   5.658   1.300  0.00  0.00    +0.149 HD
BRANCH  24  26
ATOM     26  C   UNL     1       1.255   3.564   1.392  0.00  0.00    +0.093 C 
BRANCH  26  27
ATOM     27  C   UNL     1       1.158   3.616  -0.134  0.00  0.00    -0.021 C 
BRANCH  27  28
ATOM     28  C   UNL     1       0.950   2.224  -0.672  0.00  0.00    -0.059 A 
ATOM     29  C   UNL     1      -0.265   1.873  -1.231  0.00  0.00    +0.002 A 
ATOM     30  C   UNL     1      -0.456   0.596  -1.725  0.00  0.00    +0.000 A 
ATOM     31  C   UNL     1       0.568  -0.330  -1.660  0.00  0.00    +0.000 A 
ATOM     32  C   UNL     1       1.782   0.020  -1.101  0.00  0.00    +0.000 A 
ATOM     33  C   UNL     1       1.974   1.297  -0.607  0.00  0.00    +0.002 A 
ENDBRANCH  27  28
BRANCH  27  36
ATOM     34  C   UNL     1       3.541   3.893   0.199  0.00  0.00    -0.096 C 
ATOM     35  C   UNL     1       2.650   3.665  -2.041  0.00  0.00    -0.096 C 
ATOM     36  N   UNL     1       2.398   4.201  -0.686  0.00  0.00    +0.382 N 
ATOM     37  H   UNL     1       2.288   5.220  -0.747  0.00  0.00    -0.082 HD
ENDBRANCH  27  36
ENDBRANCH  26  27
ENDBRANCH  24  26
ENDBRANCH  21  22
ENDBRANCH  20  21
ENDBRANCH  10  20
TORSDOF 9
