REMARK  Name = ZINC00888045
REMARK  10 active torsions:
REMARK  status: ('A' for Active; 'I' for Inactive)
REMARK    1  A    between atoms: C_3  and  N_8
REMARK    2  A    between atoms: N_8  and  C_9
REMARK    3  A    between atoms: C_9  and  C_11
REMARK    4  A    between atoms: C_9  and  C_18
REMARK    5  A    between atoms: C_14  and  O_17
REMARK    6  A    between atoms: N_20  and  C_21
REMARK    7  A    between atoms: C_21  and  C_22
REMARK    8  A    between atoms: C_29  and  C_31
REMARK    9  A    between atoms: C_31  and  N_32
REMARK   10  A    between atoms: C_34  and  C_37
REMARK                            x       y       z     vdW  Elec       q    Type
REMARK                         _______ _______ _______ _____ _____    ______ ____
ROOT
ATOM      1  N   UNL     1       3.827   2.525   0.293  0.00  0.00    -0.254 N 
ATOM      2  C   UNL     1       3.690   3.449  -0.677  0.00  0.00    +0.244 C 
ATOM      3  O   UNL     1       4.373   3.384  -1.678  0.00  0.00    -0.273 OA
ENDROOT
BRANCH   1   6
ATOM      4  C   UNL     1       2.637   2.932   3.749  0.00  0.00    +0.005 A 
ATOM      5  C   UNL     1       3.475   2.909   2.651  0.00  0.00    +0.024 A 
ATOM      6  C   UNL     1       2.979   2.547   1.406  0.00  0.00    +0.040 A 
ATOM      7  C   UNL     1       1.640   2.208   1.267  0.00  0.00    +0.062 A 
ATOM      8  C   UNL     1       0.804   2.232   2.369  0.00  0.00    +0.125 A 
ATOM      9  C   UNL     1       1.304   2.594   3.609  0.00  0.00    +0.038 A 
ATOM     10  F   UNL     1      -0.499   1.903   2.235  0.00  0.00    -0.205 F 
ENDBRANCH   1   6
BRANCH   1  11
ATOM     11  C   UNL     1       4.864   1.496   0.183  0.00  0.00    +0.197 C 
BRANCH  11  12
ATOM     12  C   UNL     1       4.919   0.699   1.462  0.00  0.00    -0.018 A 
ATOM     13  C   UNL     1       3.783   0.063   1.928  0.00  0.00    +0.009 A 
ATOM     14  C   UNL     1       3.830  -0.667   3.099  0.00  0.00    +0.046 A 
ATOM     15  C   UNL     1       5.019  -0.763   3.808  0.00  0.00    +0.117 A 
ATOM     16  C   UNL     1       6.158  -0.124   3.338  0.00  0.00    +0.046 A 
ATOM     17  C   UNL     1       6.106   0.601   2.163  0.00  0.00    +0.009 A 
BRANCH  15  18
ATOM     18  O   UNL     1       5.068  -1.480   4.961  0.00  0.00    -0.507 OA
ATOM     19  H   UNL     1       5.298  -2.411   4.836  0.00  0.00    +0.292 HD
ENDBRANCH  15  18
ENDBRANCH  11  12
BRANCH  11  20
ATOM     20  C   UNL     1       4.541   0.578  -0.967  0.00  0.00    +0.239 C 
ATOM     21  O   UNL     1       3.543   0.764  -1.630  0.00  0.00    -0.273 OA
ATOM     22  N   UNL     1       5.362  -0.451  -1.259  0.00  0.00    -0.309 N 
ATOM     23  H   UNL     1       6.160  -0.600  -0.729  0.00  0.00    +0.149 HD
BRANCH  22  24
ATOM     24  C   UNL     1       5.048  -1.343  -2.378  0.00  0.00    +0.139 C 
BRANCH  24  25
ATOM     25  C   UNL     1       6.114  -2.402  -2.491  0.00  0.00    -0.030 A 
ATOM     26  C   UNL     1       7.229  -2.178  -3.277  0.00  0.00    +0.008 A 
ATOM     27  C   UNL     1       8.208  -3.147  -3.381  0.00  0.00    +0.038 A 
ATOM     28  C   UNL     1       8.072  -4.344  -2.697  0.00  0.00    +0.123 A 
ATOM     29  C   UNL     1       6.955  -4.567  -1.910  0.00  0.00    +0.038 A 
ATOM     30  C   UNL     1       5.980  -3.594  -1.804  0.00  0.00    +0.008 A 
ATOM     31  F   UNL     1       9.029  -5.293  -2.799  0.00  0.00    -0.205 F 
ENDBRANCH  24  25
ENDBRANCH  22  24
ENDBRANCH  11  20
ENDBRANCH   1  11
BRANCH   2  32
ATOM     32  C   UNL     1       2.688   4.564  -0.520  0.00  0.00    +0.264 C 
BRANCH  32  33
ATOM     33  N   UNL     1       2.673   5.383  -1.735  0.00  0.00    -0.154 N 
ATOM     34  N   UNL     1       3.419   6.412  -1.949  0.00  0.00    -0.129 NA
ATOM     35  C   UNL     1       3.122   6.883  -3.146  0.00  0.00    +0.211 A 
ATOM     36  N   UNL     1       2.161   6.089  -3.643  0.00  0.00    -0.107 NA
ATOM     37  N   UNL     1       1.918   5.183  -2.758  0.00  0.00    -0.045 NA
BRANCH  35  38
ATOM     38  C   UNL     1       3.728   8.058  -3.809  0.00  0.00    +0.060 A 
ATOM     39  C   UNL     1       3.454   8.591  -5.039  0.00  0.00    +0.019 A 
ATOM     40  C   UNL     1       4.155   9.703  -5.451  0.00  0.00    +0.008 A 
ATOM     41  C   UNL     1       5.093  10.236  -4.626  0.00  0.00    +0.046 A 
ATOM     42  S   UNL     1       5.002   9.155  -3.208  0.00  0.00    -0.093 S 
ENDBRANCH  35  38
ENDBRANCH  32  33
ENDBRANCH   2  32
TORSDOF 10
