REMARK  Name = ZINC40388661
REMARK  6 active torsions:
REMARK  status: ('A' for Active; 'I' for Inactive)
REMARK    1  A    between atoms: C_1  and  C_2
REMARK    2  A    between atoms: C_4  and  C_35
REMARK    3  A    between atoms: C_6  and  N_8
REMARK    4  A    between atoms: C_9  and  C_11
REMARK    5  A    between atoms: C_27  and  C_34
REMARK    6  A    between atoms: C_30  and  C_33
REMARK                            x       y       z     vdW  Elec       q    Type
REMARK                         _______ _______ _______ _____ _____    ______ ____
ROOT
ATOM      1  C   UNL     1       0.164  -3.057   4.763  0.00  0.00    +0.122 C 
ATOM      2  C   UNL     1       1.474  -3.848   4.762  0.00  0.00    +0.114 C 
ATOM      3  C   UNL     1       1.699  -4.456   6.121  0.00  0.00    +0.219 C 
ATOM      4  O   UNL     1       2.192  -5.560   6.211  0.00  0.00    -0.275 OA
ATOM      5  N   UNL     1       1.361  -3.787   7.237  0.00  0.00    -0.270 N 
ATOM      6  C   UNL     1       0.702  -2.572   7.164  0.00  0.00    +0.138 A 
ATOM      7  C   UNL     1       0.113  -2.170   5.978  0.00  0.00    +0.069 A 
ATOM      8  C   UNL     1      -0.529  -0.929   5.923  0.00  0.00    +0.258 A 
ATOM      9  O   UNL     1      -1.047  -0.542   4.887  0.00  0.00    -0.267 OA
ATOM     10  N   UNL     1      -0.564  -0.169   7.037  0.00  0.00    -0.295 N 
ATOM     11  H   UNL     1      -0.991   0.702   7.017  0.00  0.00    +0.172 HD
ATOM     12  C   UNL     1      -0.001  -0.623   8.190  0.00  0.00    +0.200 A 
ATOM     13  N   UNL     1       0.606  -1.790   8.245  0.00  0.00    -0.200 NA
ATOM     14  N   UNL     1      -0.067   0.151   9.318  0.00  0.00    -0.301 N 
ATOM     15  C   UNL     1      -0.638   1.504   9.265  0.00  0.00    +0.111 C 
ATOM     16  C   UNL     1      -1.737   1.617  10.326  0.00  0.00    +0.004 C 
ATOM     17  C   UNL     1      -1.165   1.230  11.691  0.00  0.00    +0.009 C 
ATOM     18  C   UNL     1      -0.681  -0.222  11.650  0.00  0.00    +0.004 C 
ATOM     19  C   UNL     1       0.424  -0.358  10.605  0.00  0.00    +0.111 C 
ATOM     20  C   UNL     1      -0.140  -0.619  13.025  0.00  0.00    +0.009 C 
ATOM     21  C   UNL     1      -2.251   3.058  10.377  0.00  0.00    +0.009 C 
ATOM     22  H   UNL     1       1.581  -4.160   8.104  0.00  0.00    +0.156 HD
ENDROOT
BRANCH   1  24
ATOM     23  N   UNL     1      -0.976  -2.312   2.699  0.00  0.00    -0.285 N 
ATOM     24  C   UNL     1       0.088  -2.210   3.519  0.00  0.00    +0.225 C 
ATOM     25  O   UNL     1       0.985  -1.437   3.256  0.00  0.00    -0.275 OA
ATOM     26  H   UNL     1      -1.727  -2.874   2.945  0.00  0.00    +0.155 HD
BRANCH  23  32
ATOM     27  C   UNL     1      -3.522   0.087  -0.756  0.00  0.00    +0.044 C 
ATOM     28  C   UNL     1      -2.218  -0.432  -0.207  0.00  0.00    -0.048 A 
ATOM     29  C   UNL     1      -1.041  -0.212  -0.899  0.00  0.00    +0.006 A 
ATOM     30  C   UNL     1       0.157  -0.687  -0.399  0.00  0.00    -0.048 A 
ATOM     31  C   UNL     1       0.182  -1.383   0.793  0.00  0.00    +0.026 A 
ATOM     32  C   UNL     1      -0.998  -1.606   1.490  0.00  0.00    +0.034 A 
ATOM     33  C   UNL     1      -2.199  -1.123   0.988  0.00  0.00    +0.026 A 
ATOM     34  C   UNL     1       1.438  -0.445  -1.157  0.00  0.00    +0.044 C 
ENDBRANCH  23  32
ENDBRANCH   1  24
TORSDOF 2
