REMARK  Name = ZINC64084290
REMARK  6 active torsions:
REMARK  status: ('A' for Active; 'I' for Inactive)
REMARK    1  A    between atoms: C_7  and  C_10
REMARK    2  A    between atoms: C_10  and  C_11
REMARK    3  A    between atoms: C_11  and  N_12
REMARK    4  A    between atoms: C_13  and  C_15
REMARK    5  A    between atoms: C_15  and  C_16
REMARK    6  A    between atoms: N_23  and  C_24
REMARK                            x       y       z     vdW  Elec       q    Type
REMARK                         _______ _______ _______ _____ _____    ______ ____
ROOT
ATOM      1  N   UNL     1      -0.818  -5.367  -1.262  0.00  0.00    -0.315 N 
ATOM      2  C   UNL     1      -1.144  -5.698  -2.528  0.00  0.00    +0.212 C 
ATOM      3  O   UNL     1      -0.586  -5.157  -3.459  0.00  0.00    -0.276 OA
ATOM      4  H   UNL     1      -1.265  -5.800  -0.518  0.00  0.00    +0.149 HD
ENDROOT
BRANCH   1   5
ATOM      5  C   UNL     1       0.211  -4.355  -1.012  0.00  0.00    +0.108 C 
BRANCH   5   6
ATOM      6  C   UNL     1       0.387  -4.170   0.497  0.00  0.00    +0.052 C 
BRANCH   6  13
ATOM      7  C   UNL     1       0.167   0.343   1.296  0.00  0.00    +0.001 A 
ATOM      8  C   UNL     1       1.419   0.942   1.486  0.00  0.00    +0.002 A 
ATOM      9  C   UNL     1       2.575   0.246   1.438  0.00  0.00    +0.026 A 
ATOM     10  C   UNL     1       2.562  -1.153   1.185  0.00  0.00    +0.043 A 
ATOM     11  N   UNL     1       3.529  -2.033   1.089  0.00  0.00    -0.380 N 
ATOM     12  C   UNL     1       2.941  -3.348   0.813  0.00  0.00    +0.144 C 
ATOM     13  C   UNL     1       1.445  -3.129   0.755  0.00  0.00    -0.040 C 
ATOM     14  C   UNL     1       1.251  -1.810   0.980  0.00  0.00    -0.001 A 
ATOM     15  C   UNL     1       0.041  -0.981   1.050  0.00  0.00    +0.010 A 
ATOM     16  H   UNL     1       4.476  -1.845   1.185  0.00  0.00    +0.160 HD
ENDBRANCH   6  13
ENDBRANCH   5   6
ENDBRANCH   1   5
BRANCH   2  17
ATOM     17  C   UNL     1      -2.203  -6.739  -2.786  0.00  0.00    +0.089 C 
BRANCH  17  18
ATOM     18  C   UNL     1      -2.228  -7.082  -4.277  0.00  0.00    +0.028 C 
ATOM     19  C   UNL     1      -2.629  -5.864  -5.061  0.00  0.00    +0.200 C 
ATOM     20  O   UNL     1      -3.525  -5.166  -4.635  0.00  0.00    -0.278 OA
ATOM     21  N   UNL     1      -2.037  -5.519  -6.210  0.00  0.00    -0.318 N 
ATOM     22  C   UNL     1      -0.932  -6.280  -6.787  0.00  0.00    +0.085 C 
ATOM     23  C   UNL     1      -0.878  -7.675  -6.159  0.00  0.00    -0.058 C 
ATOM     24  N   UNL     1      -0.896  -7.533  -4.695  0.00  0.00    +0.390 N 
ATOM     25  H   UNL     1      -2.354  -4.731  -6.678  0.00  0.00    +0.149 HD
ATOM     26  H   UNL     1      -0.204  -6.855  -4.411  0.00  0.00    -0.080 HD
BRANCH  24  27
ATOM     27  C   UNL     1      -0.599  -8.831  -4.075  0.00  0.00    -0.067 C 
ATOM     28  C   UNL     1      -0.385  -8.655  -2.558  0.00  0.00    -0.015 C 
ATOM     29  C   UNL     1       0.750  -9.653  -2.216  0.00  0.00    -0.002 C 
ATOM     30  C   UNL     1       1.681  -9.547  -3.449  0.00  0.00    -0.002 C 
ATOM     31  C   UNL     1       0.715  -9.398  -4.642  0.00  0.00    -0.015 C 
ENDBRANCH  24  27
ENDBRANCH  17  18
ENDBRANCH   2  17
TORSDOF 6
