REMARK  Name = ZINC63805480
REMARK  5 active torsions:
REMARK  status: ('A' for Active; 'I' for Inactive)
REMARK    1  A    between atoms: C_1  and  O_2
REMARK    2  A    between atoms: O_2  and  C_3
REMARK    3  A    between atoms: C_6  and  N_9
REMARK    4  A    between atoms: C_10  and  S_33
REMARK    5  A    between atoms: C_14  and  C_17
REMARK                            x       y       z     vdW  Elec       q    Type
REMARK                         _______ _______ _______ _____ _____    ______ ____
ROOT
ATOM      1  N   UNL     1       2.567  -2.309  -4.548  0.00  0.00    -0.243 N 
ATOM      2  C   UNL     1       3.042  -1.631  -5.743  0.00  0.00    +0.225 C 
ATOM      3  N   UNL     1       3.147  -2.533  -6.880  0.00  0.00    -0.288 N 
ATOM      4  C   UNL     1       3.231  -3.861  -6.759  0.00  0.00    +0.229 C 
ATOM      5  C   UNL     1       3.207  -4.546  -5.423  0.00  0.00    +0.180 C 
ATOM      6  C   UNL     1       2.643  -3.632  -4.374  0.00  0.00    +0.235 C 
ATOM      7  O   UNL     1       2.239  -4.112  -3.336  0.00  0.00    -0.274 OA
ATOM      8  O   UNL     1       3.329  -4.536  -7.762  0.00  0.00    -0.275 OA
ATOM      9  H   UNL     1       3.156  -2.150  -7.772  0.00  0.00    +0.151 HD
ENDROOT
BRANCH   5  10
ATOM     10  C   UNL     1       4.633  -4.939  -5.031  0.00  0.00    +0.101 C 
ATOM     11  C   UNL     1       4.593  -5.924  -3.860  0.00  0.00    +0.124 C 
ATOM     12  C   UNL     1       3.946  -7.196  -4.396  0.00  0.00    -0.036 C 
ATOM     13  C   UNL     1       2.932  -7.471  -3.588  0.00  0.00    -0.001 A 
ATOM     14  C   UNL     1       1.996  -8.606  -3.538  0.00  0.00    +0.010 A 
ATOM     15  C   UNL     1       1.048  -8.559  -2.565  0.00  0.00    +0.001 A 
ATOM     16  C   UNL     1       0.939  -7.510  -1.647  0.00  0.00    +0.002 A 
ATOM     17  C   UNL     1       1.760  -6.430  -1.615  0.00  0.00    +0.026 A 
ATOM     18  C   UNL     1       2.801  -6.368  -2.587  0.00  0.00    +0.043 A 
ATOM     19  N   UNL     1       3.742  -5.461  -2.765  0.00  0.00    -0.376 N 
ATOM     20  C   UNL     1       4.419  -7.847  -5.674  0.00  0.00    +0.048 C 
ATOM     21  C   UNL     1       4.527  -6.718  -6.716  0.00  0.00    +0.085 C 
ATOM     22  N   UNL     1       5.296  -5.597  -6.168  0.00  0.00    -0.310 NA
ATOM     23  H   UNL     1       5.527  -4.929  -6.888  0.00  0.00    +0.122 HD
ATOM     24  H   UNL     1       3.855  -4.635  -2.268  0.00  0.00    +0.160 HD
ENDBRANCH   5  10
BRANCH   1  28
ATOM     25  C   UNL     1       0.895  -0.007  -1.500  0.00  0.00    +0.120 A 
ATOM     26  C   UNL     1       0.099  -0.883  -2.223  0.00  0.00    +0.047 A 
ATOM     27  C   UNL     1       0.652  -1.645  -3.232  0.00  0.00    +0.027 A 
ATOM     28  C   UNL     1       2.005  -1.535  -3.524  0.00  0.00    +0.039 A 
ATOM     29  C   UNL     1       2.801  -0.658  -2.800  0.00  0.00    +0.027 A 
ATOM     30  C   UNL     1       2.246   0.108  -1.794  0.00  0.00    +0.047 A 
BRANCH  25  32
ATOM     31  C   UNL     1      -1.047   0.575  -0.257  0.00  0.00    +0.277 C 
ATOM     32  O   UNL     1       0.350   0.744  -0.505  0.00  0.00    -0.495 OA
ENDBRANCH  25  32
ENDBRANCH   1  28
BRANCH   2  33
ATOM     33  S   UNL     1       1.890  -0.293  -6.160  0.00  0.00    -0.136 S 
ATOM     34  H   UNL     1       2.419   0.259  -7.266  0.00  0.00    +0.105 HD
ENDBRANCH   2  33
TORSDOF 4
