REMARK  Name = ZINC39530454
REMARK  8 active torsions:
REMARK  status: ('A' for Active; 'I' for Inactive)
REMARK    1  A    between atoms: C_1  and  S_2
REMARK    2  A    between atoms: S_2  and  C_3
REMARK    3  A    between atoms: C_6  and  N_19
REMARK    4  A    between atoms: C_7  and  S_9
REMARK    5  A    between atoms: S_9  and  O_12
REMARK    6  A    between atoms: O_12  and  C_13
REMARK    7  A    between atoms: C_23  and  C_26
REMARK    8  A    between atoms: C_31  and  O_32
REMARK                            x       y       z     vdW  Elec       q    Type
REMARK                         _______ _______ _______ _____ _____    ______ ____
ROOT
ATOM      1  C   UNL     1      -1.904  -0.479   0.401  0.00  0.00    +0.010 A 
ATOM      2  C   UNL     1      -2.788   0.334  -0.298  0.00  0.00    +0.016 A 
ATOM      3  C   UNL     1      -4.009  -0.165  -0.706  0.00  0.00    +0.026 A 
ATOM      4  C   UNL     1      -4.355  -1.478  -0.416  0.00  0.00    +0.058 A 
ATOM      5  C   UNL     1      -3.472  -2.291   0.283  0.00  0.00    +0.150 A 
ATOM      6  C   UNL     1      -2.248  -1.794   0.686  0.00  0.00    +0.047 A 
ENDROOT
BRANCH   4   7
ATOM      7  N   UNL     1      -5.594  -1.983  -0.828  0.00  0.00    -0.331 N 
ATOM      8  C   UNL     1      -6.698  -2.153   0.129  0.00  0.00    +0.086 C 
ATOM      9  C   UNL     1      -7.250  -3.575  -0.015  0.00  0.00    -0.063 C 
ATOM     10  N   UNL     1      -7.620  -3.816  -1.415  0.00  0.00    +0.386 N 
ATOM     11  C   UNL     1      -6.423  -3.770  -2.263  0.00  0.00    -0.020 C 
ATOM     12  C   UNL     1      -5.830  -2.353  -2.232  0.00  0.00    +0.094 C 
ATOM     13  H   UNL     1      -8.053  -4.724  -1.496  0.00  0.00    -0.085 HD
ATOM     14  H   UNL     1      -8.272  -3.107  -1.716  0.00  0.00    -0.085 HD
BRANCH  11  15
ATOM     15  C   UNL     1      -6.796  -4.126  -3.679  0.00  0.00    -0.018 A 
ATOM     16  C   UNL     1      -8.087  -3.923  -4.126  0.00  0.00    +0.005 A 
ATOM     17  C   UNL     1      -8.431  -4.250  -5.424  0.00  0.00    +0.000 A 
ATOM     18  C   UNL     1      -7.482  -4.781  -6.280  0.00  0.00    +0.004 A 
ATOM     19  C   UNL     1      -6.190  -4.985  -5.838  0.00  0.00    +0.045 A 
ATOM     20  C   UNL     1      -5.841  -4.653  -4.537  0.00  0.00    +0.118 A 
BRANCH  20  21
ATOM     21  O   UNL     1      -4.569  -4.848  -4.102  0.00  0.00    -0.507 OA
ATOM     22  H   UNL     1      -4.415  -5.721  -3.714  0.00  0.00    +0.292 HD
ENDBRANCH  20  21
ENDBRANCH  11  15
ENDBRANCH   4   7
BRANCH   5  23
ATOM     23  S   UNL     1      -3.911  -3.957   0.651  0.00  0.00    +0.153 S 
ATOM     24  O   UNL     1      -4.387  -4.528  -0.559  0.00  0.00    -0.131 OA
ATOM     25  O   UNL     1      -2.825  -4.512   1.380  0.00  0.00    -0.131 OA
BRANCH  23  26
ATOM     26  O   UNL     1      -5.096  -3.909   1.606  0.00  0.00    -0.342 OA
BRANCH  26  27
ATOM     27  C   UNL     1      -4.762  -3.600   2.886  0.00  0.00    +0.157 A 
ATOM     28  C   UNL     1      -4.421  -4.606   3.778  0.00  0.00    +0.048 A 
ATOM     29  C   UNL     1      -4.082  -4.289   5.079  0.00  0.00    +0.004 A 
ATOM     30  C   UNL     1      -4.083  -2.970   5.493  0.00  0.00    +0.000 A 
ATOM     31  C   UNL     1      -4.423  -1.965   4.606  0.00  0.00    +0.004 A 
ATOM     32  C   UNL     1      -4.757  -2.277   3.302  0.00  0.00    +0.048 A 
ENDBRANCH  26  27
ENDBRANCH  23  26
ENDBRANCH   5  23
BRANCH   1  34
ATOM     33  C   UNL     1      -0.354   1.874   0.335  0.00  0.00    +0.090 C 
ATOM     34  S   UNL     1      -0.345   0.157   0.921  0.00  0.00    -0.129 S 
ENDBRANCH   1  34
TORSDOF 7
