REMARK  Name = ZINC08386627
REMARK  10 active torsions:
REMARK  status: ('A' for Active; 'I' for Inactive)
REMARK    1  A    between atoms: C_1  and  C_2
REMARK    2  A    between atoms: C_2  and  C_3
REMARK    3  A    between atoms: C_3  and  C_24
REMARK    4  A    between atoms: N_4  and  N_5
REMARK    5  A    between atoms: C_6  and  C_8
REMARK    6  A    between atoms: C_8  and  N_9
REMARK    7  A    between atoms: C_10  and  C_12
REMARK    8  A    between atoms: C_12  and  N_13
REMARK    9  A    between atoms: N_13  and  S_14
REMARK   10  A    between atoms: S_14  and  C_17
REMARK                            x       y       z     vdW  Elec       q    Type
REMARK                         _______ _______ _______ _____ _____    ______ ____
ROOT
ATOM      1  N   UNL     1      -6.069   5.528  -3.202  0.00  0.00    -0.306 N 
ATOM      2  C   UNL     1      -6.757   4.491  -2.686  0.00  0.00    +0.229 C 
ATOM      3  O   UNL     1      -7.150   3.602  -3.412  0.00  0.00    -0.274 OA
ATOM      4  H   UNL     1      -5.754   6.239  -2.622  0.00  0.00    +0.149 HD
ENDROOT
BRANCH   1   5
ATOM      5  C   UNL     1      -5.796   5.582  -4.641  0.00  0.00    +0.201 C 
BRANCH   5   7
ATOM      6  N   UNL     1      -4.652   7.096  -6.228  0.00  0.00    -0.206 N 
ATOM      7  C   UNL     1      -5.018   6.833  -4.957  0.00  0.00    +0.249 C 
ATOM      8  O   UNL     1      -4.720   7.604  -4.069  0.00  0.00    -0.272 OA
ATOM      9  H   UNL     1      -4.890   6.480  -6.938  0.00  0.00    +0.177 HD
BRANCH   6  11
ATOM     10  C   UNL     1      -3.589   8.513  -7.730  0.00  0.00    +0.034 C 
ATOM     11  N   UNL     1      -3.929   8.259  -6.522  0.00  0.00    -0.189 NA
ATOM     12  C   UNL     1      -2.926   9.823  -8.067  0.00  0.00    +0.062 C 
BRANCH  10  14
ATOM     13  C   UNL     1      -5.286   7.656  -9.322  0.00  0.00    +0.010 C 
ATOM     14  C   UNL     1      -3.851   7.500  -8.815  0.00  0.00    +0.049 C 
ENDBRANCH  10  14
ENDBRANCH   6  11
ENDBRANCH   5   7
ENDBRANCH   1   5
BRANCH   2  15
ATOM     15  C   UNL     1      -7.038   4.435  -1.206  0.00  0.00    +0.201 C 
BRANCH  15  16
ATOM     16  N   UNL     1      -7.794   3.219  -0.898  0.00  0.00    -0.181 NA
ATOM     17  H   UNL     1      -8.219   2.718  -1.612  0.00  0.00    +0.149 HD
BRANCH  16  18
ATOM     18  S   UNL     1      -7.925   2.699   0.669  0.00  0.00    +0.059 S 
ATOM     19  O   UNL     1      -8.729   1.528   0.643  0.00  0.00    -0.153 OA
ATOM     20  O   UNL     1      -6.611   2.709   1.211  0.00  0.00    -0.153 OA
BRANCH  18  21
ATOM     21  C   UNL     1      -8.841   3.921   1.548  0.00  0.00    +0.105 A 
ATOM     22  C   UNL     1      -8.182   4.964   2.170  0.00  0.00    +0.029 A 
ATOM     23  C   UNL     1      -8.902   5.925   2.855  0.00  0.00    +0.016 A 
ATOM     24  C   UNL     1     -10.280   5.837   2.927  0.00  0.00    +0.013 A 
ATOM     25  C   UNL     1     -10.938   4.790   2.309  0.00  0.00    +0.016 A 
ATOM     26  C   UNL     1     -10.219   3.832   1.620  0.00  0.00    +0.029 A 
ATOM     27  I   UNL     1     -11.370   7.290   3.971  0.00  0.00    -0.044 I 
ENDBRANCH  18  21
ENDBRANCH  16  18
ENDBRANCH  15  16
ENDBRANCH   2  15
TORSDOF 8
