REMARK  Name = ZINC66797433
REMARK  5 active torsions:
REMARK  status: ('A' for Active; 'I' for Inactive)
REMARK    1  A    between atoms: C_7  and  C_11
REMARK    2  A    between atoms: C_14  and  S_19
REMARK    3  A    between atoms: N_15  and  C_16
REMARK    4  A    between atoms: S_19  and  C_20
REMARK    5  A    between atoms: C_25  and  N_26
REMARK                            x       y       z     vdW  Elec       q    Type
REMARK                         _______ _______ _______ _____ _____    ______ ____
ROOT
ATOM      1  C   UNL     1       1.067  -2.787   0.130  0.00  0.00    +0.167 A 
ATOM      2  N   UNL     1      -0.270  -2.619   0.298  0.00  0.00    -0.128 NA
ATOM      3  N   UNL     1      -0.851  -3.766   0.275  0.00  0.00    -0.122 NA
ATOM      4  C   UNL     1       0.075  -4.741   0.091  0.00  0.00    +0.197 A 
ATOM      5  N   UNL     1       1.295  -4.135  -0.008  0.00  0.00    -0.299 N 
ENDROOT
BRANCH   1  12
ATOM      6  C   UNL     1       0.772   1.850   0.104  0.00  0.00    +0.001 A 
ATOM      7  C   UNL     1       2.025   2.438   0.068  0.00  0.00    +0.002 A 
ATOM      8  C   UNL     1       3.169   1.661   0.045  0.00  0.00    +0.026 A 
ATOM      9  C   UNL     1       3.067   0.276   0.057  0.00  0.00    +0.047 A 
ATOM     10  C   UNL     1       1.796  -0.318   0.093  0.00  0.00    +0.010 A 
ATOM     11  C   UNL     1       0.651   0.474   0.117  0.00  0.00    +0.011 A 
ATOM     12  C   UNL     1       2.033  -1.774   0.098  0.00  0.00    +0.044 A 
ATOM     13  C   UNL     1       3.438  -1.935   0.064  0.00  0.00    +0.095 A 
ATOM     14  N   UNL     1       4.016  -0.736   0.041  0.00  0.00    -0.360 N 
ATOM     15  H   UNL     1       4.974  -0.589   0.015  0.00  0.00    +0.165 HD
ENDBRANCH   1  12
BRANCH   5  16
ATOM     16  C   UNL     1       2.588  -4.792  -0.217  0.00  0.00    +0.091 C 
ATOM     17  C   UNL     1       2.574  -6.242  -0.703  0.00  0.00    +0.027 C 
ATOM     18  C   UNL     1       2.970  -5.923   0.740  0.00  0.00    +0.027 C 
ENDBRANCH   5  16
BRANCH   4  19
ATOM     19  S   UNL     1      -0.223  -6.371  -0.002  0.00  0.00    -0.048 S 
BRANCH  19  20
ATOM     20  C   UNL     1      -1.980  -6.487   0.042  0.00  0.00    +0.049 A 
ATOM     21  C   UNL     1      -2.713  -6.720  -1.125  0.00  0.00    +0.037 A 
ATOM     22  C   UNL     1      -4.088  -6.804  -1.046  0.00  0.00    +0.112 A 
ATOM     23  N   UNL     1      -4.710  -6.667   0.110  0.00  0.00    -0.261 NA
ATOM     24  C   UNL     1      -4.055  -6.447   1.234  0.00  0.00    +0.144 A 
ATOM     25  C   UNL     1      -2.678  -6.355   1.244  0.00  0.00    +0.158 A 
BRANCH  25  26
ATOM     26  N   UNL     1      -1.952  -6.114   2.511  0.00  0.00    +0.059 N 
ATOM     27  O   UNL     1      -2.619  -5.990   3.640  0.00  0.00    -0.126 OA
ATOM     28  O   UNL     1      -0.638  -6.022   2.510  0.00  0.00    -0.126 OA
ENDBRANCH  25  26
ENDBRANCH  19  20
ENDBRANCH   4  19
TORSDOF 5
