REMARK  Name = ZINC32716838
REMARK  7 active torsions:
REMARK  status: ('A' for Active; 'I' for Inactive)
REMARK    1  A    between atoms: C_7  and  C_11
REMARK    2  A    between atoms: C_11  and  C_12
REMARK    3  A    between atoms: C_12  and  C_14
REMARK    4  A    between atoms: C_12  and  N_27
REMARK    5  A    between atoms: N_16  and  C_17
REMARK    6  A    between atoms: C_17  and  C_18
REMARK    7  A    between atoms: C_28  and  C_30
REMARK                            x       y       z     vdW  Elec       q    Type
REMARK                         _______ _______ _______ _____ _____    ______ ____
ROOT
ATOM      1  C   UNL     1      -4.990   1.630   0.034  0.00  0.00    +0.163 C 
ENDROOT
BRANCH   1   2
ATOM      2  C   UNL     1      -5.222   0.797  -1.200  0.00  0.00    +0.234 C 
ATOM      3  O   UNL     1      -4.277   0.338  -1.807  0.00  0.00    -0.274 OA
ATOM      4  N   UNL     1      -6.478   0.561  -1.629  0.00  0.00    -0.307 N 
ATOM      5  H   UNL     1      -7.334   0.978  -1.078  0.00  0.00    +0.149 HD
BRANCH   4   6
ATOM      6  C   UNL     1      -6.702  -0.249  -2.828  0.00  0.00    +0.181 C 
BRANCH   6   7
ATOM      7  C   UNL     1      -8.182  -0.360  -3.090  0.00  0.00    +0.155 A 
ATOM      8  N   UNL     1      -8.902   0.453  -3.820  0.00  0.00    -0.132 NA
ATOM      9  N   UNL     1     -10.130   0.070  -3.835  0.00  0.00    -0.129 NA
ATOM     10  C   UNL     1     -10.260  -1.025  -3.104  0.00  0.00    +0.161 A 
ATOM     11  N   UNL     1      -9.013  -1.327  -2.615  0.00  0.00    -0.285 N 
ATOM     12  C   UNL     1      -8.830  -2.414  -1.811  0.00  0.00    +0.094 A 
ATOM     13  C   UNL     1      -9.870  -3.214  -1.494  0.00  0.00    +0.018 A 
ATOM     14  C   UNL     1     -11.157  -2.934  -1.983  0.00  0.00    +0.005 A 
ATOM     15  C   UNL     1     -11.355  -1.850  -2.781  0.00  0.00    +0.048 A 
ENDBRANCH   6   7
ENDBRANCH   4   6
ENDBRANCH   1   2
BRANCH   1  16
ATOM     16  N   UNL     1      -3.616   2.137   0.030  0.00  0.00    -0.299 N 
ATOM     17  C   UNL     1      -2.580   1.276   0.021  0.00  0.00    +0.251 C 
ATOM     18  O   UNL     1      -2.786   0.076   0.015  0.00  0.00    -0.270 OA
ATOM     19  H   UNL     1      -3.430   3.221   0.035  0.00  0.00    +0.150 HD
BRANCH  17  20
ATOM     20  C   UNL     1      -1.205   1.783   0.017  0.00  0.00    +0.074 A 
ATOM     21  C   UNL     1      -0.013   1.076   0.008  0.00  0.00    +0.021 A 
ATOM     22  C   UNL     1       1.149   1.808   0.001  0.00  0.00    +0.008 A 
ATOM     23  C   UNL     1       1.077   3.165   0.008  0.00  0.00    +0.046 A 
ATOM     24  S   UNL     1      -0.629   3.471   0.026  0.00  0.00    -0.092 S 
ENDBRANCH  17  20
ENDBRANCH   1  16
BRANCH   1  25
ATOM     25  C   UNL     1      -5.214   0.770   1.280  0.00  0.00    +0.069 C 
BRANCH  25  32
ATOM     26  C   UNL     1      -8.266   3.487   3.577  0.00  0.00    +0.001 A 
ATOM     27  C   UNL     1      -7.709   4.107   4.687  0.00  0.00    +0.002 A 
ATOM     28  C   UNL     1      -6.388   3.900   5.019  0.00  0.00    +0.026 A 
ATOM     29  C   UNL     1      -5.602   3.060   4.235  0.00  0.00    +0.047 A 
ATOM     30  C   UNL     1      -6.170   2.439   3.108  0.00  0.00    +0.003 A 
ATOM     31  C   UNL     1      -7.513   2.659   2.794  0.00  0.00    +0.010 A 
ATOM     32  C   UNL     1      -5.103   1.632   2.511  0.00  0.00    -0.020 A 
ATOM     33  C   UNL     1      -4.007   1.810   3.265  0.00  0.00    +0.087 A 
ATOM     34  N   UNL     1      -4.287   2.660   4.300  0.00  0.00    -0.360 N 
ATOM     35  H   UNL     1      -3.639   3.030   5.109  0.00  0.00    +0.165 HD
ENDBRANCH  25  32
ENDBRANCH   1  25
TORSDOF 7
