REMARK  Name = ZINC65989067
REMARK  4 active torsions:
REMARK  status: ('A' for Active; 'I' for Inactive)
REMARK    1  A    between atoms: C_3  and  C_8
REMARK    2  A    between atoms: C_8  and  N_9
REMARK    3  A    between atoms: C_15  and  N_18
REMARK    4  A    between atoms: C_19  and  C_21
REMARK                            x       y       z     vdW  Elec       q    Type
REMARK                         _______ _______ _______ _____ _____    ______ ____
ROOT
ATOM      1  N   UNL     1       4.103   2.430   1.357  0.00  0.00    -0.295 N 
ATOM      2  C   UNL     1       5.244   3.107   1.596  0.00  0.00    +0.302 C 
ATOM      3  O   UNL     1       5.960   3.438   0.671  0.00  0.00    -0.253 OA
ATOM      4  N   UNL     1       5.590   3.419   2.861  0.00  0.00    -0.286 N 
ATOM      5  C   UNL     1       4.797   2.928   3.997  0.00  0.00    +0.111 C 
ATOM      6  C   UNL     1       4.396   4.120   4.870  0.00  0.00    +0.041 C 
ATOM      7  C   UNL     1       5.650   4.900   5.270  0.00  0.00    +0.076 C 
ATOM      8  C   UNL     1       6.343   5.434   4.014  0.00  0.00    +0.041 C 
ATOM      9  C   UNL     1       6.770   4.251   3.131  0.00  0.00    +0.111 C 
ATOM     10  H   UNL     1       3.570   2.102   2.098  0.00  0.00    +0.151 HD
ENDROOT
BRANCH   7  11
ATOM     11  N   UNL     1       5.272   6.023   6.133  0.00  0.00    -0.312 N 
ATOM     12  C   UNL     1       6.167   6.537   6.999  0.00  0.00    +0.216 C 
ATOM     13  O   UNL     1       7.285   6.071   7.065  0.00  0.00    -0.276 OA
ATOM     14  H   UNL     1       4.379   6.396   6.080  0.00  0.00    +0.149 HD
BRANCH  12  15
ATOM     15  C   UNL     1       5.779   7.691   7.887  0.00  0.00    +0.075 C 
ATOM     16  C   UNL     1       4.601   7.280   8.772  0.00  0.00    +0.013 C 
ATOM     17  C   UNL     1       4.206   8.452   9.673  0.00  0.00    +0.001 C 
ATOM     18  C   UNL     1       5.395   8.840  10.555  0.00  0.00    +0.000 C 
ATOM     19  C   UNL     1       6.574   9.251   9.669  0.00  0.00    +0.001 C 
ATOM     20  C   UNL     1       6.968   8.079   8.768  0.00  0.00    +0.013 C 
ENDBRANCH  12  15
ENDBRANCH   7  11
BRANCH   1  21
ATOM     21  C   UNL     1       3.670   2.188  -0.021  0.00  0.00    +0.141 C 
BRANCH  21  24
ATOM     22  C   UNL     1      -0.018   1.382   0.010  0.00  0.00    +0.003 A 
ATOM     23  C   UNL     1       1.170   2.089   0.003  0.00  0.00    +0.005 A 
ATOM     24  C   UNL     1       2.377   1.415  -0.013  0.00  0.00    -0.028 A 
ATOM     25  C   UNL     1       2.397   0.033  -0.022  0.00  0.00    +0.043 A 
ATOM     26  C   UNL     1       1.208  -0.676  -0.015  0.00  0.00    +0.124 A 
ATOM     27  C   UNL     1      -0.000   0.000   0.002  0.00  0.00    +0.038 A 
ATOM     28  F   UNL     1       1.227  -2.027  -0.024  0.00  0.00    -0.205 F 
ENDBRANCH  21  24
ENDBRANCH   1  21
TORSDOF 4
