REMARK  Name = ZINC39684448
REMARK  14 active torsions:
REMARK  status: ('A' for Active; 'I' for Inactive)
REMARK    1  A    between atoms: C_1  and  C_2
REMARK    2  A    between atoms: C_2  and  C_4
REMARK    3  A    between atoms: C_2  and  N_8
REMARK    4  A    between atoms: C_4  and  C_5
REMARK    5  A    between atoms: C_4  and  C_6
REMARK    6  A    between atoms: C_4  and  C_7
REMARK    7  A    between atoms: C_9  and  C_11
REMARK    8  A    between atoms: C_22  and  C_24
REMARK    9  A    between atoms: C_26  and  O_34
REMARK   10  A    between atoms: C_27  and  O_32
REMARK   11  A    between atoms: C_28  and  O_30
REMARK   12  A    between atoms: O_30  and  C_31
REMARK   13  A    between atoms: O_32  and  C_33
REMARK   14  A    between atoms: O_34  and  C_35
REMARK                            x       y       z     vdW  Elec       q    Type
REMARK                         _______ _______ _______ _____ _____    ______ ____
ROOT
ATOM      1  C   UNL     1       2.799  -0.480   2.246  0.00  0.00    +0.100 C 
ATOM      2  C   UNL     1       2.653   0.270   3.589  0.00  0.00    +0.121 C 
ATOM      3  N   UNL     1       3.984   0.152   4.230  0.00  0.00    -0.296 N 
ATOM      4  C   UNL     1       4.946   0.315   3.114  0.00  0.00    +0.115 C 
ATOM      5  C   UNL     1       4.305  -0.447   1.937  0.00  0.00    -0.004 C 
ATOM      6  C   UNL     1       4.859  -1.867   1.863  0.00  0.00    -0.010 C 
ATOM      7  C   UNL     1       6.346  -1.810   1.499  0.00  0.00    -0.082 C 
ATOM      8  N   UNL     1       6.510  -1.131   0.208  0.00  0.00    +0.379 N 
ATOM      9  C   UNL     1       6.059   0.262   0.314  0.00  0.00    -0.082 C 
ATOM     10  C   UNL     1       4.561   0.293   0.628  0.00  0.00    -0.010 C 
ATOM     11  C   UNL     1       4.258  -0.056   5.533  0.00  0.00    +0.247 C 
ATOM     12  O   UNL     1       3.355  -0.280   6.316  0.00  0.00    -0.270 OA
ATOM     13  H   UNL     1       7.483  -1.149  -0.059  0.00  0.00    -0.086 HD
ATOM     14  H   UNL     1       5.963  -1.608  -0.493  0.00  0.00    -0.086 HD
ENDROOT
BRANCH  11  15
ATOM     15  C   UNL     1       5.654  -0.011   6.010  0.00  0.00    +0.044 A 
ATOM     16  C   UNL     1       6.625   0.670   5.271  0.00  0.00    +0.062 A 
ATOM     17  C   UNL     1       7.931   0.711   5.720  0.00  0.00    +0.166 A 
ATOM     18  C   UNL     1       8.281   0.073   6.907  0.00  0.00    +0.204 A 
ATOM     19  C   UNL     1       7.316  -0.607   7.645  0.00  0.00    +0.166 A 
ATOM     20  C   UNL     1       6.007  -0.645   7.203  0.00  0.00    +0.062 A 
BRANCH  19  21
ATOM     21  O   UNL     1       7.661  -1.230   8.804  0.00  0.00    -0.491 OA
ATOM     22  C   UNL     1       6.621  -1.909   9.510  0.00  0.00    +0.277 C 
ENDBRANCH  19  21
BRANCH  18  23
ATOM     23  O   UNL     1       9.567   0.114   7.346  0.00  0.00    -0.488 OA
ATOM     24  C   UNL     1       9.925   1.200   8.203  0.00  0.00    +0.277 C 
ENDBRANCH  18  23
BRANCH  17  25
ATOM     25  O   UNL     1       8.877   1.374   5.001  0.00  0.00    -0.491 OA
ATOM     26  C   UNL     1       8.448   2.006   3.792  0.00  0.00    +0.277 C 
ENDBRANCH  17  25
ENDBRANCH  11  15
BRANCH   1  28
ATOM     27  N   UNL     1       1.519  -0.471   0.129  0.00  0.00    -0.312 N 
ATOM     28  C   UNL     1       2.026   0.229   1.163  0.00  0.00    +0.218 C 
ATOM     29  O   UNL     1       1.860   1.429   1.223  0.00  0.00    -0.275 OA
ATOM     30  H   UNL     1       1.651  -1.431   0.082  0.00  0.00    +0.149 HD
BRANCH  27  32
ATOM     31  C   UNL     1      -0.694   0.362  -0.495  0.00  0.00    +0.028 C 
ATOM     32  C   UNL     1       0.768   0.217  -0.923  0.00  0.00    +0.075 C 
BRANCH  32  33
ATOM     33  C   UNL     1       0.842  -0.595  -2.218  0.00  0.00    -0.020 C 
ATOM     34  C   UNL     1       0.057   0.124  -3.317  0.00  0.00    +0.012 C 
ATOM     35  C   UNL     1       2.304  -0.739  -2.646  0.00  0.00    +0.012 C 
ATOM     36  C   UNL     1       0.239  -1.982  -1.985  0.00  0.00    +0.012 C 
ENDBRANCH  32  33
ENDBRANCH  27  32
ENDBRANCH   1  28
TORSDOF 7
