REMARK  Name = ZINC16846775
REMARK  6 active torsions:
REMARK  status: ('A' for Active; 'I' for Inactive)
REMARK    1  A    between atoms: C_1  and  C_2
REMARK    2  A    between atoms: C_2  and  C_3
REMARK    3  A    between atoms: C_3  and  C_23
REMARK    4  A    between atoms: C_13  and  S_18
REMARK    5  A    between atoms: S_18  and  C_19
REMARK    6  A    between atoms: C_19  and  C_20
REMARK                            x       y       z     vdW  Elec       q    Type
REMARK                         _______ _______ _______ _____ _____    ______ ____
ROOT
ATOM      1  C   UNL     1      -2.442   1.096  -0.409  0.00  0.00    +0.071 C 
ATOM      2  C   UNL     1      -1.355   2.084   0.020  0.00  0.00    +0.071 C 
ATOM      3  C   UNL     1      -0.016   1.349   0.009  0.00  0.00    -0.019 A 
ATOM      4  C   UNL     1       0.002  -0.004   0.002  0.00  0.00    +0.021 A 
ATOM      5  S   UNL     1       1.718  -0.436  -0.018  0.00  0.00    -0.071 S 
ATOM      6  C   UNL     1       2.404   1.202  -0.015  0.00  0.00    +0.116 A 
ATOM      7  C   UNL     1       1.272   2.031   0.001  0.00  0.00    +0.056 A 
ATOM      8  C   UNL     1       1.557   3.482   0.006  0.00  0.00    +0.174 A 
ATOM      9  N   UNL     1       0.808   4.556   0.019  0.00  0.00    -0.128 NA
ATOM     10  N   UNL     1       1.554   5.606   0.018  0.00  0.00    -0.122 NA
ATOM     11  C   UNL     1       2.822   5.264   0.005  0.00  0.00    +0.198 A 
ATOM     12  N   UNL     1       2.871   3.896  -0.003  0.00  0.00    -0.241 N 
ATOM     13  C   UNL     1       3.888   2.980  -0.018  0.00  0.00    +0.202 A 
ATOM     14  N   UNL     1       3.643   1.691  -0.023  0.00  0.00    -0.208 NA
ATOM     15  N   UNL     1       5.191   3.418  -0.026  0.00  0.00    -0.328 N 
ATOM     16  C   UNL     1      -1.193  -0.906   0.011  0.00  0.00    +0.203 C 
ATOM     17  O   UNL     1      -2.342  -0.113   0.348  0.00  0.00    -0.368 OA
ATOM     18  C   UNL     1      -2.270   0.779  -1.896  0.00  0.00    +0.042 C 
ATOM     19  H   UNL     1       5.919   2.777  -0.036  0.00  0.00    +0.145 HD
ATOM     20  H   UNL     1       5.383   4.369  -0.022  0.00  0.00    +0.145 HD
ENDROOT
BRANCH   1  22
ATOM     21  C   UNL     1      -4.906   0.748  -0.631  0.00  0.00    +0.007 C 
ATOM     22  C   UNL     1      -3.818   1.725  -0.181  0.00  0.00    +0.032 C 
ENDBRANCH   1  22
BRANCH  11  23
ATOM     23  S   UNL     1       4.201   6.360  -0.000  0.00  0.00    -0.086 S 
BRANCH  23  24
ATOM     24  C   UNL     1       3.449   8.011   0.015  0.00  0.00    +0.074 C 
ATOM     25  C   UNL     1       4.551   9.073   0.012  0.00  0.00    +0.016 C 
ENDBRANCH  23  24
ENDBRANCH  11  23
TORSDOF 3
