REMARK  Name = ZINC16024649
REMARK  8 active torsions:
REMARK  status: ('A' for Active; 'I' for Inactive)
REMARK    1  A    between atoms: C_1  and  C_2
REMARK    2  A    between atoms: C_2  and  C_3
REMARK    3  A    between atoms: C_3  and  C_5
REMARK    4  A    between atoms: C_3  and  N_6
REMARK    5  A    between atoms: C_11  and  C_29
REMARK    6  A    between atoms: C_29  and  C_30
REMARK    7  A    between atoms: C_30  and  C_31
REMARK    8  A    between atoms: C_30  and  C_32
REMARK                            x       y       z     vdW  Elec       q    Type
REMARK                         _______ _______ _______ _____ _____    ______ ____
ROOT
ATOM      1  N   UNL     1      -2.153  -0.358  -1.264  0.00  0.00    -0.239 N 
ATOM      2  C   UNL     1      -1.674  -0.722  -2.458  0.00  0.00    +0.227 C 
ATOM      3  O   UNL     1      -0.751  -1.487  -2.639  0.00  0.00    -0.275 OA
ATOM      4  C   UNL     1      -2.462  -0.030  -3.548  0.00  0.00    +0.107 C 
ATOM      5  C   UNL     1      -1.553   1.000  -4.253  0.00  0.00    +0.068 C 
ATOM      6  N   UNL     1      -2.381   2.232  -4.354  0.00  0.00    -0.295 NA
ATOM      7  C   UNL     1      -3.122   2.275  -3.080  0.00  0.00    +0.136 C 
ATOM      8  C   UNL     1      -3.505   0.809  -2.758  0.00  0.00    +0.122 C 
ATOM      9  C   UNL     1      -3.184   0.494  -1.315  0.00  0.00    +0.228 C 
ATOM     10  O   UNL     1      -3.768   0.946  -0.353  0.00  0.00    -0.275 OA
ATOM     11  C   UNL     1      -4.341   3.147  -3.183  0.00  0.00    +0.006 A 
ATOM     12  C   UNL     1      -5.461   3.118  -3.984  0.00  0.00    +0.046 A 
ATOM     13  C   UNL     1      -6.440   4.088  -3.841  0.00  0.00    +0.124 A 
ATOM     14  C   UNL     1      -6.290   5.082  -2.889  0.00  0.00    +0.040 A 
ATOM     15  C   UNL     1      -5.170   5.112  -2.084  0.00  0.00    +0.026 A 
ATOM     16  C   UNL     1      -4.180   4.141  -2.224  0.00  0.00    +0.039 A 
ATOM     17  N   UNL     1      -2.975   3.962  -1.539  0.00  0.00    -0.283 N 
ATOM     18  C   UNL     1      -2.295   2.887  -1.983  0.00  0.00    +0.243 C 
ATOM     19  O   UNL     1      -1.223   2.490  -1.577  0.00  0.00    -0.273 OA
ATOM     20  F   UNL     1      -7.539   4.063  -4.627  0.00  0.00    -0.205 F 
ATOM     21  H   UNL     1      -1.800   3.049  -4.462  0.00  0.00    +0.123 HD
ATOM     22  H   UNL     1      -2.665   4.543  -0.827  0.00  0.00    +0.155 HD
ENDROOT
BRANCH   1  23
ATOM     23  C   UNL     1      -1.600  -0.857  -0.002  0.00  0.00    +0.081 C 
ATOM     24  C   UNL     1      -1.176   0.326   0.872  0.00  0.00    +0.028 C 
BRANCH  23  26
ATOM     25  C   UNL     1      -3.009  -2.918  -0.097  0.00  0.00    +0.006 C 
ATOM     26  C   UNL     1      -2.661  -1.679   0.731  0.00  0.00    +0.019 C 
ENDBRANCH  23  26
ENDBRANCH   1  23
BRANCH   5  27
ATOM     27  C   UNL     1      -1.163   0.502  -5.646  0.00  0.00    +0.022 C 
BRANCH  27  28
ATOM     28  C   UNL     1      -0.289  -0.746  -5.514  0.00  0.00    -0.016 C 
ATOM     29  C   UNL     1      -0.026  -1.333  -6.903  0.00  0.00    +0.007 C 
ATOM     30  C   UNL     1       1.042  -0.370  -4.860  0.00  0.00    +0.007 C 
ENDBRANCH  27  28
ENDBRANCH   5  27
TORSDOF 4
