REMARK  Name = ZINC35726758
REMARK  10 active torsions:
REMARK  status: ('A' for Active; 'I' for Inactive)
REMARK    1  A    between atoms: C_1  and  C_2
REMARK    2  A    between atoms: C_2  and  O_3
REMARK    3  A    between atoms: O_3  and  C_4
REMARK    4  A    between atoms: C_4  and  C_6
REMARK    5  A    between atoms: C_7  and  C_41
REMARK    6  A    between atoms: N_8  and  C_21
REMARK    7  A    between atoms: C_12  and  C_14
REMARK    8  A    between atoms: C_18  and  C_20
REMARK    9  A    between atoms: C_21  and  C_22
REMARK   10  A    between atoms: C_27  and  N_30
REMARK                            x       y       z     vdW  Elec       q    Type
REMARK                         _______ _______ _______ _____ _____    ______ ____
ROOT
ATOM      1  C   UNL     1       1.234  -2.363  -2.584  0.00  0.00    +0.061 C 
ATOM      2  C   UNL     1       1.612  -3.653  -2.586  0.00  0.00    +0.021 C 
ATOM      3  N   UNL     1       2.400  -4.160  -3.584  0.00  0.00    -0.266 N 
ATOM      4  C   UNL     1       2.588  -3.482  -4.730  0.00  0.00    +0.221 C 
ATOM      5  O   UNL     1       3.359  -3.907  -5.564  0.00  0.00    -0.275 OA
ATOM      6  C   UNL     1       1.845  -2.195  -4.982  0.00  0.00    +0.109 C 
ATOM      7  C   UNL     1       1.699  -1.427  -3.670  0.00  0.00    +0.066 C 
ATOM      8  C   UNL     1       1.162  -4.557  -1.467  0.00  0.00    +0.061 C 
ENDROOT
BRANCH   7   9
ATOM      9  C   UNL     1       3.032  -0.838  -3.288  0.00  0.00    -0.039 A 
ATOM     10  C   UNL     1       4.120  -1.665  -3.078  0.00  0.00    +0.004 A 
ATOM     11  C   UNL     1       5.342  -1.124  -2.728  0.00  0.00    +0.001 A 
ATOM     12  C   UNL     1       5.478   0.244  -2.587  0.00  0.00    +0.003 A 
ATOM     13  C   UNL     1       4.391   1.072  -2.797  0.00  0.00    -0.050 A 
ATOM     14  C   UNL     1       3.169   0.531  -3.152  0.00  0.00    +0.007 A 
ATOM     15  C   UNL     1       4.538   2.564  -2.643  0.00  0.00    +0.044 C 
ENDBRANCH   7   9
BRANCH   1  16
ATOM     16  C   UNL     1       0.387  -1.882  -1.557  0.00  0.00    +0.337 C 
ATOM     17  O   UNL     1      -0.092  -2.656  -0.751  0.00  0.00    -0.245 OA
BRANCH  16  18
ATOM     18  O   UNL     1       0.112  -0.564  -1.472  0.00  0.00    -0.462 OA
BRANCH  18  20
ATOM     19  C   UNL     1      -0.944   1.369  -0.476  0.00  0.00    +0.048 C 
ATOM     20  C   UNL     1      -0.750  -0.148  -0.411  0.00  0.00    +0.229 C 
ENDBRANCH  18  20
ENDBRANCH  16  18
ENDBRANCH   1  16
BRANCH   3  21
ATOM     21  C   UNL     1       3.047  -5.462  -3.402  0.00  0.00    +0.209 C 
BRANCH  21  22
ATOM     22  C   UNL     1       2.135  -6.551  -3.906  0.00  0.00    +0.233 C 
ATOM     23  O   UNL     1       1.052  -6.268  -4.372  0.00  0.00    -0.274 OA
ATOM     24  N   UNL     1       2.524  -7.840  -3.839  0.00  0.00    -0.300 N 
ATOM     25  C   UNL     1       3.831  -8.199  -3.271  0.00  0.00    +0.110 C 
ATOM     26  C   UNL     1       4.589  -9.060  -4.286  0.00  0.00    +0.044 C 
ATOM     27  C   UNL     1       3.724 -10.260  -4.679  0.00  0.00    +0.095 C 
ATOM     28  C   UNL     1       2.432  -9.766  -5.334  0.00  0.00    +0.044 C 
ATOM     29  C   UNL     1       1.647  -8.913  -4.326  0.00  0.00    +0.110 C 
BRANCH  27  30
ATOM     30  N   UNL     1       4.459 -11.104  -5.624  0.00  0.00    -0.289 N 
ATOM     31  C   UNL     1       4.795 -12.441  -5.431  0.00  0.00    +0.070 A 
ATOM     32  C   UNL     1       4.577 -13.338  -4.396  0.00  0.00    +0.028 A 
ATOM     33  C   UNL     1       5.044 -14.633  -4.499  0.00  0.00    +0.002 A 
ATOM     34  C   UNL     1       5.731 -15.040  -5.630  0.00  0.00    +0.002 A 
ATOM     35  C   UNL     1       5.953 -14.154  -6.666  0.00  0.00    +0.028 A 
ATOM     36  C   UNL     1       5.487 -12.852  -6.572  0.00  0.00    +0.067 A 
ATOM     37  N   UNL     1       5.549 -11.751  -7.423  0.00  0.00    -0.306 N 
ATOM     38  H   UNL     1       5.971 -11.732  -8.297  0.00  0.00    +0.170 HD
ATOM     39  C   UNL     1       4.919 -10.720  -6.830  0.00  0.00    +0.328 A 
ATOM     40  O   UNL     1       4.789  -9.609  -7.308  0.00  0.00    -0.247 OA
ENDBRANCH  27  30
ENDBRANCH  21  22
ENDBRANCH   3  21
TORSDOF 7
