REMARK  Name = ZINC00032094
REMARK  6 active torsions:
REMARK  status: ('A' for Active; 'I' for Inactive)
REMARK    1  A    between atoms: C_1  and  C_2
REMARK    2  A    between atoms: C_3  and  N_14
REMARK    3  A    between atoms: C_4  and  C_13
REMARK    4  A    between atoms: N_5  and  C_7
REMARK    5  A    between atoms: C_15  and  C_16
REMARK    6  A    between atoms: C_25  and  O_26
REMARK                            x       y       z     vdW  Elec       q    Type
REMARK                         _______ _______ _______ _____ _____    ______ ____
ROOT
ATOM      1  N   UNL     1      -0.355  -0.421  -2.427  0.00  0.00    -0.251 NA
ATOM      2  C   UNL     1       0.660  -0.060  -3.162  0.00  0.00    +0.123 C 
ENDROOT
BRANCH   2   3
ATOM      3  C   UNL     1       0.444   0.383  -4.544  0.00  0.00    +0.042 A 
ATOM      4  C   UNL     1       1.571   0.786  -5.385  0.00  0.00    -0.006 A 
ATOM      5  C   UNL     1       2.885   0.764  -4.904  0.00  0.00    +0.009 A 
ATOM      6  C   UNL     1       3.908   1.147  -5.720  0.00  0.00    +0.001 A 
ATOM      7  C   UNL     1       3.663   1.562  -7.027  0.00  0.00    +0.001 A 
ATOM      8  C   UNL     1       2.396   1.596  -7.525  0.00  0.00    +0.008 A 
ATOM      9  C   UNL     1       1.318   1.207  -6.713  0.00  0.00    -0.017 A 
ATOM     10  C   UNL     1      -0.003   1.227  -7.194  0.00  0.00    +0.012 A 
ATOM     11  C   UNL     1      -1.040   0.849  -6.401  0.00  0.00    +0.046 A 
ATOM     12  C   UNL     1      -0.842   0.423  -5.088  0.00  0.00    +0.126 A 
BRANCH  12  13
ATOM     13  O   UNL     1      -1.905   0.049  -4.332  0.00  0.00    -0.506 OA
ATOM     14  H   UNL     1      -2.307   0.773  -3.832  0.00  0.00    +0.292 HD
ENDBRANCH  12  13
ENDBRANCH   2   3
BRANCH   1  17
ATOM     15  C   UNL     1      -0.368   1.474   0.038  0.00  0.00    +0.070 C 
ATOM     16  C   UNL     1      -0.150  -0.017   0.014  0.00  0.00    +0.086 A 
ATOM     17  C   UNL     1      -0.153  -0.835  -1.136  0.00  0.00    +0.107 A 
ATOM     18  C   UNL     1       0.084  -2.127  -0.720  0.00  0.00    +0.067 A 
ATOM     19  N   UNL     1       0.225  -2.098   0.625  0.00  0.00    -0.235 N 
ATOM     20  N   UNL     1       0.081  -0.774   1.054  0.00  0.00    -0.169 NA
ATOM     21  C   UNL     1       0.169  -3.347  -1.601  0.00  0.00    +0.068 C 
BRANCH  19  22
ATOM     22  C   UNL     1       0.478  -3.204   1.447  0.00  0.00    +0.066 A 
ATOM     23  C   UNL     1       1.401  -4.165   1.057  0.00  0.00    +0.028 A 
ATOM     24  C   UNL     1       1.648  -5.254   1.870  0.00  0.00    +0.002 A 
ATOM     25  C   UNL     1       0.978  -5.387   3.072  0.00  0.00    +0.000 A 
ATOM     26  C   UNL     1       0.058  -4.432   3.463  0.00  0.00    +0.002 A 
ATOM     27  C   UNL     1      -0.190  -3.338   2.657  0.00  0.00    +0.028 A 
ENDBRANCH  19  22
ENDBRANCH   1  17
TORSDOF 4
