REMARK  Name = ZINC21080126
REMARK  5 active torsions:
REMARK  status: ('A' for Active; 'I' for Inactive)
REMARK    1  A    between atoms: C_3  and  O_23
REMARK    2  A    between atoms: C_4  and  C_8
REMARK    3  A    between atoms: N_9  and  N_10
REMARK    4  A    between atoms: C_13  and  S_16
REMARK    5  A    between atoms: S_16  and  C_17
REMARK                            x       y       z     vdW  Elec       q    Type
REMARK                         _______ _______ _______ _____ _____    ______ ____
ROOT
ATOM      1  N   UNL     1       6.030  -0.708  -0.060  0.00  0.00    -0.205 N 
ATOM      2  C   UNL     1       7.217   0.001  -0.069  0.00  0.00    +0.232 A 
ATOM      3  N   UNL     1       7.336   1.312  -0.057  0.00  0.00    -0.186 NA
ATOM      4  C   UNL     1       8.631   1.646  -0.069  0.00  0.00    +0.210 A 
ATOM      5  N   UNL     1       9.354   0.551  -0.089  0.00  0.00    -0.144 NA
ATOM      6  N   UNL     1       8.458  -0.531  -0.084  0.00  0.00    -0.245 N 
ATOM      7  H   UNL     1       6.044  -1.678  -0.066  0.00  0.00    +0.177 HD
ATOM      8  H   UNL     1       8.686  -1.473  -0.091  0.00  0.00    +0.192 HD
ENDROOT
BRANCH   1  10
ATOM      9  C   UNL     1       3.692  -0.690  -0.037  0.00  0.00    +0.142 C 
ATOM     10  N   UNL     1       4.807  -0.025  -0.045  0.00  0.00    -0.187 NA
BRANCH   9  14
ATOM     11  C   UNL     1      -0.017   1.381   0.010  0.00  0.00    +0.019 A 
ATOM     12  C   UNL     1       1.167   2.096   0.002  0.00  0.00    +0.047 A 
ATOM     13  C   UNL     1       2.381   1.430  -0.013  0.00  0.00    +0.126 A 
ATOM     14  C   UNL     1       2.405   0.028  -0.021  0.00  0.00    +0.037 A 
ATOM     15  C   UNL     1       1.204  -0.683  -0.013  0.00  0.00    +0.028 A 
ATOM     16  C   UNL     1       0.002  -0.004   0.002  0.00  0.00    +0.019 A 
ATOM     17 BR   UNL     1      -1.625  -0.968   0.013  0.00  0.00    -0.050 Br
BRANCH  13  18
ATOM     18  O   UNL     1       3.543   2.132  -0.021  0.00  0.00    -0.506 OA
ATOM     19  H   UNL     1       3.889   2.331   0.860  0.00  0.00    +0.292 HD
ENDBRANCH  13  18
ENDBRANCH   9  14
ENDBRANCH   1  10
BRANCH   4  20
ATOM     20  S   UNL     1       9.264   3.290  -0.061  0.00  0.00    -0.081 S 
BRANCH  20  21
ATOM     21  C   UNL     1      11.064   3.067  -0.085  0.00  0.00    +0.054 C 
ATOM     22  C   UNL     1      11.480   2.412  -1.403  0.00  0.00    +0.014 C 
ATOM     23  C   UNL     1      12.998   2.225  -1.423  0.00  0.00    +0.001 C 
ATOM     24  C   UNL     1      13.682   3.587  -1.293  0.00  0.00    +0.000 C 
ATOM     25  C   UNL     1      13.267   4.242   0.026  0.00  0.00    +0.001 C 
ATOM     26  C   UNL     1      11.748   4.430   0.046  0.00  0.00    +0.014 C 
ENDBRANCH  20  21
ENDBRANCH   4  20
TORSDOF 5
