REMARK  Name = ZINC52756738
REMARK  8 active torsions:
REMARK  status: ('A' for Active; 'I' for Inactive)
REMARK    1  A    between atoms: C_3  and  C_21
REMARK    2  A    between atoms: C_4  and  C_17
REMARK    3  A    between atoms: C_6  and  N_7
REMARK    4  A    between atoms: C_11  and  C_13
REMARK    5  A    between atoms: C_13  and  C_14
REMARK    6  A    between atoms: C_14  and  C_15
REMARK    7  A    between atoms: C_15  and  O_16
REMARK    8  A    between atoms: C_21  and  N_22
REMARK                            x       y       z     vdW  Elec       q    Type
REMARK                         _______ _______ _______ _____ _____    ______ ____
ROOT
ATOM      1  C   UNL     1       0.050   1.040   0.103  0.00  0.00    +0.023 A 
ATOM      2  C   UNL     1       1.272   1.651   0.304  0.00  0.00    +0.004 A 
ATOM      3  C   UNL     1       2.394   0.886   0.568  0.00  0.00    -0.053 A 
ATOM      4  C   UNL     1       2.296  -0.492   0.633  0.00  0.00    +0.058 A 
ATOM      5  C   UNL     1       1.076  -1.109   0.434  0.00  0.00    +0.035 A 
ATOM      6  C   UNL     1      -0.052  -0.344   0.168  0.00  0.00    +0.030 A 
ENDROOT
BRANCH   6   7
ATOM      7  N   UNL     1      -1.287  -0.965  -0.034  0.00  0.00    -0.327 N 
ATOM      8  C   UNL     1      -1.516  -2.419  -0.104  0.00  0.00    +0.105 C 
ATOM      9  C   UNL     1      -2.821  -2.577  -0.924  0.00  0.00    +0.021 C 
ATOM     10  C   UNL     1      -3.649  -1.362  -0.428  0.00  0.00    +0.024 C 
ATOM     11  C   UNL     1      -2.574  -0.276  -0.207  0.00  0.00    +0.074 C 
BRANCH  11  12
ATOM     12  C   UNL     1      -2.902   0.536   1.048  0.00  0.00    +0.024 C 
BRANCH  12  13
ATOM     13  C   UNL     1      -4.210   1.301   0.833  0.00  0.00    +0.030 C 
BRANCH  13  14
ATOM     14  C   UNL     1      -4.472   2.211   2.034  0.00  0.00    +0.156 C 
BRANCH  14  15
ATOM     15  O   UNL     1      -5.693   2.925   1.834  0.00  0.00    -0.395 OA
ATOM     16  H   UNL     1      -5.923   3.523   2.558  0.00  0.00    +0.209 HD
ENDBRANCH  14  15
ENDBRANCH  13  14
ENDBRANCH  12  13
ENDBRANCH  11  12
ENDBRANCH   6   7
BRANCH   4  17
ATOM     17  C   UNL     1       3.521  -1.321   0.922  0.00  0.00    +0.418 C 
ATOM     18  F   UNL     1       3.167  -2.674   0.973  0.00  0.00    -0.166 F 
ATOM     19  F   UNL     1       4.466  -1.124  -0.091  0.00  0.00    -0.166 F 
ATOM     20  F   UNL     1       4.066  -0.935   2.150  0.00  0.00    -0.166 F 
ENDBRANCH   4  17
BRANCH   3  21
ATOM     21  C   UNL     1       3.726   1.556   0.786  0.00  0.00    -0.050 C 
BRANCH  21  22
ATOM     22  N   UNL     1       3.588   3.002   0.568  0.00  0.00    +0.381 N 
ATOM     23  H   UNL     1       3.216   3.170  -0.355  0.00  0.00    -0.090 HD
ATOM     24  H   UNL     1       2.962   3.388   1.258  0.00  0.00    -0.090 HD
ATOM     25  H   UNL     1       4.492   3.442   0.651  0.00  0.00    -0.090 HD
ENDBRANCH  21  22
ENDBRANCH   3  21
TORSDOF 8
