REMARK  Name = ZINC09147145
REMARK  9 active torsions:
REMARK  status: ('A' for Active; 'I' for Inactive)
REMARK    1  A    between atoms: C_1  and  N_2
REMARK    2  A    between atoms: C_5  and  O_35
REMARK    3  A    between atoms: C_6  and  O_33
REMARK    4  A    between atoms: N_11  and  C_12
REMARK    5  A    between atoms: C_12  and  C_14
REMARK    6  A    between atoms: C_17  and  S_20
REMARK    7  A    between atoms: S_20  and  N_23
REMARK    8  A    between atoms: O_33  and  C_34
REMARK    9  A    between atoms: O_35  and  C_36
REMARK                            x       y       z     vdW  Elec       q    Type
REMARK                         _______ _______ _______ _____ _____    ______ ____
ROOT
ATOM      1  C   UNL     1      -3.427  -1.300   0.028  0.00  0.00    +0.039 A 
ATOM      2  C   UNL     1      -3.210  -2.678   0.013  0.00  0.00    +0.015 A 
ATOM      3  C   UNL     1      -4.285  -3.543   0.023  0.00  0.00    +0.029 A 
ATOM      4  C   UNL     1      -5.576  -3.046   0.038  0.00  0.00    +0.106 A 
ATOM      5  C   UNL     1      -5.798  -1.681   0.049  0.00  0.00    +0.029 A 
ATOM      6  C   UNL     1      -4.731  -0.806   0.044  0.00  0.00    +0.015 A 
ENDROOT
BRANCH   4   7
ATOM      7  S   UNL     1      -6.943  -4.158   0.045  0.00  0.00    +0.061 S 
ATOM      8  O   UNL     1      -6.468  -5.384   0.584  0.00  0.00    -0.153 OA
ATOM      9  O   UNL     1      -8.038  -3.451   0.611  0.00  0.00    -0.153 OA
BRANCH   7  10
ATOM     10  N   UNL     1      -7.338  -4.457  -1.535  0.00  0.00    -0.172 NA
ATOM     11  C   UNL     1      -6.728  -5.571  -2.280  0.00  0.00    +0.114 C 
ATOM     12  C   UNL     1      -7.837  -6.561  -2.635  0.00  0.00    +0.052 C 
ATOM     13  C   UNL     1      -9.028  -5.846  -3.215  0.00  0.00    -0.042 A 
ATOM     14  C   UNL     1      -9.929  -6.597  -3.962  0.00  0.00    +0.004 A 
ATOM     15  C   UNL     1     -11.046  -6.006  -4.515  0.00  0.00    +0.000 A 
ATOM     16  C   UNL     1     -11.275  -4.656  -4.325  0.00  0.00    +0.000 A 
ATOM     17  C   UNL     1     -10.381  -3.908  -3.586  0.00  0.00    +0.005 A 
ATOM     18  C   UNL     1      -9.254  -4.501  -3.033  0.00  0.00    -0.028 A 
ATOM     19  C   UNL     1      -8.315  -3.626  -2.248  0.00  0.00    +0.144 C 
ENDBRANCH   7  10
ENDBRANCH   4   7
BRANCH   1  20
ATOM     20  C   UNL     1      -2.278  -0.366   0.022  0.00  0.00    +0.269 C 
ATOM     21  O   UNL     1      -2.471   0.838   0.031  0.00  0.00    -0.268 OA
BRANCH  20  32
ATOM     22  C   UNL     1       1.767  -1.698  -0.024  0.00  0.00    +0.151 C 
ATOM     23  N   UNL     1       1.329  -0.300  -0.012  0.00  0.00    -0.324 N 
ATOM     24  C   UNL     1       2.267   0.718  -0.016  0.00  0.00    +0.061 A 
ATOM     25  C   UNL     1       3.667   0.610  -0.030  0.00  0.00    +0.076 A 
ATOM     26  C   UNL     1       4.461   1.736  -0.033  0.00  0.00    +0.164 A 
ATOM     27  C   UNL     1       3.900   3.012  -0.021  0.00  0.00    +0.163 A 
ATOM     28  C   UNL     1       2.519   3.141  -0.006  0.00  0.00    +0.066 A 
ATOM     29  C   UNL     1       1.731   2.014  -0.004  0.00  0.00    +0.043 A 
ATOM     30  S   UNL     1      -0.021   1.730   0.012  0.00  0.00    -0.052 S 
ATOM     31  C   UNL     1       0.002  -0.004   0.002  0.00  0.00    +0.166 A 
ATOM     32  N   UNL     1      -1.029  -0.842   0.007  0.00  0.00    -0.152 NA
BRANCH  27  33
ATOM     33  O   UNL     1       4.695   4.115  -0.023  0.00  0.00    -0.491 OA
ATOM     34  C   UNL     1       4.042   5.386  -0.009  0.00  0.00    +0.277 C 
ENDBRANCH  27  33
BRANCH  26  35
ATOM     35  O   UNL     1       5.814   1.601  -0.047  0.00  0.00    -0.491 OA
ATOM     36  C   UNL     1       6.333   0.269  -0.059  0.00  0.00    +0.277 C 
ENDBRANCH  26  35
ENDBRANCH  20  32
ENDBRANCH   1  20
TORSDOF 6
