REMARK  Name = ZINC63938142
REMARK  6 active torsions:
REMARK  status: ('A' for Active; 'I' for Inactive)
REMARK    1  A    between atoms: C_4  and  C_7
REMARK    2  A    between atoms: C_8  and  C_21
REMARK    3  A    between atoms: N_10  and  C_14
REMARK    4  A    between atoms: C_11  and  N_13
REMARK    5  A    between atoms: C_21  and  S_22
REMARK    6  A    between atoms: S_22  and  C_23
REMARK                            x       y       z     vdW  Elec       q    Type
REMARK                         _______ _______ _______ _____ _____    ______ ____
ROOT
ATOM      1  C   UNL     1       3.693  -0.682  -0.038  0.00  0.00    +0.015 C 
ATOM      2  C   UNL     1       4.613  -0.680   0.928  0.00  0.00    +0.039 C 
ATOM      3  N   UNL     1       5.701  -1.452   0.595  0.00  0.00    -0.265 N 
ATOM      4  N   UNL     1       5.530  -2.023  -0.673  0.00  0.00    -0.232 N 
ATOM      5  C   UNL     1       4.216  -1.562  -1.152  0.00  0.00    +0.191 C 
ATOM      6  H   UNL     1       6.479  -1.583   1.159  0.00  0.00    +0.170 HD
ENDROOT
BRANCH   4   7
ATOM      7  C   UNL     1       6.421  -2.864  -1.343  0.00  0.00    +0.051 A 
ATOM      8  C   UNL     1       6.106  -3.347  -2.608  0.00  0.00    +0.025 A 
ATOM      9  C   UNL     1       6.989  -4.178  -3.268  0.00  0.00    +0.003 A 
ATOM     10  C   UNL     1       8.186  -4.531  -2.673  0.00  0.00    +0.020 A 
ATOM     11  C   UNL     1       8.504  -4.053  -1.414  0.00  0.00    +0.043 A 
ATOM     12  C   UNL     1       7.627  -3.215  -0.750  0.00  0.00    +0.044 A 
ATOM     13 CL   UNL     1      10.007  -4.500  -0.670  0.00  0.00    -0.083 Cl
ENDBRANCH   4   7
BRANCH   1  17
ATOM     14  C   UNL     1      -0.017   1.379   0.010  0.00  0.00    +0.000 A 
ATOM     15  C   UNL     1       1.168   2.094   0.002  0.00  0.00    +0.001 A 
ATOM     16  C   UNL     1       2.377   1.431  -0.013  0.00  0.00    +0.008 A 
ATOM     17  C   UNL     1       2.404   0.034  -0.021  0.00  0.00    -0.017 A 
ATOM     18  C   UNL     1       1.204  -0.681  -0.013  0.00  0.00    +0.008 A 
ATOM     19  C   UNL     1       0.002  -0.004   0.002  0.00  0.00    +0.001 A 
ENDBRANCH   1  17
BRANCH   5  20
ATOM     20  N   UNL     1       3.317  -2.704  -1.369  0.00  0.00    -0.308 NA
ATOM     21  H   UNL     1       3.658  -3.296  -2.111  0.00  0.00    +0.120 HD
ATOM     22  H   UNL     1       3.187  -3.228  -0.517  0.00  0.00    +0.120 HD
ENDBRANCH   5  20
BRANCH   2  23
ATOM     23  C   UNL     1       4.476   0.076   2.225  0.00  0.00    +0.125 C 
BRANCH  23  24
ATOM     24  S   UNL     1       4.095  -1.087   3.564  0.00  0.00    -0.109 S 
BRANCH  24  25
ATOM     25  C   UNL     1       3.964  -0.033   5.035  0.00  0.00    +0.236 C 
ATOM     26  N   UNL     1       2.947   1.004   4.823  0.00  0.00    -0.355 N 
ATOM     27  C   UNL     1       3.541   2.159   4.917  0.00  0.00    +0.061 A 
ATOM     28  C   UNL     1       3.060   3.542   4.801  0.00  0.00    +0.027 A 
ATOM     29  C   UNL     1       3.928   4.563   4.949  0.00  0.00    +0.002 A 
ATOM     30  C   UNL     1       5.295   4.364   5.215  0.00  0.00    +0.002 A 
ATOM     31  C   UNL     1       5.839   3.137   5.340  0.00  0.00    +0.027 A 
ATOM     32  C   UNL     1       4.988   1.948   5.197  0.00  0.00    +0.061 A 
ATOM     33  N   UNL     1       5.232   0.671   5.265  0.00  0.00    -0.355 N 
ATOM     34  H   UNL     1       6.094   0.260   5.437  0.00  0.00    +0.162 HD
ATOM     35  H   UNL     1       2.005   0.857   4.645  0.00  0.00    +0.162 HD
ENDBRANCH  24  25
ENDBRANCH  23  24
ENDBRANCH   2  23
TORSDOF 6
