REMARK  Name = ZINC00828666
REMARK  8 active torsions:
REMARK  status: ('A' for Active; 'I' for Inactive)
REMARK    1  A    between atoms: C_1  and  C_2
REMARK    2  A    between atoms: C_4  and  C_27
REMARK    3  A    between atoms: C_5  and  C_24
REMARK    4  A    between atoms: C_6  and  C_23
REMARK    5  A    between atoms: C_7  and  C_8
REMARK    6  A    between atoms: C_11  and  C_22
REMARK    7  A    between atoms: C_17  and  N_21
REMARK    8  A    between atoms: C_18  and  C_19
REMARK                            x       y       z     vdW  Elec       q    Type
REMARK                         _______ _______ _______ _____ _____    ______ ____
ROOT
ATOM      1  C   UNL     1       1.040   3.778  -0.001  0.00  0.00    +0.102 C 
ATOM      2  C   UNL     1      -0.463   3.885  -0.031  0.00  0.00    +0.049 A 
ATOM      3  C   UNL     1      -1.263   5.019  -0.078  0.00  0.00    +0.068 A 
ATOM      4  N   UNL     1      -2.517   4.634  -0.091  0.00  0.00    -0.176 NA
ATOM      5  N   UNL     1      -2.549   3.231  -0.052  0.00  0.00    -0.246 N 
ATOM      6  H   UNL     1      -3.371   2.661  -0.052  0.00  0.00    +0.192 HD
ATOM      7  C   UNL     1      -1.281   2.791  -0.015  0.00  0.00    +0.222 A 
ATOM      8  O   UNL     1      -0.804   1.520   0.028  0.00  0.00    -0.423 OA
ATOM      9  C   UNL     1       0.497   1.354   0.342  0.00  0.00    +0.200 C 
ATOM     10  C   UNL     1       1.403   2.356   0.347  0.00  0.00    +0.098 C 
ATOM     11  C   UNL     1      -0.775   6.445  -0.109  0.00  0.00    +0.068 C 
ENDROOT
BRANCH   1  18
ATOM     12  C   UNL     1       0.004   2.497  -2.375  0.00  0.00    +0.044 C 
ATOM     13  C   UNL     1       1.108   3.517  -2.489  0.00  0.00    -0.046 A 
ATOM     14  C   UNL     1       1.621   3.844  -3.731  0.00  0.00    +0.007 A 
ATOM     15  C   UNL     1       2.636   4.776  -3.836  0.00  0.00    -0.044 A 
ATOM     16  C   UNL     1       3.136   5.385  -2.699  0.00  0.00    -0.009 A 
ATOM     17  C   UNL     1       2.619   5.062  -1.458  0.00  0.00    -0.040 A 
ATOM     18  C   UNL     1       1.603   4.130  -1.354  0.00  0.00    -0.028 A 
ATOM     19  C   UNL     1       3.163   5.726  -0.220  0.00  0.00    +0.044 C 
ATOM     20  C   UNL     1       3.200   5.128  -5.188  0.00  0.00    +0.044 C 
BRANCH  16  21
ATOM     21  C   UNL     1       4.243   6.400  -2.813  0.00  0.00    +0.202 C 
ATOM     22 CL   UNL     1       5.607   5.698  -3.760  0.00  0.00    -0.099 Cl
ATOM     23 CL   UNL     1       3.625   7.872  -3.651  0.00  0.00    -0.099 Cl
ENDBRANCH  16  21
ENDBRANCH   1  18
BRANCH   9  24
ATOM     24  N   UNL     1       0.926   0.092   0.669  0.00  0.00    -0.328 N 
ATOM     25  H   UNL     1       1.857  -0.060   0.895  0.00  0.00    +0.145 HD
ATOM     26  H   UNL     1       0.299  -0.648   0.673  0.00  0.00    +0.145 HD
ENDBRANCH   9  24
BRANCH  10  27
ATOM     27  C   UNL     1       2.760   2.057   0.696  0.00  0.00    +0.101 C 
ATOM     28  N   UNL     1       3.835   1.820   0.973  0.00  0.00    -0.191 NA
ENDBRANCH  10  27
TORSDOF 4
