REMARK  Name = ZINC10789949
REMARK  5 active torsions:
REMARK  status: ('A' for Active; 'I' for Inactive)
REMARK    1  A    between atoms: C_6  and  S_7
REMARK    2  A    between atoms: S_7  and  N_10
REMARK    3  A    between atoms: C_16  and  C_18
REMARK    4  A    between atoms: C_18  and  S_19
REMARK    5  A    between atoms: S_19  and  C_20
REMARK                            x       y       z     vdW  Elec       q    Type
REMARK                         _______ _______ _______ _____ _____    ______ ____
ROOT
ATOM      1  N   UNL     1       4.337  -1.074  -1.641  0.00  0.00    -0.174 NA
ATOM      2  C   UNL     1       3.904  -2.282  -2.356  0.00  0.00    +0.128 C 
ATOM      3  C   UNL     1       3.138  -1.851  -3.618  0.00  0.00    +0.125 C 
ATOM      4  N   UNL     1       3.943  -0.853  -4.337  0.00  0.00    -0.298 N 
ATOM      5  C   UNL     1       4.382   0.352  -3.620  0.00  0.00    +0.125 C 
ATOM      6  C   UNL     1       5.143  -0.076  -2.359  0.00  0.00    +0.128 C 
ATOM      7  C   UNL     1       4.274  -1.041  -5.630  0.00  0.00    +0.226 C 
ATOM      8  O   UNL     1       4.939  -0.211  -6.213  0.00  0.00    -0.275 OA
ENDROOT
BRANCH   1   9
ATOM      9  S   UNL     1       3.931  -0.843  -0.052  0.00  0.00    +0.061 S 
ATOM     10  O   UNL     1       4.904   0.038   0.492  0.00  0.00    -0.153 OA
ATOM     11  O   UNL     1       3.679  -2.131   0.494  0.00  0.00    -0.153 OA
BRANCH   9  17
ATOM     12  C   UNL     1       1.208  -0.680  -0.016  0.00  0.00    +0.032 A 
ATOM     13  C   UNL     1       0.002  -0.004   0.002  0.00  0.00    +0.051 A 
ATOM     14  C   UNL     1      -0.017   1.382   0.010  0.00  0.00    +0.162 A 
ATOM     15  C   UNL     1       1.180   2.090   0.002  0.00  0.00    +0.164 A 
ATOM     16  C   UNL     1       2.386   1.406  -0.017  0.00  0.00    +0.078 A 
ATOM     17  C   UNL     1       2.397   0.023  -0.027  0.00  0.00    +0.109 A 
ATOM     18  O   UNL     1       1.184   3.451   0.018  0.00  0.00    -0.485 OA
ATOM     19  C   UNL     1      -0.040   4.103  -0.340  0.00  0.00    +0.270 C 
ATOM     20  C   UNL     1      -1.188   3.413   0.408  0.00  0.00    +0.270 C 
ATOM     21  O   UNL     1      -1.211   2.034   0.019  0.00  0.00    -0.485 OA
ENDBRANCH   9  17
ENDBRANCH   1   9
BRANCH   7  22
ATOM     22  C   UNL     1       3.817  -2.283  -6.352  0.00  0.00    +0.172 C 
BRANCH  22  23
ATOM     23  S   UNL     1       4.417  -2.242  -8.063  0.00  0.00    -0.088 S 
BRANCH  23  24
ATOM     24  C   UNL     1       3.809  -3.740  -8.764  0.00  0.00    +0.160 A 
ATOM     25  N   UNL     1       3.084  -4.690  -8.205  0.00  0.00    -0.133 NA
ATOM     26  N   UNL     1       2.712  -5.790  -8.943  0.00  0.00    -0.125 NA
ATOM     27  C   UNL     1       3.081  -5.889 -10.205  0.00  0.00    +0.180 A 
ATOM     28  S   UNL     1       4.002  -4.374 -10.422  0.00  0.00    -0.025 S 
ATOM     29  N   UNL     1       2.820  -6.901 -11.122  0.00  0.00    -0.336 N 
ATOM     30  H   UNL     1       2.295  -7.672 -10.857  0.00  0.00    +0.144 HD
ATOM     31  H   UNL     1       3.162  -6.835 -12.027  0.00  0.00    +0.144 HD
ENDBRANCH  23  24
ENDBRANCH  22  23
ENDBRANCH   7  22
TORSDOF 5
