REMARK  Name = ZINC09292656
REMARK  9 active torsions:
REMARK  status: ('A' for Active; 'I' for Inactive)
REMARK    1  A    between atoms: C_1  and  C_2
REMARK    2  A    between atoms: C_2  and  O_3
REMARK    3  A    between atoms: O_3  and  C_4
REMARK    4  A    between atoms: C_7  and  C_12
REMARK    5  A    between atoms: C_9  and  O_10
REMARK    6  A    between atoms: O_10  and  C_11
REMARK    7  A    between atoms: C_19  and  N_35
REMARK    8  A    between atoms: C_20  and  C_33
REMARK    9  A    between atoms: C_21  and  C_23
REMARK                            x       y       z     vdW  Elec       q    Type
REMARK                         _______ _______ _______ _____ _____    ______ ____
ROOT
ATOM      1  C   UNL     1       0.972  -6.412  -1.889  0.00  0.00    +0.100 A 
ATOM      2  C   UNL     1       1.339  -7.173  -0.774  0.00  0.00    +0.054 A 
ATOM      3  C   UNL     1       1.436  -8.476  -1.165  0.00  0.00    +0.223 A 
ATOM      4  N   UNL     1       1.139  -8.534  -2.480  0.00  0.00    -0.246 N 
ATOM      5  H   UNL     1       1.127  -9.335  -3.027  0.00  0.00    +0.192 HD
ATOM      6  N   UNL     1       0.847  -7.232  -2.916  0.00  0.00    -0.171 NA
ATOM      7  O   UNL     1       1.779  -9.473  -0.311  0.00  0.00    -0.423 OA
ATOM      8  C   UNL     1       2.294  -9.122   0.884  0.00  0.00    +0.200 C 
ATOM      9  C   UNL     1       2.247  -7.867   1.384  0.00  0.00    +0.098 C 
ATOM     10  C   UNL     1       1.599  -6.725   0.641  0.00  0.00    +0.102 C 
ENDROOT
BRANCH  10  11
ATOM     11  C   UNL     1       0.298  -6.358   1.306  0.00  0.00    -0.034 A 
ATOM     12  C   UNL     1      -0.733  -7.294   1.361  0.00  0.00    +0.005 A 
ATOM     13  C   UNL     1      -1.921  -6.994   1.954  0.00  0.00    +0.009 A 
ATOM     14  C   UNL     1      -2.113  -5.723   2.522  0.00  0.00    -0.018 A 
ATOM     15  C   UNL     1      -3.326  -5.377   3.143  0.00  0.00    +0.008 A 
ATOM     16  C   UNL     1      -3.476  -4.137   3.682  0.00  0.00    +0.001 A 
ATOM     17  C   UNL     1      -2.445  -3.201   3.628  0.00  0.00    +0.001 A 
ATOM     18  C   UNL     1      -1.257  -3.501   3.034  0.00  0.00    +0.008 A 
ATOM     19  C   UNL     1      -1.065  -4.771   2.466  0.00  0.00    -0.018 A 
ATOM     20  C   UNL     1       0.149  -5.119   1.850  0.00  0.00    +0.013 A 
ENDBRANCH  10  11
BRANCH   1  24
ATOM     21  C   UNL     1       0.360  -2.200  -1.953  0.00  0.00    +0.162 A 
ATOM     22  C   UNL     1       1.432  -2.735  -1.254  0.00  0.00    +0.050 A 
ATOM     23  C   UNL     1       1.632  -4.100  -1.232  0.00  0.00    +0.014 A 
ATOM     24  C   UNL     1       0.757  -4.944  -1.912  0.00  0.00    +0.006 A 
ATOM     25  C   UNL     1      -0.320  -4.408  -2.615  0.00  0.00    +0.059 A 
ATOM     26  C   UNL     1      -0.521  -3.039  -2.630  0.00  0.00    +0.162 A 
BRANCH  26  27
ATOM     27  O   UNL     1      -1.574  -2.514  -3.311  0.00  0.00    -0.491 OA
ATOM     28  C   UNL     1      -2.437  -3.434  -3.982  0.00  0.00    +0.277 C 
ENDBRANCH  26  27
BRANCH  21  29
ATOM     29  O   UNL     1       0.166  -0.854  -1.973  0.00  0.00    -0.489 OA
BRANCH  29  31
ATOM     30  C   UNL     1       0.728   1.424  -1.394  0.00  0.00    +0.048 C 
ATOM     31  C   UNL     1       1.108  -0.052  -1.258  0.00  0.00    +0.226 C 
ENDBRANCH  29  31
ENDBRANCH  21  29
ENDBRANCH   1  24
BRANCH   8  32
ATOM     32  N   UNL     1       2.901 -10.096   1.638  0.00  0.00    -0.328 N 
ATOM     33  H   UNL     1       2.950 -11.006   1.306  0.00  0.00    +0.145 HD
ATOM     34  H   UNL     1       3.280  -9.874   2.503  0.00  0.00    +0.145 HD
ENDBRANCH   8  32
BRANCH   9  35
ATOM     35  C   UNL     1       2.832  -7.612   2.666  0.00  0.00    +0.101 C 
ATOM     36  N   UNL     1       3.297  -7.410   3.683  0.00  0.00    -0.191 NA
ENDBRANCH   9  35
TORSDOF 7
