REMARK  Name = ZINC09835098
REMARK  11 active torsions:
REMARK  status: ('A' for Active; 'I' for Inactive)
REMARK    1  A    between atoms: C_1  and  C_2
REMARK    2  A    between atoms: C_3  and  S_28
REMARK    3  A    between atoms: N_9  and  C_12
REMARK    4  A    between atoms: C_12  and  C_13
REMARK    5  A    between atoms: N_15  and  C_16
REMARK    6  A    between atoms: C_16  and  C_17
REMARK    7  A    between atoms: C_17  and  C_18
REMARK    8  A    between atoms: C_18  and  N_72
REMARK    9  A    between atoms: C_20  and  C_27
REMARK   10  A    between atoms: C_23  and  C_26
REMARK   11  A    between atoms: S_28  and  N_31
REMARK                            x       y       z     vdW  Elec       q    Type
REMARK                         _______ _______ _______ _____ _____    ______ ____
ROOT
ATOM      1  C   UNL     1       3.784   1.699   0.497  0.00  0.00    +0.053 C 
ATOM      2  C   UNL     1       2.367   1.265   0.222  0.00  0.00    +0.016 A 
ATOM      3  C   UNL     1       1.289   2.034   0.001  0.00  0.00    +0.130 A 
ATOM      4  C   UNL     1       0.007   1.401  -0.245  0.00  0.00    +0.099 A 
ATOM      5  C   UNL     1       0.024  -0.005  -0.226  0.00  0.00    +0.117 A 
ATOM      6  S   UNL     1       1.721  -0.393   0.113  0.00  0.00    -0.072 S 
ATOM      7  N   UNL     1      -1.075  -0.724  -0.435  0.00  0.00    -0.230 NA
ATOM      8  C   UNL     1      -2.223  -0.147  -0.669  0.00  0.00    +0.203 A 
ATOM      9  N   UNL     1      -2.335   1.206  -0.706  0.00  0.00    -0.290 N 
ATOM     10  C   UNL     1      -1.270   2.002  -0.499  0.00  0.00    +0.264 A 
ATOM     11  O   UNL     1      -1.387   3.215  -0.535  0.00  0.00    -0.267 OA
ENDROOT
BRANCH   3  12
ATOM     12  S   UNL     1       1.430   3.790   0.008  0.00  0.00    +0.062 S 
ATOM     13  O   UNL     1       0.183   4.296   0.463  0.00  0.00    -0.153 OA
ATOM     14  O   UNL     1       2.658   4.096   0.655  0.00  0.00    -0.153 OA
BRANCH  12  15
ATOM     15  N   UNL     1       1.592   4.275  -1.567  0.00  0.00    -0.177 NA
ATOM     16  C   UNL     1       2.922   4.399  -2.179  0.00  0.00    +0.109 C 
ATOM     17  C   UNL     1       2.942   3.573  -3.474  0.00  0.00    +0.017 C 
ATOM     18  C   UNL     1       1.791   4.022  -4.377  0.00  0.00    +0.003 C 
ATOM     19  C   UNL     1       0.458   3.773  -3.668  0.00  0.00    +0.017 C 
ATOM     20  C   UNL     1       0.409   4.596  -2.377  0.00  0.00    +0.109 C 
ENDBRANCH  12  15
ENDBRANCH   3  12
BRANCH   9  21
ATOM     21  C   UNL     1      -3.642   1.811  -0.971  0.00  0.00    +0.221 C 
BRANCH  21  22
ATOM     22  C   UNL     1      -4.366   2.035   0.332  0.00  0.00    +0.233 C 
ATOM     23  O   UNL     1      -3.841   1.720   1.379  0.00  0.00    -0.274 OA
ATOM     24  N   UNL     1      -5.596   2.585   0.334  0.00  0.00    -0.314 N 
ATOM     25  H   UNL     1      -6.016   2.837  -0.504  0.00  0.00    +0.149 HD
BRANCH  24  26
ATOM     26  C   UNL     1      -6.299   2.803   1.600  0.00  0.00    +0.102 C 
BRANCH  26  27
ATOM     27  C   UNL     1      -7.665   3.435   1.323  0.00  0.00    +0.000 C 
BRANCH  27  28
ATOM     28  C   UNL     1      -8.399   3.662   2.646  0.00  0.00    -0.077 C 
BRANCH  28  36
ATOM     29  C   UNL     1      -9.562   5.618   1.821  0.00  0.00    -0.076 C 
ATOM     30  C   UNL     1     -10.936   6.161   1.422  0.00  0.00    -0.031 C 
ATOM     31  C   UNL     1     -11.843   6.196   2.656  0.00  0.00    +0.003 C 
ATOM     32  C   UNL     1     -11.942   4.787   3.247  0.00  0.00    -0.031 C 
ATOM     33  C   UNL     1     -10.538   4.285   3.593  0.00  0.00    -0.076 C 
ATOM     34  C   UNL     1     -12.798   4.825   4.515  0.00  0.00    +0.005 C 
ATOM     35  C   UNL     1     -11.556   5.251   0.359  0.00  0.00    +0.005 C 
ATOM     36  N   UNL     1      -9.724   4.251   2.360  0.00  0.00    +0.380 N 
ATOM     37  H   UNL     1     -10.202   3.672   1.660  0.00  0.00    -0.082 HD
ENDBRANCH  28  36
ENDBRANCH  27  28
ENDBRANCH  26  27
ENDBRANCH  24  26
ENDBRANCH  21  22
ENDBRANCH   9  21
TORSDOF 8
