REMARK  Name = ZINC65107673
REMARK  6 active torsions:
REMARK  status: ('A' for Active; 'I' for Inactive)
REMARK    1  A    between atoms: C_1  and  C_2
REMARK    2  A    between atoms: C_2  and  C_3
REMARK    3  A    between atoms: C_2  and  N_9
REMARK    4  A    between atoms: N_7  and  C_8
REMARK    5  A    between atoms: C_10  and  C_12
REMARK    6  A    between atoms: C_14  and  C_18
REMARK                            x       y       z     vdW  Elec       q    Type
REMARK                         _______ _______ _______ _____ _____    ______ ____
ROOT
ATOM      1  C   UNL     1      -3.431  -1.152  -1.134  0.00  0.00    +0.135 A 
ATOM      2  C   UNL     1      -4.250  -1.347  -2.231  0.00  0.00    +0.075 A 
ATOM      3  C   UNL     1      -5.459  -1.844  -1.708  0.00  0.00    +0.107 A 
ATOM      4  N   UNL     1      -5.324  -1.921  -0.401  0.00  0.00    -0.172 NA
ATOM      5  N   UNL     1      -4.156  -1.531  -0.038  0.00  0.00    -0.271 N 
ATOM      6  H   UNL     1      -3.835  -1.507   0.877  0.00  0.00    +0.189 HD
ATOM      7 BR   UNL     1      -3.835  -1.018  -4.046  0.00  0.00    -0.046 Br
ENDROOT
BRANCH   3   8
ATOM      8  C   UNL     1      -6.666  -2.213  -2.488  0.00  0.00    +0.003 A 
ATOM      9  C   UNL     1      -7.007  -1.492  -3.631  0.00  0.00    +0.010 A 
ATOM     10  C   UNL     1      -8.131  -1.839  -4.353  0.00  0.00    +0.001 A 
ATOM     11  C   UNL     1      -8.919  -2.900  -3.944  0.00  0.00    +0.000 A 
ATOM     12  C   UNL     1      -8.585  -3.619  -2.810  0.00  0.00    +0.001 A 
ATOM     13  C   UNL     1      -7.460  -3.284  -2.084  0.00  0.00    +0.010 A 
ENDBRANCH   3   8
BRANCH   1  15
ATOM     14  N   UNL     1      -1.372  -0.511   0.012  0.00  0.00    -0.300 N 
ATOM     15  C   UNL     1      -2.051  -0.643  -1.145  0.00  0.00    +0.263 C 
ATOM     16  O   UNL     1      -1.522  -0.340  -2.197  0.00  0.00    -0.268 OA
ATOM     17  H   UNL     1      -1.794  -0.752   0.852  0.00  0.00    +0.150 HD
BRANCH  14  19
ATOM     18  C   UNL     1      -0.019   1.526   0.010  0.00  0.00    +0.036 C 
ATOM     19  C   UNL     1       0.002  -0.004   0.002  0.00  0.00    +0.138 C 
BRANCH  19  20
ATOM     20  C   UNL     1       0.731  -0.503   1.223  0.00  0.00    +0.153 A 
ATOM     21  N   UNL     1       0.271  -0.523   2.444  0.00  0.00    -0.133 NA
ATOM     22  N   UNL     1       1.159  -1.015   3.233  0.00  0.00    -0.138 NA
ATOM     23  C   UNL     1       2.226  -1.331   2.551  0.00  0.00    +0.224 A 
ATOM     24  N   UNL     1       1.983  -1.020   1.255  0.00  0.00    -0.319 N 
ATOM     25  C   UNL     1       2.890  -1.204   0.120  0.00  0.00    +0.151 C 
ENDBRANCH  19  20
ENDBRANCH  14  19
ENDBRANCH   1  15
TORSDOF 4
