REMARK  Name = ZINC03370061
REMARK  5 active torsions:
REMARK  status: ('A' for Active; 'I' for Inactive)
REMARK    1  A    between atoms: C_1  and  C_2
REMARK    2  A    between atoms: C_2  and  C_4
REMARK    3  A    between atoms: C_2  and  N_10
REMARK    4  A    between atoms: C_11  and  C_13
REMARK    5  A    between atoms: C_13  and  N_14
REMARK                            x       y       z     vdW  Elec       q    Type
REMARK                         _______ _______ _______ _____ _____    ______ ____
ROOT
ATOM      1  N   UNL     1      -4.787  -0.047  -2.419  0.00  0.00    -0.215 N 
ATOM      2  C   UNL     1      -3.658  -0.695  -2.067  0.00  0.00    +0.247 C 
ATOM      3  O   UNL     1      -3.358  -1.843  -2.315  0.00  0.00    -0.273 OA
ATOM      4  C   UNL     1      -2.837   0.315  -1.291  0.00  0.00    +0.113 C 
ATOM      5  C   UNL     1      -1.460   0.464  -1.931  0.00  0.00    +0.035 C 
ATOM      6  C   UNL     1      -0.680   1.597  -1.261  0.00  0.00    +0.003 C 
ATOM      7  C   UNL     1      -0.013   1.091   0.008  0.00  0.00    +0.000 C 
ATOM      8  C   UNL     1      -0.661   1.589   1.286  0.00  0.00    +0.000 C 
ATOM      9  C   UNL     1      -2.075   2.112   1.104  0.00  0.00    +0.000 C 
ATOM     10  C   UNL     1      -3.103   0.985   1.114  0.00  0.00    +0.003 C 
ATOM     11  C   UNL     1      -2.707  -0.139   0.160  0.00  0.00    +0.035 C 
ATOM     12  N   UNL     1      -3.611   1.553  -1.400  0.00  0.00    -0.285 N 
ATOM     13  C   UNL     1      -4.761   1.232  -2.026  0.00  0.00    +0.310 C 
ATOM     14  O   UNL     1      -5.666   2.019  -2.221  0.00  0.00    -0.252 OA
ATOM     15  H   UNL     1      -3.358   2.439  -1.096  0.00  0.00    +0.151 HD
ENDROOT
BRANCH   1  16
ATOM     16  C   UNL     1      -5.903  -0.665  -3.139  0.00  0.00    +0.213 C 
BRANCH  16  18
ATOM     17  N   UNL     1      -6.599  -1.002  -5.489  0.00  0.00    -0.307 N 
ATOM     18  C   UNL     1      -5.692  -0.507  -4.623  0.00  0.00    +0.231 C 
ATOM     19  O   UNL     1      -4.707   0.064  -5.038  0.00  0.00    -0.274 OA
ATOM     20  H   UNL     1      -7.387  -1.460  -5.157  0.00  0.00    +0.149 HD
BRANCH  17  22
ATOM     21  C   UNL     1      -6.926   0.513  -7.380  0.00  0.00    +0.033 C 
ATOM     22  C   UNL     1      -6.394  -0.850  -6.931  0.00  0.00    +0.100 C 
BRANCH  22  23
ATOM     23  C   UNL     1      -7.131  -1.942  -7.662  0.00  0.00    -0.027 A 
ATOM     24  C   UNL     1      -8.386  -2.336  -7.234  0.00  0.00    +0.005 A 
ATOM     25  C   UNL     1      -9.063  -3.335  -7.907  0.00  0.00    +0.000 A 
ATOM     26  C   UNL     1      -8.483  -3.947  -9.002  0.00  0.00    +0.000 A 
ATOM     27  C   UNL     1      -7.227  -3.558  -9.427  0.00  0.00    +0.000 A 
ATOM     28  C   UNL     1      -6.551  -2.555  -8.757  0.00  0.00    +0.005 A 
ENDBRANCH  22  23
ENDBRANCH  17  22
ENDBRANCH  16  18
ENDBRANCH   1  16
TORSDOF 4
