REMARK  Name = ZINC39353141
REMARK  4 active torsions:
REMARK  status: ('A' for Active; 'I' for Inactive)
REMARK    1  A    between atoms: C_3  and  N_8
REMARK    2  A    between atoms: C_12  and  C_13
REMARK    3  A    between atoms: C_16  and  S_18
REMARK    4  A    between atoms: S_18  and  C_19
REMARK                            x       y       z     vdW  Elec       q    Type
REMARK                         _______ _______ _______ _____ _____    ______ ____
ROOT
ATOM      1  N   UNL     1       4.725   1.009  -2.051  0.00  0.00    -0.216 N 
ATOM      2  C   UNL     1       5.670   0.722  -1.130  0.00  0.00    +0.262 C 
ATOM      3  O   UNL     1       5.553  -0.237  -0.388  0.00  0.00    -0.269 OA
ATOM      4  C   UNL     1       6.844   1.601  -1.050  0.00  0.00    +0.105 C 
ATOM      5  C   UNL     1       7.866   1.367  -0.120  0.00  0.00    +0.064 C 
ATOM      6  C   UNL     1       6.906   2.698  -1.951  0.00  0.00    +0.274 C 
ATOM      7  O   UNL     1       7.959   3.543  -1.929  0.00  0.00    -0.268 OA
ATOM      8  N   UNL     1       5.919   2.880  -2.813  0.00  0.00    -0.153 NA
ATOM      9  C   UNL     1       4.869   2.066  -2.868  0.00  0.00    +0.171 C 
ATOM     10  S   UNL     1       3.646   2.381  -4.023  0.00  0.00    -0.016 S 
ENDROOT
BRANCH   1  13
ATOM     11  C   UNL     1       1.437  -0.486  -1.352  0.00  0.00    +0.003 A 
ATOM     12  C   UNL     1       2.556   0.317  -1.242  0.00  0.00    +0.024 A 
ATOM     13  C   UNL     1       3.590   0.195  -2.160  0.00  0.00    +0.045 A 
ATOM     14  C   UNL     1       3.496  -0.734  -3.188  0.00  0.00    +0.044 A 
ATOM     15  C   UNL     1       2.374  -1.535  -3.293  0.00  0.00    +0.043 A 
ATOM     16  C   UNL     1       1.346  -1.410  -2.375  0.00  0.00    +0.020 A 
ATOM     17 CL   UNL     1       2.255  -2.697  -4.577  0.00  0.00    -0.083 Cl
ENDBRANCH   1  13
BRANCH   5  18
ATOM     18  C   UNL     1       8.850   2.329   0.090  0.00  0.00    +0.130 A 
ATOM     19  C   UNL     1      10.207   2.081   0.299  0.00  0.00    +0.050 A 
ATOM     20  C   UNL     1      10.819   3.315   0.461  0.00  0.00    +0.057 A 
ATOM     21  C   UNL     1       9.832   4.279   0.348  0.00  0.00    +0.165 A 
ATOM     22  O   UNL     1       8.659   3.668   0.121  0.00  0.00    -0.449 OA
BRANCH  21  23
ATOM     23  S   UNL     1      10.077   6.019   0.475  0.00  0.00    -0.046 S 
BRANCH  23  24
ATOM     24  C   UNL     1      10.039   6.338   2.261  0.00  0.00    +0.240 C 
ATOM     25  N   UNL     1       8.709   5.973   2.821  0.00  0.00    -0.275 NA
ATOM     26  C   UNL     1       8.928   4.566   3.187  0.00  0.00    +0.128 C 
ATOM     27  C   UNL     1       7.958   4.127   4.250  0.00  0.00    -0.002 C 
ATOM     28  C   UNL     1       8.439   3.327   5.214  0.00  0.00    -0.002 C 
ATOM     29  C   UNL     1       9.836   2.908   5.231  0.00  0.00    +0.002 C 
ATOM     30  C   UNL     1      10.782   3.460   4.439  0.00  0.00    +0.025 C 
ATOM     31  C   UNL     1      10.409   4.481   3.514  0.00  0.00    +0.060 C 
ATOM     32  N   UNL     1      11.013   5.477   2.951  0.00  0.00    -0.256 NA
ATOM     33  H   UNL     1       8.494   6.529   3.634  0.00  0.00    +0.126 HD
ENDBRANCH  23  24
ENDBRANCH  21  23
ENDBRANCH   5  18
TORSDOF 4
