REMARK  Name = ZINC13575323
REMARK  6 active torsions:
REMARK  status: ('A' for Active; 'I' for Inactive)
REMARK    1  A    between atoms: C_1  and  N_2
REMARK    2  A    between atoms: C_5  and  C_23
REMARK    3  A    between atoms: C_8  and  C_13
REMARK    4  A    between atoms: C_26  and  O_29
REMARK    5  A    between atoms: O_29  and  C_30
REMARK    6  A    between atoms: N_33  and  C_36
REMARK                            x       y       z     vdW  Elec       q    Type
REMARK                         _______ _______ _______ _____ _____    ______ ____
ROOT
ATOM      1  C   UNL     1      -6.786  -1.905  -0.870  0.00  0.00    +0.154 C 
ATOM      2  N   UNL     1      -5.481  -1.591  -1.456  0.00  0.00    -0.294 N 
ATOM      3  C   UNL     1      -4.666  -0.579  -0.925  0.00  0.00    +0.083 A 
ATOM      4  C   UNL     1      -3.356  -0.303  -1.566  0.00  0.00    +0.089 A 
ATOM      5  C   UNL     1      -2.779   0.715  -0.851  0.00  0.00    +0.064 A 
ATOM      6  N   UNL     1      -3.644   1.060   0.144  0.00  0.00    -0.337 N 
ATOM      7  C   UNL     1      -4.779   0.270   0.088  0.00  0.00    +0.077 A 
ATOM      8  C   UNL     1      -5.922   0.418   1.068  0.00  0.00    +0.199 C 
ATOM      9  O   UNL     1      -5.457   1.206   2.171  0.00  0.00    -0.364 OA
ATOM     10  C   UNL     1      -4.813   2.423   1.786  0.00  0.00    +0.182 C 
ATOM     11  C   UNL     1      -3.451   2.109   1.154  0.00  0.00    +0.150 C 
ATOM     12  C   UNL     1      -2.951  -1.093  -2.733  0.00  0.00    +0.266 A 
ATOM     13  O   UNL     1      -1.889  -0.917  -3.300  0.00  0.00    -0.267 OA
ATOM     14  N   UNL     1      -3.842  -2.034  -3.138  0.00  0.00    -0.263 N 
ATOM     15  C   UNL     1      -5.016  -2.253  -2.539  0.00  0.00    +0.332 A 
ATOM     16  O   UNL     1      -5.723  -3.127  -3.002  0.00  0.00    -0.246 OA
ATOM     17  C   UNL     1      -3.496  -2.858  -4.299  0.00  0.00    +0.157 C 
ENDROOT
BRANCH   8  18
ATOM     18  C   UNL     1      -6.351  -0.941   1.558  0.00  0.00    +0.012 A 
ATOM     19  C   UNL     1      -5.555  -1.999   1.779  0.00  0.00    +0.090 A 
ATOM     20  N   UNL     1      -6.299  -3.059   2.220  0.00  0.00    -0.360 N 
ATOM     21  H   UNL     1      -5.944  -3.934   2.445  0.00  0.00    +0.165 HD
ATOM     22  C   UNL     1      -7.626  -2.700   2.296  0.00  0.00    +0.047 A 
ATOM     23  C   UNL     1      -7.716  -1.356   1.891  0.00  0.00    +0.006 A 
ATOM     24  C   UNL     1      -8.957  -0.716   1.873  0.00  0.00    +0.010 A 
ATOM     25  C   UNL     1     -10.078  -1.398   2.253  0.00  0.00    +0.001 A 
ATOM     26  C   UNL     1      -9.994  -2.723   2.657  0.00  0.00    +0.002 A 
ATOM     27  C   UNL     1      -8.781  -3.377   2.675  0.00  0.00    +0.026 A 
ENDBRANCH   8  18
BRANCH   5  28
ATOM     28  C   UNL     1      -1.464   1.329  -1.115  0.00  0.00    -0.000 A 
ATOM     29  C   UNL     1      -0.355   0.522  -1.382  0.00  0.00    +0.013 A 
ATOM     30  C   UNL     1       0.871   1.101  -1.634  0.00  0.00    +0.046 A 
ATOM     31  C   UNL     1       1.005   2.483  -1.616  0.00  0.00    +0.120 A 
ATOM     32  C   UNL     1      -0.094   3.289  -1.345  0.00  0.00    +0.046 A 
ATOM     33  C   UNL     1      -1.323   2.719  -1.093  0.00  0.00    +0.013 A 
BRANCH  31  34
ATOM     34  O   UNL     1       2.215   3.049  -1.864  0.00  0.00    -0.495 OA
ATOM     35  C   UNL     1       2.283   4.476  -1.830  0.00  0.00    +0.277 C 
ENDBRANCH  31  34
ENDBRANCH   5  28
TORSDOF 3
