REMARK  Name = ZINC03263970
REMARK  5 active torsions:
REMARK  status: ('A' for Active; 'I' for Inactive)
REMARK    1  A    between atoms: C_1  and  C_2
REMARK    2  A    between atoms: C_5  and  C_16
REMARK    3  A    between atoms: N_8  and  C_10
REMARK    4  A    between atoms: C_16  and  O_18
REMARK    5  A    between atoms: O_18  and  N_19
REMARK                            x       y       z     vdW  Elec       q    Type
REMARK                         _______ _______ _______ _____ _____    ______ ____
ROOT
ATOM      1  C   UNL     1       7.101   2.592   0.915  0.00  0.00    +0.068 C 
ATOM      2  C   UNL     1       5.687   2.642   0.397  0.00  0.00    +0.069 A 
ATOM      3  C   UNL     1       5.135   3.687  -0.413  0.00  0.00    +0.031 A 
ATOM      4  C   UNL     1       5.530   4.901  -0.996  0.00  0.00    +0.034 A 
ATOM      5  C   UNL     1       4.635   5.620  -1.732  0.00  0.00    +0.101 A 
ATOM      6  S   UNL     1       3.162   4.616  -1.645  0.00  0.00    -0.062 S 
ATOM      7  C   UNL     1       3.807   3.298  -0.647  0.00  0.00    +0.113 A 
ATOM      8  N   UNL     1       3.585   2.124  -0.021  0.00  0.00    -0.225 N 
ATOM      9  N   UNL     1       4.774   1.744   0.615  0.00  0.00    -0.170 NA
ENDROOT
BRANCH   8  10
ATOM     10  C   UNL     1       2.381   1.409  -0.014  0.00  0.00    +0.067 A 
ATOM     11  C   UNL     1       1.169   2.087   0.002  0.00  0.00    +0.028 A 
ATOM     12  C   UNL     1      -0.017   1.379   0.010  0.00  0.00    +0.002 A 
ATOM     13  C   UNL     1       0.002  -0.004   0.002  0.00  0.00    +0.000 A 
ATOM     14  C   UNL     1       1.207  -0.682  -0.013  0.00  0.00    +0.002 A 
ATOM     15  C   UNL     1       2.396   0.020  -0.021  0.00  0.00    +0.028 A 
ENDBRANCH   8  10
BRANCH   5  16
ATOM     16  C   UNL     1       4.832   6.897  -2.421  0.00  0.00    +0.373 C 
ATOM     17  O   UNL     1       5.915   7.451  -2.376  0.00  0.00    -0.242 OA
BRANCH  16  18
ATOM     18  O   UNL     1       3.816   7.458  -3.105  0.00  0.00    -0.310 OA
BRANCH  18  19
ATOM     19  N   UNL     1       4.040   8.520  -3.657  0.00  0.00    -0.064 NA
ATOM     20  C   UNL     1       3.106   9.110  -4.329  0.00  0.00    +0.135 C 
ATOM     21  C   UNL     1       1.784   8.531  -4.442  0.00  0.00    +0.075 C 
ATOM     22  C   UNL     1       1.319   8.392  -5.899  0.00  0.00    +0.008 C 
ATOM     23  C   UNL     1       0.865   9.758  -6.332  0.00  0.00    +0.002 C 
ATOM     24  C   UNL     1       1.966  10.552  -7.079  0.00  0.00    +0.019 C 
ATOM     25  C   UNL     1       3.334  10.334  -6.412  0.00  0.00    +0.103 C 
ATOM     26  N   UNL     1       3.337  10.342  -4.973  0.00  0.00    -0.330 N 
ATOM     27  H   UNL     1       3.514  11.281  -4.429  0.00  0.00    +0.147 HD
ENDBRANCH  18  19
ENDBRANCH  16  18
ENDBRANCH   5  16
TORSDOF 4
