REMARK  Name = ZINC05883972
REMARK  10 active torsions:
REMARK  status: ('A' for Active; 'I' for Inactive)
REMARK    1  A    between atoms: C_1  and  C_2
REMARK    2  A    between atoms: C_2  and  O_3
REMARK    3  A    between atoms: O_3  and  C_4
REMARK    4  A    between atoms: C_4  and  C_6
REMARK    5  A    between atoms: N_11  and  S_12
REMARK    6  A    between atoms: S_12  and  C_15
REMARK    7  A    between atoms: C_18  and  C_21
REMARK    8  A    between atoms: C_30  and  C_32
REMARK    9  A    between atoms: C_35  and  O_38
REMARK   10  A    between atoms: O_38  and  C_39
REMARK                            x       y       z     vdW  Elec       q    Type
REMARK                         _______ _______ _______ _____ _____    ______ ____
ROOT
ATOM      1  C   UNL     1       2.357   4.595   2.407  0.00  0.00    +0.193 C 
ATOM      2  C   UNL     1       1.873   4.961   3.811  0.00  0.00    -0.008 C 
ATOM      3  C   UNL     1       0.450   4.381   3.891  0.00  0.00    +0.025 C 
ATOM      4  C   UNL     1      -0.039   4.569   2.428  0.00  0.00    +0.111 C 
ATOM      5  N   UNL     1       1.155   4.329   1.596  0.00  0.00    -0.162 NA
ATOM      6  C   UNL     1       2.778   4.343   4.896  0.00  0.00    -0.018 C 
ATOM      7  C   UNL     1       1.873   3.955   6.068  0.00  0.00    +0.002 C 
ATOM      8  C   UNL     1       2.692   3.720   7.335  0.00  0.00    +0.000 C 
ATOM      9  C   UNL     1       3.393   5.031   7.711  0.00  0.00    -0.002 C 
ATOM     10  C   UNL     1       4.373   5.386   6.593  0.00  0.00    -0.015 C 
ATOM     11  C   UNL     1       3.670   5.543   5.268  0.00  0.00    -0.067 C 
ATOM     12  C   UNL     1       1.883   6.469   4.052  0.00  0.00    -0.032 C 
ATOM     13  N   UNL     1       2.759   6.680   5.211  0.00  0.00    +0.386 N 
ATOM     14  H   UNL     1       3.289   7.552   5.098  0.00  0.00    -0.085 HD
ATOM     15  H   UNL     1       2.200   6.728   6.071  0.00  0.00    -0.085 HD
ENDROOT
BRANCH  12  16
ATOM     16  C   UNL     1       0.486   6.955   4.340  0.00  0.00    -0.061 A 
ATOM     17  C   UNL     1      -0.054   6.793   5.603  0.00  0.00    +0.005 A 
ATOM     18  C   UNL     1      -1.332   7.243   5.872  0.00  0.00    +0.046 A 
ATOM     19  C   UNL     1      -2.079   7.848   4.871  0.00  0.00    +0.120 A 
ATOM     20  C   UNL     1      -1.537   8.004   3.603  0.00  0.00    +0.046 A 
ATOM     21  C   UNL     1      -0.256   7.557   3.341  0.00  0.00    +0.005 A 
BRANCH  19  22
ATOM     22  O   UNL     1      -3.338   8.286   5.132  0.00  0.00    -0.495 OA
ATOM     23  C   UNL     1      -3.831   8.092   6.459  0.00  0.00    +0.277 C 
ENDBRANCH  19  22
ENDBRANCH  12  16
BRANCH   5  24
ATOM     24  S   UNL     1       1.147   3.847   0.011  0.00  0.00    +0.062 S 
ATOM     25  O   UNL     1       2.382   4.273  -0.549  0.00  0.00    -0.153 OA
ATOM     26  O   UNL     1      -0.109   4.239  -0.526  0.00  0.00    -0.153 OA
BRANCH  24  27
ATOM     27  C   UNL     1       1.171   2.086   0.002  0.00  0.00    +0.106 A 
ATOM     28  C   UNL     1      -0.017   1.378   0.010  0.00  0.00    +0.029 A 
ATOM     29  C   UNL     1       0.002  -0.004   0.002  0.00  0.00    +0.005 A 
ATOM     30  C   UNL     1       1.208  -0.679  -0.014  0.00  0.00    -0.050 A 
ATOM     31  C   UNL     1       2.396   0.029  -0.021  0.00  0.00    +0.005 A 
ATOM     32  C   UNL     1       2.377   1.411  -0.014  0.00  0.00    +0.029 A 
ATOM     33  C   UNL     1       1.229  -2.186  -0.022  0.00  0.00    +0.044 C 
ENDBRANCH  24  27
ENDBRANCH   5  24
BRANCH   1  34
ATOM     34  C   UNL     1       3.222   3.363   2.464  0.00  0.00    +0.327 C 
ATOM     35  O   UNL     1       2.754   2.283   2.193  0.00  0.00    -0.249 OA
BRANCH  34  36
ATOM     36  O   UNL     1       4.513   3.466   2.817  0.00  0.00    -0.464 OA
BRANCH  36  38
ATOM     37  C   UNL     1       6.724   2.552   3.271  0.00  0.00    +0.048 C 
ATOM     38  C   UNL     1       5.287   2.238   2.851  0.00  0.00    +0.229 C 
ENDBRANCH  36  38
ENDBRANCH  34  36
ENDBRANCH   1  34
TORSDOF 7
