REMARK  Name = ZINC11866951
REMARK  5 active torsions:
REMARK  status: ('A' for Active; 'I' for Inactive)
REMARK    1  A    between atoms: C_1  and  C_2
REMARK    2  A    between atoms: C_6  and  O_8
REMARK    3  A    between atoms: O_8  and  C_9
REMARK    4  A    between atoms: C_9  and  C_10
REMARK    5  A    between atoms: C_15  and  O_23
REMARK                            x       y       z     vdW  Elec       q    Type
REMARK                         _______ _______ _______ _____ _____    ______ ____
ROOT
ATOM      1  C   UNL     1      -2.429  -2.893   0.011  0.00  0.00    +0.044 C 
ATOM      2  C   UNL     1      -1.141  -2.112   0.003  0.00  0.00    -0.043 A 
ATOM      3  C   UNL     1      -1.179  -0.732   0.009  0.00  0.00    +0.050 A 
ATOM      4  C   UNL     1       0.002  -0.004   0.002  0.00  0.00    +0.143 A 
ATOM      5  C   UNL     1       1.233  -0.681  -0.012  0.00  0.00    +0.063 A 
ATOM      6  C   UNL     1       1.261  -2.084  -0.018  0.00  0.00    +0.132 A 
ATOM      7  C   UNL     1       0.069  -2.787  -0.010  0.00  0.00    +0.050 A 
ATOM      8  C   UNL     1       2.480   0.095  -0.021  0.00  0.00    -0.023 A 
ATOM      9  C   UNL     1       2.395   1.443  -0.018  0.00  0.00    +0.041 A 
ATOM     10  C   UNL     1       1.118   2.058   0.002  0.00  0.00    +0.341 A 
ATOM     11  O   UNL     1       1.051   3.274   0.013  0.00  0.00    -0.245 OA
ATOM     12  O   UNL     1      -0.016   1.346   0.009  0.00  0.00    -0.422 OA
ATOM     13  C   UNL     1       3.608   2.333  -0.036  0.00  0.00    +0.042 C 
ATOM     14  C   UNL     1       4.854   1.555   0.382  0.00  0.00    +0.005 C 
ATOM     15  C   UNL     1       4.927   0.274  -0.458  0.00  0.00    +0.005 C 
ATOM     16  C   UNL     1       3.787  -0.647  -0.026  0.00  0.00    +0.036 C 
ENDROOT
BRANCH   6  17
ATOM     17  O   UNL     1       2.445  -2.746  -0.032  0.00  0.00    -0.482 OA
BRANCH  17  18
ATOM     18  C   UNL     1       2.391  -4.174  -0.038  0.00  0.00    +0.324 C 
BRANCH  18  19
ATOM     19  C   UNL     1       3.792  -4.730  -0.054  0.00  0.00    +0.253 C 
ATOM     20  O   UNL     1       4.743  -3.977  -0.059  0.00  0.00    -0.272 OA
ATOM     21  N   UNL     1       3.987  -6.063  -0.062  0.00  0.00    -0.298 N 
ATOM     22  C   UNL     1       2.846  -6.988  -0.049  0.00  0.00    +0.110 C 
ATOM     23  C   UNL     1       2.993  -7.959  -1.231  0.00  0.00    +0.054 C 
ATOM     24  C   UNL     1       4.358  -8.648  -1.153  0.00  0.00    +0.072 C 
ATOM     25  C   UNL     1       4.488  -9.639  -2.312  0.00  0.00    +0.035 C 
ATOM     26  C   UNL     1       5.852 -10.328  -2.247  0.00  0.00    +0.003 C 
ATOM     27  C   UNL     1       6.958  -9.276  -2.351  0.00  0.00    +0.001 C 
ATOM     28  C   UNL     1       6.832  -8.289  -1.190  0.00  0.00    +0.008 C 
ATOM     29  C   UNL     1       5.467  -7.598  -1.251  0.00  0.00    +0.038 C 
ATOM     30  C   UNL     1       5.346  -6.621  -0.077  0.00  0.00    +0.114 C 
BRANCH  24  31
ATOM     31  O   UNL     1       4.471  -9.347   0.087  0.00  0.00    -0.388 OA
ATOM     32  H   UNL     1       3.798 -10.030   0.217  0.00  0.00    +0.210 HD
ENDBRANCH  24  31
ENDBRANCH  18  19
ENDBRANCH  17  18
ENDBRANCH   6  17
TORSDOF 4
