REMARK  Name = ZINC14473666
REMARK  2 active torsions:
REMARK  status: ('A' for Active; 'I' for Inactive)
REMARK    1  A    between atoms: C_4  and  O_25
REMARK    2  A    between atoms: C_5  and  C_7
REMARK                            x       y       z     vdW  Elec       q    Type
REMARK                         _______ _______ _______ _____ _____    ______ ____
ROOT
ATOM      1  C   UNL     1      -2.557   3.865   0.048  0.00  0.00    +0.108 C 
ATOM      2  C   UNL     1      -2.902   4.274   1.464  0.00  0.00    +0.029 C 
ATOM      3  C   UNL     1      -1.975   5.279   2.149  0.00  0.00    +0.033 C 
ATOM      4  C   UNL     1      -2.950   5.959   3.114  0.00  0.00    -0.030 C 
ATOM      5  C   UNL     1      -4.186   5.892   2.631  0.00  0.00    -0.023 C 
ATOM      6  C   UNL     1      -4.141   5.211   1.313  0.00  0.00    +0.049 C 
ATOM      7  C   UNL     1      -5.251   4.371   0.812  0.00  0.00    -0.017 A 
ATOM      8  C   UNL     1      -6.563   4.624   1.155  0.00  0.00    +0.026 A 
ATOM      9  C   UNL     1      -7.585   3.845   0.644  0.00  0.00    +0.043 A 
ATOM     10  C   UNL     1      -7.285   2.803  -0.217  0.00  0.00    +0.041 A 
ATOM     11  C   UNL     1      -5.976   2.539  -0.557  0.00  0.00    +0.063 A 
ATOM     12  C   UNL     1      -4.933   3.314  -0.044  0.00  0.00    +0.050 A 
ATOM     13  N   UNL     1      -3.633   2.976  -0.420  0.00  0.00    -0.335 N 
ATOM     14 CL   UNL     1      -5.619   1.227  -1.636  0.00  0.00    -0.082 Cl
ATOM     15 CL   UNL     1      -9.233   4.172   1.079  0.00  0.00    -0.083 Cl
ATOM     16  H   UNL     1      -3.572   2.827  -1.416  0.00  0.00    +0.147 HD
ENDROOT
BRANCH   1  21
ATOM     17  C   UNL     1      -0.013   1.076   0.008  0.00  0.00    +0.001 A 
ATOM     18  C   UNL     1       1.176   1.782   0.000  0.00  0.00    +0.004 A 
ATOM     19  C   UNL     1       1.160   3.163   0.007  0.00  0.00    +0.046 A 
ATOM     20  C   UNL     1      -0.050   3.842   0.023  0.00  0.00    +0.122 A 
ATOM     21  C   UNL     1      -1.241   3.131   0.031  0.00  0.00    +0.014 A 
ATOM     22  C   UNL     1      -1.220   1.750   0.017  0.00  0.00    +0.009 A 
BRANCH  20  23
ATOM     23  O   UNL     1      -0.069   5.201   0.030  0.00  0.00    -0.506 OA
ATOM     24  H   UNL     1      -0.082   5.599  -0.851  0.00  0.00    +0.292 HD
ENDBRANCH  20  23
ENDBRANCH   1  21
TORSDOF 2
