REMARK  Name = ZINC39732638
REMARK  9 active torsions:
REMARK  status: ('A' for Active; 'I' for Inactive)
REMARK    1  A    between atoms: C_1  and  O_2
REMARK    2  A    between atoms: O_2  and  C_3
REMARK    3  A    between atoms: C_11  and  C_27
REMARK    4  A    between atoms: C_13  and  C_25
REMARK    5  A    between atoms: C_14  and  N_24
REMARK    6  A    between atoms: C_18  and  O_22
REMARK    7  A    between atoms: C_19  and  O_20
REMARK    8  A    between atoms: O_20  and  C_21
REMARK    9  A    between atoms: O_22  and  C_23
REMARK                            x       y       z     vdW  Elec       q    Type
REMARK                         _______ _______ _______ _____ _____    ______ ____
ROOT
ATOM      1  C   UNL     1       0.625  -0.617   1.039  0.00  0.00    +0.167 A 
ATOM      2  C   UNL     1       1.194   0.154   2.037  0.00  0.00    +0.073 A 
ATOM      3  C   UNL     1       1.841  -0.455   3.115  0.00  0.00    +0.051 A 
ATOM      4  N   UNL     1       2.380   0.302   4.083  0.00  0.00    -0.284 N 
ATOM      5  C   UNL     1       3.023  -0.187   5.122  0.00  0.00    +0.229 C 
ATOM      6  O   UNL     1       3.483   0.564   5.964  0.00  0.00    -0.275 OA
ATOM      7  C   UNL     1       3.192  -1.683   5.269  0.00  0.00    +0.154 C 
ATOM      8  C   UNL     1       2.520  -2.089   6.585  0.00  0.00    +0.084 C 
ATOM      9  C   UNL     1       2.418  -3.587   6.662  0.00  0.00    +0.095 C 
ATOM     10  C   UNL     1       2.464  -4.383   5.572  0.00  0.00    +0.198 C 
ATOM     11  O   UNL     1       2.626  -3.879   4.325  0.00  0.00    -0.444 OA
ATOM     12  C   UNL     1       2.567  -2.549   4.189  0.00  0.00    +0.133 C 
ATOM     13  C   UNL     1       1.904  -1.924   3.155  0.00  0.00    +0.080 A 
ATOM     14  C   UNL     1       1.302  -2.672   2.112  0.00  0.00    +0.177 A 
ATOM     15  C   UNL     1       0.671  -2.013   1.079  0.00  0.00    +0.204 A 
ATOM     16  H   UNL     1       2.289   1.265   4.014  0.00  0.00    +0.155 HD
ENDROOT
BRANCH   8  17
ATOM     17  C   UNL     1       3.339  -1.583   7.743  0.00  0.00    -0.038 A 
ATOM     18  C   UNL     1       4.651  -1.991   7.893  0.00  0.00    +0.004 A 
ATOM     19  C   UNL     1       5.403  -1.526   8.956  0.00  0.00    +0.000 A 
ATOM     20  C   UNL     1       4.843  -0.653   9.869  0.00  0.00    +0.000 A 
ATOM     21  C   UNL     1       3.531  -0.244   9.720  0.00  0.00    +0.000 A 
ATOM     22  C   UNL     1       2.781  -0.705   8.654  0.00  0.00    +0.004 A 
ENDBRANCH   8  17
BRANCH  10  23
ATOM     23  N   UNL     1       2.344  -5.741   5.731  0.00  0.00    -0.328 N 
ATOM     24  H   UNL     1       2.228  -6.117   6.618  0.00  0.00    +0.145 HD
ATOM     25  H   UNL     1       2.376  -6.325   4.958  0.00  0.00    +0.145 HD
ENDBRANCH  10  23
BRANCH   1  27
ATOM     26  C   UNL     1      -0.017   1.425   0.010  0.00  0.00    +0.277 C 
ATOM     27  O   UNL     1       0.002  -0.004   0.002  0.00  0.00    -0.491 OA
ENDBRANCH   1  27
BRANCH  15  28
ATOM     28  O   UNL     1       0.090  -2.732   0.079  0.00  0.00    -0.488 OA
ATOM     29  C   UNL     1       0.908  -3.056  -1.047  0.00  0.00    +0.277 C 
ENDBRANCH  15  28
BRANCH  14  30
ATOM     30  O   UNL     1       1.341  -4.028   2.134  0.00  0.00    -0.491 OA
ATOM     31  C   UNL     1       0.264  -4.697   2.793  0.00  0.00    +0.277 C 
ENDBRANCH  14  30
BRANCH   9  32
ATOM     32  C   UNL     1       2.265  -4.197   7.949  0.00  0.00    +0.100 C 
ATOM     33  N   UNL     1       2.144  -4.681   8.970  0.00  0.00    -0.191 NA
ENDBRANCH   9  32
TORSDOF 6
