REMARK  Name = ZINC52094497
REMARK  5 active torsions:
REMARK  status: ('A' for Active; 'I' for Inactive)
REMARK    1  A    between atoms: C_1  and  C_2
REMARK    2  A    between atoms: C_5  and  C_7
REMARK    3  A    between atoms: C_7  and  C_9
REMARK    4  A    between atoms: C_7  and  N_22
REMARK    5  A    between atoms: N_22  and  C_23
REMARK                            x       y       z     vdW  Elec       q    Type
REMARK                         _______ _______ _______ _____ _____    ______ ____
ROOT
ATOM      1  C   UNL     1       2.071  -2.394   2.161  0.00  0.00    -0.045 A 
ATOM      2  C   UNL     1       1.444  -3.321   2.972  0.00  0.00    +0.031 A 
ATOM      3  C   UNL     1       2.017  -3.681   4.181  0.00  0.00    +0.067 A 
ATOM      4  C   UNL     1       3.227  -3.106   4.576  0.00  0.00    +0.068 A 
ATOM      5  C   UNL     1       3.850  -2.177   3.757  0.00  0.00    +0.043 A 
ATOM      6  C   UNL     1       3.273  -1.828   2.550  0.00  0.00    +0.022 A 
ATOM      7 BR   UNL     1       4.127  -0.568   1.428  0.00  0.00    -0.050 Br
ATOM      8  N   UNL     1       3.549  -3.655   5.815  0.00  0.00    -0.306 N 
ATOM      9  H   UNL     1       4.336  -3.446   6.341  0.00  0.00    +0.170 HD
ATOM     10  C   UNL     1       2.579  -4.524   6.158  0.00  0.00    +0.325 A 
ATOM     11  O   UNL     1       2.554  -5.176   7.186  0.00  0.00    -0.247 OA
ATOM     12  N   UNL     1       1.641  -4.562   5.193  0.00  0.00    -0.306 N 
ATOM     13  H   UNL     1       0.840  -5.109   5.201  0.00  0.00    +0.170 HD
ENDROOT
BRANCH   1  14
ATOM     14  C   UNL     1       1.447  -2.003   0.847  0.00  0.00    -0.037 C 
BRANCH  14  18
ATOM     15  C   UNL     1       0.133   1.484  -0.367  0.00  0.00    +0.008 C 
ATOM     16  C   UNL     1       0.110  -0.041  -0.252  0.00  0.00    -0.012 C 
ATOM     17  C   UNL     1      -0.795  -0.656   0.817  0.00  0.00    +0.006 C 
ATOM     18  C   UNL     1       0.724  -0.664   1.004  0.00  0.00    -0.018 C 
ENDBRANCH  14  18
BRANCH  14  19
ATOM     19  N   UNL     1       0.485  -3.034   0.435  0.00  0.00    +0.382 N 
ATOM     20  C   UNL     1       1.202  -4.283   0.143  0.00  0.00    -0.100 C 
ATOM     21  H   UNL     1      -0.177  -3.192   1.179  0.00  0.00    -0.085 HD
ATOM     22  H   UNL     1      -0.004  -2.726  -0.392  0.00  0.00    -0.085 HD
ENDBRANCH  14  19
ENDBRANCH   1  14
TORSDOF 3
