REMARK  Name = ZINC57403577
REMARK  6 active torsions:
REMARK  status: ('A' for Active; 'I' for Inactive)
REMARK    1  A    between atoms: C_1  and  C_2
REMARK    2  A    between atoms: C_8  and  O_14
REMARK    3  A    between atoms: O_14  and  C_15
REMARK    4  A    between atoms: C_15  and  C_16
REMARK    5  A    between atoms: C_16  and  C_18
REMARK    6  A    between atoms: C_16  and  C_19
REMARK                            x       y       z     vdW  Elec       q    Type
REMARK                         _______ _______ _______ _____ _____    ______ ____
ROOT
ATOM      1  C   UNL     1      -0.018   1.503   0.010  0.00  0.00    +0.073 C 
ATOM      2  C   UNL     1       0.002  -0.004   0.002  0.00  0.00    +0.076 A 
ATOM      3  N   UNL     1      -1.003  -0.837   0.002  0.00  0.00    -0.243 NA
ATOM      4  C   UNL     1      -0.843  -2.178  -0.007  0.00  0.00    +0.093 A 
ATOM      5  C   UNL     1       0.495  -2.630  -0.016  0.00  0.00    +0.044 A 
ATOM      6  S   UNL     1       1.409  -1.107  -0.018  0.00  0.00    -0.072 S 
ATOM      7  C   UNL     1       0.818  -3.970  -0.025  0.00  0.00    +0.063 A 
ATOM      8  C   UNL     1      -0.152  -4.928  -0.026  0.00  0.00    +0.130 A 
ATOM      9  C   UNL     1      -1.528  -4.555  -0.017  0.00  0.00    +0.033 A 
ATOM     10  C   UNL     1      -1.829  -3.187  -0.008  0.00  0.00    +0.049 A 
ATOM     11  S   UNL     1      -3.603  -3.142   0.000  0.00  0.00    -0.094 S 
ATOM     12  C   UNL     1      -3.920  -4.896  -0.008  0.00  0.00    +0.046 A 
ATOM     13  C   UNL     1      -2.692  -5.433  -0.017  0.00  0.00    +0.020 A 
ENDROOT
BRANCH   8  14
ATOM     14  O   UNL     1       0.194  -6.243  -0.036  0.00  0.00    -0.491 OA
BRANCH  14  15
ATOM     15  C   UNL     1       1.590  -6.546  -0.045  0.00  0.00    +0.239 C 
BRANCH  15  16
ATOM     16  C   UNL     1       1.782  -8.064  -0.055  0.00  0.00    +0.084 C 
ATOM     17  C   UNL     1       1.235  -8.638  -1.363  0.00  0.00    +0.019 C 
BRANCH  16  18
ATOM     18  C   UNL     1       3.250  -8.386   0.059  0.00  0.00    +0.069 C 
ATOM     19  N   UNL     1       3.731  -9.485  -0.495  0.00  0.00    -0.390 N 
ATOM     20  N   UNL     1       4.056  -7.568   0.714  0.00  0.00    -0.348 N 
ATOM     21  H   UNL     1       3.139 -10.085  -0.975  0.00  0.00    +0.157 HD
ATOM     22  H   UNL     1       3.703  -6.761   1.120  0.00  0.00    +0.143 HD
ATOM     23  H   UNL     1       5.001  -7.775   0.787  0.00  0.00    +0.143 HD
ATOM     24  H   UNL     1       4.675  -9.692  -0.421  0.00  0.00    +0.157 HD
ENDBRANCH  16  18
ENDBRANCH  15  16
ENDBRANCH  14  15
ENDBRANCH   8  14
TORSDOF 4
