REMARK  Name = ZINC05342656
REMARK  4 active torsions:
REMARK  status: ('A' for Active; 'I' for Inactive)
REMARK    1  A    between atoms: C_1  and  C_2
REMARK    2  A    between atoms: C_7  and  C_8
REMARK    3  A    between atoms: C_10  and  C_13
REMARK    4  A    between atoms: C_13  and  N_14
REMARK                            x       y       z     vdW  Elec       q    Type
REMARK                         _______ _______ _______ _____ _____    ______ ____
ROOT
ATOM      1  N   UNL     1       5.719   0.419   0.075  0.00  0.00    -0.215 N 
ATOM      2  C   UNL     1       4.710   0.008   0.871  0.00  0.00    +0.252 C 
ATOM      3  O   UNL     1       4.612   0.161   2.069  0.00  0.00    -0.272 OA
ATOM      4  C   UNL     1       3.729  -0.684  -0.047  0.00  0.00    +0.144 C 
ATOM      5  C   UNL     1       3.568  -2.148   0.353  0.00  0.00    +0.081 C 
ATOM      6  C   UNL     1       2.379  -2.733  -0.421  0.00  0.00    +0.232 C 
ATOM      7  O   UNL     1       1.194  -2.046  -0.017  0.00  0.00    -0.492 OA
ATOM      8  C   UNL     1       1.213  -0.688  -0.014  0.00  0.00    +0.126 A 
ATOM      9  C   UNL     1       2.403   0.023  -0.024  0.00  0.00    +0.027 A 
ATOM     10  C   UNL     1       2.377   1.407  -0.015  0.00  0.00    +0.010 A 
ATOM     11  C   UNL     1       1.172   2.082   0.002  0.00  0.00    +0.001 A 
ATOM     12  C   UNL     1      -0.017   1.376   0.010  0.00  0.00    +0.004 A 
ATOM     13  C   UNL     1       0.002  -0.004   0.002  0.00  0.00    +0.046 A 
ATOM     14  N   UNL     1       4.346  -0.578  -1.375  0.00  0.00    -0.281 N 
ATOM     15  C   UNL     1       5.507   0.083  -1.204  0.00  0.00    +0.310 C 
ATOM     16  O   UNL     1       6.276   0.344  -2.108  0.00  0.00    -0.252 OA
ATOM     17  H   UNL     1       3.988  -0.917  -2.211  0.00  0.00    +0.152 HD
ENDROOT
BRANCH   1  18
ATOM     18  C   UNL     1       6.901   1.143   0.551  0.00  0.00    +0.216 C 
BRANCH  18  21
ATOM     19  C   UNL     1       9.638  -1.160   0.902  0.00  0.00    +0.202 A 
ATOM     20  N   UNL     1       8.904  -0.322   0.136  0.00  0.00    -0.190 NA
ATOM     21  C   UNL     1       7.976   0.157   0.927  0.00  0.00    +0.246 A 
ATOM     22  O   UNL     1       8.160  -0.398   2.129  0.00  0.00    -0.336 OA
ATOM     23  N   UNL     1       9.112  -1.148   2.100  0.00  0.00    -0.056 NA
BRANCH  19  30
ATOM     24  C   UNL     1      10.991  -2.882   2.792  0.00  0.00    +0.044 C 
ATOM     25  C   UNL     1      11.473  -2.783   1.368  0.00  0.00    -0.040 A 
ATOM     26  C   UNL     1      12.567  -3.517   0.955  0.00  0.00    +0.004 A 
ATOM     27  C   UNL     1      13.009  -3.428  -0.352  0.00  0.00    +0.000 A 
ATOM     28  C   UNL     1      12.360  -2.604  -1.253  0.00  0.00    +0.001 A 
ATOM     29  C   UNL     1      11.262  -1.869  -0.853  0.00  0.00    +0.012 A 
ATOM     30  C   UNL     1      10.815  -1.952   0.465  0.00  0.00    +0.025 A 
ENDBRANCH  19  30
ENDBRANCH  18  21
ENDBRANCH   1  18
TORSDOF 3
