REMARK  Name = ZINC24022540
REMARK  10 active torsions:
REMARK  status: ('A' for Active; 'I' for Inactive)
REMARK    1  A    between atoms: C_1  and  C_2
REMARK    2  A    between atoms: C_2  and  C_3
REMARK    3  A    between atoms: C_3  and  C_4
REMARK    4  A    between atoms: C_4  and  N_5
REMARK    5  A    between atoms: C_6  and  N_37
REMARK    6  A    between atoms: C_7  and  N_14
REMARK    7  A    between atoms: N_14  and  C_15
REMARK    8  A    between atoms: C_15  and  C_16
REMARK    9  A    between atoms: C_22  and  C_24
REMARK   10  A    between atoms: N_26  and  C_31
REMARK                            x       y       z     vdW  Elec       q    Type
REMARK                         _______ _______ _______ _____ _____    ______ ____
ROOT
ATOM      1  N   UNL     1       2.448   3.639   0.505  0.00  0.00    -0.255 N 
ATOM      2  C   UNL     1       2.360   4.981   0.420  0.00  0.00    +0.267 C 
ATOM      3  O   UNL     1       1.269   5.520   0.405  0.00  0.00    -0.268 OA
ENDROOT
BRANCH   1   6
ATOM      4  N   UNL     1      -0.050   1.402   2.006  0.00  0.00    -0.280 N 
ATOM      5  C   UNL     1       1.097   2.147   1.854  0.00  0.00    +0.127 A 
ATOM      6  C   UNL     1       1.284   2.867   0.691  0.00  0.00    +0.140 A 
ATOM      7  C   UNL     1       0.292   2.815  -0.306  0.00  0.00    +0.277 A 
ATOM      8  O   UNL     1       0.431   3.441  -1.344  0.00  0.00    -0.266 OA
ATOM      9  N   UNL     1      -0.813   2.070  -0.107  0.00  0.00    -0.273 N 
ATOM     10  H   UNL     1      -1.591   2.021  -0.884  0.00  0.00    +0.173 HD
ATOM     11  C   UNL     1      -0.980   1.380   1.035  0.00  0.00    +0.331 A 
ATOM     12  O   UNL     1      -1.990   0.720   1.191  0.00  0.00    -0.246 OA
BRANCH   5  13
ATOM     13  N   UNL     1       2.045   2.174   2.849  0.00  0.00    -0.343 N 
ATOM     14  H   UNL     1       2.959   2.772   2.720  0.00  0.00    +0.144 HD
ATOM     15  H   UNL     1       1.890   1.598   3.773  0.00  0.00    +0.144 HD
ENDBRANCH   5  13
BRANCH   4  16
ATOM     16  C   UNL     1      -0.261   0.634   3.235  0.00  0.00    +0.128 C 
BRANCH  16  17
ATOM     17  C   UNL     1      -0.994   1.502   4.260  0.00  0.00    +0.021 C 
BRANCH  17  19
ATOM     18  C   UNL     1      -1.947   1.569   6.568  0.00  0.00    +0.004 C 
ATOM     19  C   UNL     1      -1.215   0.700   5.544  0.00  0.00    -0.002 C 
ENDBRANCH  17  19
ENDBRANCH  16  17
ENDBRANCH   4  16
ENDBRANCH   1   6
BRANCH   2  20
ATOM     20  C   UNL     1       3.580   5.793   0.346  0.00  0.00    +0.122 C 
ATOM     21  N   UNL     1       4.736   5.226   0.498  0.00  0.00    -0.172 NA
ATOM     22  N   UNL     1       5.920   5.968   0.436  0.00  0.00    -0.160 N 
ATOM     23  C   UNL     1       5.896   7.305   0.602  0.00  0.00    +0.240 C 
ATOM     24  O   UNL     1       6.925   7.944   0.553  0.00  0.00    -0.273 OA
ATOM     25  C   UNL     1       4.583   8.005   0.850  0.00  0.00    +0.104 C 
ATOM     26  C   UNL     1       3.472   7.272   0.088  0.00  0.00    +0.072 C 
BRANCH  22  27
ATOM     27  C   UNL     1       7.137   5.319   0.200  0.00  0.00    +0.060 A 
ATOM     28  C   UNL     1       8.054   5.860  -0.691  0.00  0.00    +0.025 A 
ATOM     29  C   UNL     1       9.257   5.220  -0.917  0.00  0.00    +0.002 A 
ATOM     30  C   UNL     1       9.544   4.035  -0.265  0.00  0.00    +0.000 A 
ATOM     31  C   UNL     1       8.631   3.490   0.619  0.00  0.00    +0.002 A 
ATOM     32  C   UNL     1       7.429   4.128   0.854  0.00  0.00    +0.025 A 
ENDBRANCH  22  27
ENDBRANCH   2  20
BRANCH   1  33
ATOM     33  C   UNL     1       3.754   2.983   0.404  0.00  0.00    +0.149 C 
BRANCH  33  34
ATOM     34  C   UNL     1       4.098   2.768  -1.047  0.00  0.00    -0.030 A 
ATOM     35  C   UNL     1       3.691   1.614  -1.691  0.00  0.00    +0.005 A 
ATOM     36  C   UNL     1       4.002   1.420  -3.023  0.00  0.00    +0.000 A 
ATOM     37  C   UNL     1       4.728   2.375  -3.710  0.00  0.00    +0.000 A 
ATOM     38  C   UNL     1       5.140   3.526  -3.065  0.00  0.00    +0.000 A 
ATOM     39  C   UNL     1       4.824   3.723  -1.734  0.00  0.00    +0.005 A 
ENDBRANCH  33  34
ENDBRANCH   1  33
TORSDOF 9
