REMARK  Name = ZINC67292399
REMARK  4 active torsions:
REMARK  status: ('A' for Active; 'I' for Inactive)
REMARK    1  A    between atoms: C_6  and  N_7
REMARK    2  A    between atoms: C_9  and  C_19
REMARK    3  A    between atoms: N_21  and  C_22
REMARK    4  A    between atoms: C_22  and  C_23
REMARK                            x       y       z     vdW  Elec       q    Type
REMARK                         _______ _______ _______ _____ _____    ______ ____
ROOT
ATOM      1  N   UNL     1      -1.178  -0.701   0.007  0.00  0.00    -0.325 N 
ATOM      2  C   UNL     1      -1.334  -1.726  -0.801  0.00  0.00    +0.212 A 
ATOM      3  C   UNL     1      -2.547  -2.566  -0.739  0.00  0.00    +0.097 A 
ATOM      4  C   UNL     1      -2.923  -3.222  -1.904  0.00  0.00    +0.030 A 
ATOM      5  C   UNL     1      -2.085  -3.022  -3.089  0.00  0.00    +0.019 A 
ATOM      6  C   UNL     1      -2.529  -3.420  -4.355  0.00  0.00    +0.026 A 
ATOM      7  C   UNL     1      -1.723  -3.218  -5.454  0.00  0.00    +0.019 A 
ATOM      8  C   UNL     1      -0.477  -2.622  -5.310  0.00  0.00    +0.019 A 
ATOM      9  C   UNL     1      -0.026  -2.226  -4.068  0.00  0.00    +0.048 A 
ATOM     10  C   UNL     1      -0.820  -2.421  -2.947  0.00  0.00    +0.137 A 
ATOM     11  O   UNL     1      -0.389  -2.040  -1.723  0.00  0.00    -0.439 OA
ATOM     12 BR   UNL     1      -2.317  -3.755  -7.167  0.00  0.00    -0.050 Br
ATOM     13  H   UNL     1      -1.899  -0.436   0.600  0.00  0.00    +0.169 HD
ENDROOT
BRANCH   1  19
ATOM     14  C   UNL     1      -0.005   1.389   0.018  0.00  0.00    +0.028 A 
ATOM     15  C   UNL     1       1.187   2.083   0.024  0.00  0.00    +0.043 A 
ATOM     16  C   UNL     1       2.391   1.398   0.026  0.00  0.00    +0.159 A 
ATOM     17  C   UNL     1       2.406   0.010   0.022  0.00  0.00    +0.160 A 
ATOM     18  C   UNL     1       1.218  -0.695   0.015  0.00  0.00    +0.067 A 
ATOM     19  C   UNL     1       0.002  -0.008   0.013  0.00  0.00    +0.045 A 
ATOM     20  F   UNL     1       3.583  -0.652   0.024  0.00  0.00    -0.202 F 
ATOM     21  F   UNL     1       3.555   2.084   0.033  0.00  0.00    -0.202 F 
ENDBRANCH   1  19
BRANCH   3  22
ATOM     22  C   UNL     1      -3.324  -2.703   0.505  0.00  0.00    +0.249 C 
ATOM     23  O   UNL     1      -3.022  -2.050   1.485  0.00  0.00    -0.270 OA
ATOM     24  N   UNL     1      -4.369  -3.553   0.557  0.00  0.00    -0.309 N 
ATOM     25  H   UNL     1      -4.564  -4.128  -0.200  0.00  0.00    +0.149 HD
BRANCH  24  26
ATOM     26  C   UNL     1      -5.210  -3.607   1.755  0.00  0.00    +0.136 C 
BRANCH  26  27
ATOM     27  C   UNL     1      -6.316  -4.646   1.555  0.00  0.00    +0.135 C 
ATOM     28  C   UNL     1      -7.239  -4.694   2.799  0.00  0.00    +0.035 C 
ATOM     29  C   UNL     1      -8.549  -5.244   2.172  0.00  0.00    +0.031 C 
ATOM     30  C   UNL     1      -8.527  -4.614   0.763  0.00  0.00    +0.160 C 
ATOM     31  O   UNL     1      -7.170  -4.260   0.466  0.00  0.00    -0.375 OA
ENDBRANCH  26  27
ENDBRANCH  24  26
ENDBRANCH   3  22
TORSDOF 4
