REMARK  Name = ZINC35694824
REMARK  13 active torsions:
REMARK  status: ('A' for Active; 'I' for Inactive)
REMARK    1  A    between atoms: C_1  and  C_2
REMARK    2  A    between atoms: C_5  and  C_8
REMARK    3  A    between atoms: N_10  and  C_31
REMARK    4  A    between atoms: N_13  and  C_14
REMARK    5  A    between atoms: C_14  and  C_16
REMARK    6  A    between atoms: C_16  and  N_17
REMARK    7  A    between atoms: N_17  and  C_18
REMARK    8  A    between atoms: C_18  and  C_19
REMARK    9  A    between atoms: C_19  and  N_20
REMARK   10  A    between atoms: N_20  and  C_21
REMARK   11  A    between atoms: N_20  and  C_22
REMARK   12  A    between atoms: C_23  and  C_25
REMARK   13  A    between atoms: C_34  and  C_37
REMARK                            x       y       z     vdW  Elec       q    Type
REMARK                         _______ _______ _______ _____ _____    ______ ____
ROOT
ATOM      1  C   UNL     1       1.161  -6.799   0.716  0.00  0.00    +0.066 A 
ATOM      2  C   UNL     1       1.016  -7.905   1.467  0.00  0.00    +0.120 A 
ATOM      3  N   UNL     1       0.694  -8.953   0.628  0.00  0.00    -0.287 N 
ATOM      4  C   UNL     1       0.643  -8.476  -0.645  0.00  0.00    +0.205 A 
ATOM      5  N   UNL     1       0.923  -7.148  -0.608  0.00  0.00    -0.326 N 
ATOM      6  N   UNL     1       0.362  -9.187  -1.736  0.00  0.00    -0.145 NA
ATOM      7  H   UNL     1       0.953  -6.549  -1.370  0.00  0.00    +0.169 HD
ENDROOT
BRANCH   1  12
ATOM      8  C   UNL     1       2.503  -1.546   2.647  0.00  0.00    +0.044 C 
ATOM      9  C   UNL     1       2.152  -2.921   2.142  0.00  0.00    -0.050 A 
ATOM     10  C   UNL     1       1.942  -3.125   0.789  0.00  0.00    +0.004 A 
ATOM     11  C   UNL     1       1.620  -4.382   0.320  0.00  0.00    +0.010 A 
ATOM     12  C   UNL     1       1.506  -5.449   1.213  0.00  0.00    -0.000 A 
ATOM     13  C   UNL     1       1.720  -5.236   2.575  0.00  0.00    +0.010 A 
ATOM     14  C   UNL     1       2.046  -3.976   3.031  0.00  0.00    +0.004 A 
ENDBRANCH   1  12
BRANCH   3  15
ATOM     15  C   UNL     1       0.460 -10.277   1.020  0.00  0.00    +0.049 A 
ATOM     16  C   UNL     1       0.149 -11.239   0.069  0.00  0.00    +0.026 A 
ATOM     17  C   UNL     1      -0.080 -12.544   0.458  0.00  0.00    +0.005 A 
ATOM     18  C   UNL     1      -0.001 -12.893   1.794  0.00  0.00    -0.050 A 
ATOM     19  C   UNL     1       0.309 -11.937   2.744  0.00  0.00    +0.005 A 
ATOM     20  C   UNL     1       0.545 -10.631   2.360  0.00  0.00    +0.026 A 
ATOM     21  C   UNL     1      -0.252 -14.318   2.215  0.00  0.00    +0.044 C 
ENDBRANCH   3  15
BRANCH   6  22
ATOM     22  C   UNL     1       0.345  -8.598  -2.926  0.00  0.00    +0.256 C 
ATOM     23  O   UNL     1       0.586  -7.410  -3.020  0.00  0.00    -0.272 OA
BRANCH  22  24
ATOM     24  C   UNL     1       0.027  -9.402  -4.160  0.00  0.00    +0.205 C 
BRANCH  24  25
ATOM     25  N   UNL     1       0.072  -8.530  -5.337  0.00  0.00    -0.290 N 
ATOM     26  C   UNL     1      -1.066  -7.996  -5.823  0.00  0.00    +0.247 C 
ATOM     27  O   UNL     1      -1.039  -7.331  -6.840  0.00  0.00    -0.270 OA
BRANCH  26  28
ATOM     28  C   UNL     1      -2.347  -8.220  -5.120  0.00  0.00    +0.037 A 
ATOM     29  C   UNL     1      -2.443  -7.991  -3.747  0.00  0.00    +0.013 A 
ATOM     30  C   UNL     1      -3.641  -8.202  -3.097  0.00  0.00    +0.001 A 
ATOM     31  C   UNL     1      -4.747  -8.639  -3.804  0.00  0.00    +0.000 A 
ATOM     32  C   UNL     1      -4.660  -8.868  -5.166  0.00  0.00    +0.001 A 
ATOM     33  C   UNL     1      -3.469  -8.655  -5.829  0.00  0.00    +0.013 A 
ENDBRANCH  26  28
BRANCH  25  34
ATOM     34  C   UNL     1       1.353  -8.237  -5.983  0.00  0.00    +0.090 C 
BRANCH  34  35
ATOM     35  C   UNL     1       1.567  -9.203  -7.151  0.00  0.00    -0.060 C 
BRANCH  35  36
ATOM     36  N   UNL     1       2.852  -8.909  -7.800  0.00  0.00    +0.377 N 
ATOM     37  C   UNL     1       3.948  -9.185  -6.862  0.00  0.00    -0.097 C 
ATOM     38  C   UNL     1       3.003  -9.755  -8.992  0.00  0.00    -0.097 C 
ATOM     39  H   UNL     1       2.878  -7.938  -8.071  0.00  0.00    -0.083 HD
ENDBRANCH  35  36
ENDBRANCH  34  35
ENDBRANCH  25  34
ENDBRANCH  24  25
ENDBRANCH  22  24
ENDBRANCH   6  22
TORSDOF 9
