REMARK  Name = ZINC28687283
REMARK  6 active torsions:
REMARK  status: ('A' for Active; 'I' for Inactive)
REMARK    1  A    between atoms: C_1  and  C_2
REMARK    2  A    between atoms: C_7  and  S_15
REMARK    3  A    between atoms: C_12  and  C_14
REMARK    4  A    between atoms: S_15  and  N_18
REMARK    5  A    between atoms: N_18  and  C_19
REMARK    6  A    between atoms: C_28  and  C_31
REMARK                            x       y       z     vdW  Elec       q    Type
REMARK                         _______ _______ _______ _____ _____    ______ ____
ROOT
ATOM      1  S   UNL     1      -5.428   0.898   6.070  0.00  0.00    +0.072 S 
ATOM      2  O   UNL     1      -5.746   1.255   7.408  0.00  0.00    -0.150 OA
ATOM      3  O   UNL     1      -6.244   1.272   4.968  0.00  0.00    -0.150 OA
ENDROOT
BRANCH   1   9
ATOM      4  C   UNL     1      -6.580  -6.149   4.169  0.00  0.00    +0.029 C 
ATOM      5  C   UNL     1      -5.330  -5.279   4.315  0.00  0.00    +0.083 C 
ATOM      6  C   UNL     1      -5.561  -3.901   3.676  0.00  0.00    +0.059 C 
ATOM      7  C   UNL     1      -5.402  -2.921   4.816  0.00  0.00    -0.022 A 
ATOM      8  C   UNL     1      -5.503  -1.543   4.848  0.00  0.00    +0.034 A 
ATOM      9  C   UNL     1      -5.306  -0.859   6.033  0.00  0.00    +0.109 A 
ATOM     10  C   UNL     1      -5.019  -1.559   7.191  0.00  0.00    +0.030 A 
ATOM     11  C   UNL     1      -4.923  -2.933   7.165  0.00  0.00    +0.026 A 
ATOM     12  C   UNL     1      -5.115  -3.631   5.971  0.00  0.00    +0.040 A 
ATOM     13  N   UNL     1      -5.062  -5.007   5.730  0.00  0.00    -0.268 N 
ATOM     14  C   UNL     1      -4.804  -5.945   6.662  0.00  0.00    +0.217 C 
ATOM     15  O   UNL     1      -4.710  -5.631   7.829  0.00  0.00    -0.276 OA
ATOM     16  C   UNL     1      -4.631  -7.386   6.253  0.00  0.00    +0.109 C 
ENDBRANCH   1   9
BRANCH   1  17
ATOM     17  N   UNL     1      -3.916   1.500   5.765  0.00  0.00    -0.216 N 
ATOM     18  H   UNL     1      -3.384   2.070   6.542  0.00  0.00    +0.174 HD
BRANCH  17  19
ATOM     19  C   UNL     1      -3.315   1.285   4.520  0.00  0.00    +0.050 A 
ATOM     20  C   UNL     1      -4.048   1.466   3.355  0.00  0.00    +0.028 A 
ATOM     21  C   UNL     1      -3.458   1.255   2.122  0.00  0.00    +0.049 A 
ATOM     22  C   UNL     1      -2.134   0.862   2.048  0.00  0.00    +0.143 A 
ATOM     23  C   UNL     1      -1.395   0.679   3.216  0.00  0.00    +0.078 A 
ATOM     24  C   UNL     1      -1.985   0.891   4.450  0.00  0.00    +0.051 A 
ATOM     25  N   UNL     1      -0.054   0.279   3.123  0.00  0.00    -0.279 N 
ATOM     26  C   UNL     1       0.581   0.385   1.936  0.00  0.00    +0.258 C 
ATOM     27  O   UNL     1       1.731   0.017   1.825  0.00  0.00    -0.271 OA
ATOM     28  C   UNL     1      -0.147   0.962   0.748  0.00  0.00    +0.256 C 
ATOM     29  O   UNL     1      -1.540   0.652   0.841  0.00  0.00    -0.478 OA
ATOM     30  C   UNL     1       0.423   0.362  -0.539  0.00  0.00    +0.062 C 
ATOM     31  H   UNL     1       0.465  -0.113   4.010  0.00  0.00    +0.155 HD
ENDBRANCH  17  19
ENDBRANCH   1  17
TORSDOF 3
