REMARK  Name = ZINC64491151
REMARK  9 active torsions:
REMARK  status: ('A' for Active; 'I' for Inactive)
REMARK    1  A    between atoms: C_1  and  C_2
REMARK    2  A    between atoms: C_8  and  C_11
REMARK    3  A    between atoms: C_11  and  C_12
REMARK    4  A    between atoms: C_12  and  N_13
REMARK    5  A    between atoms: C_14  and  C_16
REMARK    6  A    between atoms: C_16  and  C_17
REMARK    7  A    between atoms: C_17  and  C_18
REMARK    8  A    between atoms: C_18  and  N_19
REMARK    9  A    between atoms: N_29  and  C_34
REMARK                            x       y       z     vdW  Elec       q    Type
REMARK                         _______ _______ _______ _____ _____    ______ ____
ROOT
ATOM      1  C   UNL     1      -2.534  -2.337   7.784  0.00  0.00    +0.097 C 
ENDROOT
BRANCH   1   3
ATOM      2  N   UNL     1      -1.376  -2.597   5.613  0.00  0.00    -0.315 N 
ATOM      3  C   UNL     1      -2.537  -2.594   6.299  0.00  0.00    +0.213 C 
ATOM      4  O   UNL     1      -3.583  -2.797   5.720  0.00  0.00    -0.276 OA
ATOM      5  H   UNL     1      -0.539  -2.435   6.076  0.00  0.00    +0.149 HD
BRANCH   2   6
ATOM      6  C   UNL     1      -1.379  -2.847   4.170  0.00  0.00    +0.108 C 
BRANCH   6   7
ATOM      7  C   UNL     1       0.056  -2.796   3.641  0.00  0.00    +0.052 C 
BRANCH   7  15
ATOM      8  C   UNL     1       0.001   1.517   0.023  0.00  0.00    +0.044 C 
ATOM      9  C   UNL     1       0.015   0.010   0.011  0.00  0.00    -0.050 A 
ATOM     10  C   UNL     1       0.017  -0.662  -1.220  0.00  0.00    +0.005 A 
ATOM     11  C   UNL     1       0.030  -2.009  -1.315  0.00  0.00    +0.026 A 
ATOM     12  C   UNL     1       0.043  -2.812  -0.141  0.00  0.00    +0.043 A 
ATOM     13  N   UNL     1       0.055  -4.112   0.027  0.00  0.00    -0.380 N 
ATOM     14  C   UNL     1       0.064  -4.398   1.466  0.00  0.00    +0.144 C 
ATOM     15  C   UNL     1       0.054  -3.053   2.156  0.00  0.00    -0.040 C 
ATOM     16  C   UNL     1       0.041  -2.126   1.171  0.00  0.00    -0.001 A 
ATOM     17  C   UNL     1       0.033  -0.658   1.186  0.00  0.00    +0.013 A 
ATOM     18  H   UNL     1       0.059  -4.774  -0.682  0.00  0.00    +0.160 HD
ENDBRANCH   7  15
ENDBRANCH   6   7
ENDBRANCH   2   6
ENDBRANCH   1   3
BRANCH   1  19
ATOM     19  C   UNL     1      -3.969  -2.388   8.312  0.00  0.00    +0.028 C 
BRANCH  19  20
ATOM     20  C   UNL     1      -3.966  -2.128   9.820  0.00  0.00    +0.107 C 
BRANCH  20  21
ATOM     21  N   UNL     1      -5.347  -2.061  10.307  0.00  0.00    -0.314 N 
ATOM     22  C   UNL     1      -6.065  -3.123  10.872  0.00  0.00    +0.038 A 
ATOM     23  C   UNL     1      -5.740  -4.471  10.965  0.00  0.00    +0.024 A 
ATOM     24  C   UNL     1      -6.614  -5.363  11.555  0.00  0.00    +0.002 A 
ATOM     25  C   UNL     1      -7.825  -4.925  12.062  0.00  0.00    +0.001 A 
ATOM     26  C   UNL     1      -8.164  -3.590  11.987  0.00  0.00    +0.010 A 
ATOM     27  C   UNL     1      -7.288  -2.675  11.400  0.00  0.00    +0.003 A 
ATOM     28  C   UNL     1      -7.354  -1.226  11.214  0.00  0.00    +0.006 C 
ATOM     29  C   UNL     1      -8.159  -0.281  11.712  0.00  0.00    +0.094 C 
ATOM     30  N   UNL     1      -7.781   1.023  11.335  0.00  0.00    -0.269 N 
ATOM     31  N   UNL     1      -6.394   1.301  11.355  0.00  0.00    -0.224 N 
ATOM     32  C   UNL     1      -5.545   0.353  10.857  0.00  0.00    +0.256 C 
ATOM     33  O   UNL     1      -4.340   0.494  10.875  0.00  0.00    -0.272 OA
ATOM     34  C   UNL     1      -6.197  -0.879  10.289  0.00  0.00    +0.194 C 
ATOM     35  C   UNL     1      -5.884   2.565  11.893  0.00  0.00    +0.156 C 
ATOM     36  H   UNL     1      -8.434   1.691  11.077  0.00  0.00    +0.170 HD
ENDBRANCH  20  21
ENDBRANCH  19  20
ENDBRANCH   1  19
TORSDOF 7
