REMARK  Name = ZINC13614485
REMARK  2 active torsions:
REMARK  status: ('A' for Active; 'I' for Inactive)
REMARK    1  A    between atoms: C_6  and  C_7
REMARK    2  A    between atoms: C_18  and  N_23
REMARK                            x       y       z     vdW  Elec       q    Type
REMARK                         _______ _______ _______ _____ _____    ______ ____
ROOT
ATOM      1  C   UNL     1      -5.048   5.423   0.082  0.00  0.00    +0.105 C 
ATOM      2  C   UNL     1      -4.145   6.249   0.981  0.00  0.00    +0.029 C 
ATOM      3  C   UNL     1      -4.354   7.770   0.975  0.00  0.00    +0.033 C 
ATOM      4  C   UNL     1      -2.948   8.276   1.300  0.00  0.00    -0.030 C 
ATOM      5  C   UNL     1      -2.044   7.380   0.922  0.00  0.00    -0.023 C 
ATOM      6  C   UNL     1      -2.748   6.234   0.292  0.00  0.00    +0.049 C 
ATOM      7  C   UNL     1      -2.219   4.855   0.361  0.00  0.00    -0.017 A 
ATOM      8  C   UNL     1      -0.877   4.583   0.517  0.00  0.00    +0.038 A 
ATOM      9  C   UNL     1      -0.429   3.275   0.547  0.00  0.00    +0.127 A 
ATOM     10  C   UNL     1      -1.331   2.233   0.435  0.00  0.00    +0.034 A 
ATOM     11  C   UNL     1      -2.679   2.494   0.295  0.00  0.00    +0.025 A 
ATOM     12  C   UNL     1      -3.139   3.805   0.259  0.00  0.00    +0.032 A 
ATOM     13  N   UNL     1      -4.513   4.045   0.135  0.00  0.00    -0.336 N 
ATOM     14  H   UNL     1      -5.125   3.295   0.084  0.00  0.00    +0.147 HD
ENDROOT
BRANCH   1  20
ATOM     15  C   UNL     1      -5.881   6.929  -1.736  0.00  0.00    +0.007 A 
ATOM     16  C   UNL     1      -5.831   7.413  -3.030  0.00  0.00    +0.020 A 
ATOM     17  C   UNL     1      -4.903   6.907  -3.922  0.00  0.00    +0.041 A 
ATOM     18  C   UNL     1      -4.021   5.921  -3.517  0.00  0.00    +0.020 A 
ATOM     19  C   UNL     1      -4.068   5.442  -2.221  0.00  0.00    +0.007 A 
ATOM     20  C   UNL     1      -4.996   5.947  -1.330  0.00  0.00    -0.027 A 
ATOM     21 CL   UNL     1      -4.844   7.509  -5.549  0.00  0.00    -0.084 Cl
ENDBRANCH   1  20
BRANCH   9  22
ATOM     22  N   UNL     1       1.015   2.991   0.705  0.00  0.00    +0.056 N 
ATOM     23  O   UNL     1       1.409   1.839   0.737  0.00  0.00    -0.126 OA
ATOM     24  O   UNL     1       1.810   3.909   0.799  0.00  0.00    -0.126 OA
ENDBRANCH   9  22
TORSDOF 2
