REMARK  Name = ZINC22412787
REMARK  7 active torsions:
REMARK  status: ('A' for Active; 'I' for Inactive)
REMARK    1  A    between atoms: C_1  and  C_2
REMARK    2  A    between atoms: C_3  and  C_30
REMARK    3  A    between atoms: N_9  and  C_12
REMARK    4  A    between atoms: C_12  and  C_13
REMARK    5  A    between atoms: C_13  and  C_14
REMARK    6  A    between atoms: N_16  and  N_17
REMARK    7  A    between atoms: C_23  and  C_26
REMARK                            x       y       z     vdW  Elec       q    Type
REMARK                         _______ _______ _______ _____ _____    ______ ____
ROOT
ATOM      1  C   UNL     1       4.156   0.215  -1.480  0.00  0.00    +0.231 C 
ATOM      2  O   UNL     1       4.694  -0.088  -0.437  0.00  0.00    -0.274 OA
ATOM      3  N   UNL     1       4.732  -0.109  -2.655  0.00  0.00    -0.224 N 
ATOM      4  H   UNL     1       4.243   0.166  -3.602  0.00  0.00    +0.174 HD
ENDROOT
BRANCH   3   5
ATOM      5  N   UNL     1       5.953  -0.796  -2.671  0.00  0.00    -0.137 N 
ATOM      6  C   UNL     1       6.082  -2.105  -2.969  0.00  0.00    +0.263 C 
ATOM      7  O   UNL     1       5.198  -2.882  -3.261  0.00  0.00    -0.271 OA
ATOM      8  C   UNL     1       7.561  -2.400  -2.860  0.00  0.00    +0.114 C 
ATOM      9  C   UNL     1       8.110  -2.866  -4.204  0.00  0.00    +0.035 C 
ATOM     10  C   UNL     1       9.612  -3.132  -4.080  0.00  0.00    +0.006 C 
ATOM     11  C   UNL     1       9.853  -4.202  -3.013  0.00  0.00    -0.014 C 
ATOM     12  C   UNL     1       9.319  -3.709  -1.666  0.00  0.00    +0.006 C 
ATOM     13  C   UNL     1       7.816  -3.446  -1.780  0.00  0.00    +0.035 C 
ATOM     14  C   UNL     1      11.354  -4.477  -2.897  0.00  0.00    +0.007 C 
ATOM     15  N   UNL     1       8.154  -1.112  -2.480  0.00  0.00    -0.284 N 
ATOM     16  C   UNL     1       7.136  -0.233  -2.398  0.00  0.00    +0.326 C 
ATOM     17  O   UNL     1       7.276   0.939  -2.107  0.00  0.00    -0.251 OA
ATOM     18  H   UNL     1       9.240  -1.031  -2.324  0.00  0.00    +0.151 HD
ENDBRANCH   3   5
BRANCH   1  19
ATOM     19  C   UNL     1       2.843   0.954  -1.463  0.00  0.00    +0.119 C 
BRANCH  19  20
ATOM     20  C   UNL     1       2.412   1.196  -0.015  0.00  0.00    +0.135 C 
BRANCH  20  29
ATOM     21  C   UNL     1      -2.863  -0.078   0.030  0.00  0.00    +0.045 C 
ATOM     22  C   UNL     1      -2.614   1.409   0.035  0.00  0.00    -0.026 A 
ATOM     23  C   UNL     1      -3.644   2.270   0.050  0.00  0.00    -0.008 A 
ATOM     24  S   UNL     1      -2.848   3.865   0.051  0.00  0.00    -0.073 S 
ATOM     25  C   UNL     1      -1.157   3.329   0.031  0.00  0.00    +0.116 A 
ATOM     26  C   UNL     1      -1.259   1.926   0.018  0.00  0.00    +0.075 A 
ATOM     27  C   UNL     1      -0.015   1.215   0.009  0.00  0.00    +0.262 A 
ATOM     28  O   UNL     1       0.002  -0.004   0.002  0.00  0.00    -0.267 OA
ATOM     29  N   UNL     1       1.136   1.914   0.002  0.00  0.00    -0.298 N 
ATOM     30  C   UNL     1       1.137   3.272   0.009  0.00  0.00    +0.203 A 
ATOM     31  N   UNL     1       0.019   3.949   0.023  0.00  0.00    -0.230 NA
ATOM     32  C   UNL     1      -5.119   1.962   0.064  0.00  0.00    +0.052 C 
ENDBRANCH  20  29
ENDBRANCH  19  20
ENDBRANCH   1  19
TORSDOF 4
