REMARK  Name = ZINC63060492
REMARK  6 active torsions:
REMARK  status: ('A' for Active; 'I' for Inactive)
REMARK    1  A    between atoms: C_1  and  O_2
REMARK    2  A    between atoms: O_2  and  C_3
REMARK    3  A    between atoms: C_3  and  C_5
REMARK    4  A    between atoms: C_9  and  S_11
REMARK    5  A    between atoms: S_11  and  N_14
REMARK    6  A    between atoms: C_17  and  C_20
REMARK                            x       y       z     vdW  Elec       q    Type
REMARK                         _______ _______ _______ _____ _____    ______ ____
ROOT
ATOM      1  N   UNL     1       3.755  -5.103   3.136  0.00  0.00    -0.177 NA
ATOM      2  C   UNL     1       4.196  -6.316   2.434  0.00  0.00    +0.110 C 
ATOM      3  C   UNL     1       4.943  -5.906   1.162  0.00  0.00    +0.024 C 
ATOM      4  C   UNL     1       6.077  -4.945   1.529  0.00  0.00    +0.034 C 
ATOM      5  C   UNL     1       5.492  -3.686   2.173  0.00  0.00    +0.024 C 
ATOM      6  C   UNL     1       4.749  -4.069   3.452  0.00  0.00    +0.110 C 
ENDROOT
BRANCH   4   7
ATOM      7  C   UNL     1       6.847  -4.559   0.265  0.00  0.00    +0.177 C 
ATOM      8  N   UNL     1       7.477  -5.748  -0.324  0.00  0.00    -0.363 N 
ATOM      9  C   UNL     1       8.763  -5.546  -0.330  0.00  0.00    +0.060 A 
ATOM     10  C   UNL     1       9.899  -6.359  -0.785  0.00  0.00    +0.027 A 
ATOM     11  C   UNL     1      11.152  -5.878  -0.662  0.00  0.00    +0.002 A 
ATOM     12  C   UNL     1      11.429  -4.615  -0.108  0.00  0.00    +0.002 A 
ATOM     13  C   UNL     1      10.461  -3.791   0.341  0.00  0.00    +0.027 A 
ATOM     14  C   UNL     1       9.055  -4.210   0.256  0.00  0.00    +0.060 A 
ATOM     15  N   UNL     1       7.939  -3.636   0.602  0.00  0.00    -0.363 N 
ATOM     16  H   UNL     1       7.019  -6.539  -0.648  0.00  0.00    +0.162 HD
ATOM     17  H   UNL     1       7.845  -2.760   1.007  0.00  0.00    +0.162 HD
ENDBRANCH   4   7
BRANCH   1  18
ATOM     18  S   UNL     1       2.166  -4.903   3.558  0.00  0.00    +0.061 S 
ATOM     19  O   UNL     1       2.146  -3.987   4.645  0.00  0.00    -0.153 OA
ATOM     20  O   UNL     1       1.602  -6.204   3.648  0.00  0.00    -0.153 OA
BRANCH  18  25
ATOM     21  C   UNL     1       0.680  -2.088   1.091  0.00  0.00    +0.061 A 
ATOM     22  C   UNL     1       0.101  -2.854   0.077  0.00  0.00    +0.015 A 
ATOM     23  C   UNL     1       0.160  -4.231   0.138  0.00  0.00    +0.003 A 
ATOM     24  C   UNL     1       0.791  -4.853   1.200  0.00  0.00    +0.028 A 
ATOM     25  C   UNL     1       1.366  -4.100   2.209  0.00  0.00    +0.106 A 
ATOM     26  C   UNL     1       1.320  -2.722   2.157  0.00  0.00    +0.043 A 
BRANCH  21  27
ATOM     27  C   UNL     1       0.620  -0.613   1.032  0.00  0.00    +0.339 C 
ATOM     28  O   UNL     1       1.129   0.051   1.913  0.00  0.00    -0.245 OA
BRANCH  27  30
ATOM     29  C   UNL     1      -0.017   1.425   0.010  0.00  0.00    +0.280 C 
ATOM     30  O   UNL     1       0.002  -0.004   0.002  0.00  0.00    -0.464 OA
ENDBRANCH  27  30
ENDBRANCH  21  27
ENDBRANCH  18  25
ENDBRANCH   1  18
TORSDOF 5
