REMARK  Name = ZINC49549934
REMARK  3 active torsions:
REMARK  status: ('A' for Active; 'I' for Inactive)
REMARK    1  A    between atoms: C_6  and  N_7
REMARK    2  A    between atoms: C_9  and  C_24
REMARK    3  A    between atoms: C_12  and  C_18
REMARK                            x       y       z     vdW  Elec       q    Type
REMARK                         _______ _______ _______ _____ _____    ______ ____
ROOT
ATOM      1  N   UNL     1      -1.201  -0.723   0.010  0.00  0.00    -0.317 N 
ATOM      2  C   UNL     1      -2.222  -0.507   0.867  0.00  0.00    +0.108 A 
ATOM      3  C   UNL     1      -3.236  -1.404   0.574  0.00  0.00    +0.102 A 
ATOM      4  C   UNL     1      -2.749  -2.199  -0.547  0.00  0.00    +0.070 A 
ATOM      5  C   UNL     1      -1.509  -1.733  -0.848  0.00  0.00    +0.054 A 
ATOM      6  C   UNL     1      -0.693  -2.317  -1.975  0.00  0.00    +0.077 C 
ATOM      7  C   UNL     1      -1.651  -2.851  -3.043  0.00  0.00    +0.110 C 
ATOM      8  C   UNL     1      -2.789  -3.616  -2.431  0.00  0.00    +0.218 C 
ATOM      9  O   UNL     1      -3.217  -4.595  -3.005  0.00  0.00    -0.275 OA
ATOM     10  N   UNL     1      -3.347  -3.251  -1.253  0.00  0.00    -0.283 N 
ATOM     11  H   UNL     1      -4.140  -3.696  -0.913  0.00  0.00    +0.155 HD
ENDROOT
BRANCH   1  17
ATOM     12  C   UNL     1      -0.017   1.384   0.010  0.00  0.00    +0.027 A 
ATOM     13  C   UNL     1       1.170   2.090   0.002  0.00  0.00    +0.022 A 
ATOM     14  C   UNL     1       2.378   1.414  -0.013  0.00  0.00    +0.041 A 
ATOM     15  C   UNL     1       2.400   0.031  -0.021  0.00  0.00    +0.022 A 
ATOM     16  C   UNL     1       1.215  -0.679  -0.014  0.00  0.00    +0.027 A 
ATOM     17  C   UNL     1       0.002  -0.004   0.002  0.00  0.00    +0.046 A 
ATOM     18 CL   UNL     1       3.869   2.304  -0.024  0.00  0.00    -0.084 Cl
ENDBRANCH   1  17
BRANCH   6  19
ATOM     19  C   UNL     1       0.164  -3.440  -1.450  0.00  0.00    -0.035 A 
ATOM     20  C   UNL     1      -0.411  -4.557  -0.863  0.00  0.00    +0.024 A 
ATOM     21  C   UNL     1       0.406  -5.567  -0.394  0.00  0.00    +0.111 A 
ATOM     22  N   UNL     1       1.718  -5.477  -0.498  0.00  0.00    -0.263 NA
ATOM     23  C   UNL     1       2.299  -4.431  -1.051  0.00  0.00    +0.111 A 
ATOM     24  C   UNL     1       1.546  -3.384  -1.548  0.00  0.00    +0.024 A 
ENDBRANCH   6  19
BRANCH   3  25
ATOM     25  C   UNL     1      -4.531  -1.529   1.250  0.00  0.00    +0.390 C 
ATOM     26  O   UNL     1      -4.808  -0.788   2.185  0.00  0.00    -0.240 OA
ATOM     27  O   UNL     1      -5.336  -2.374   0.881  0.00  0.00    -0.240 OA
ENDBRANCH   3  25
TORSDOF 3
