REMARK  Name = ZINC22912896
REMARK  8 active torsions:
REMARK  status: ('A' for Active; 'I' for Inactive)
REMARK    1  A    between atoms: C_1  and  C_2
REMARK    2  A    between atoms: C_7  and  C_9
REMARK    3  A    between atoms: C_7  and  C_10
REMARK    4  A    between atoms: N_13  and  C_17
REMARK    5  A    between atoms: C_17  and  N_18
REMARK    6  A    between atoms: N_21  and  C_24
REMARK    7  A    between atoms: C_24  and  C_25
REMARK    8  A    between atoms: C_26  and  C_27
REMARK                            x       y       z     vdW  Elec       q    Type
REMARK                         _______ _______ _______ _____ _____    ______ ____
ROOT
ATOM      1  C   UNL     1      -1.571  -4.131  -3.313  0.00  0.00    +0.204 C 
ENDROOT
BRANCH   1  13
ATOM      2  C   UNL     1      -0.019   1.528   0.010  0.00  0.00    +0.007 C 
ATOM      3  C   UNL     1       0.002  -0.004   0.002  0.00  0.00    -0.011 C 
ATOM      4  C   UNL     1       0.726  -0.492  -1.255  0.00  0.00    +0.038 C 
ATOM      5  C   UNL     1       0.711  -2.014  -1.298  0.00  0.00    +0.113 C 
ATOM      6  C   UNL     1       1.264  -2.646  -0.036  0.00  0.00    +0.041 C 
ATOM      7  C   UNL     1       0.787  -2.030   1.268  0.00  0.00    -0.032 C 
ATOM      8  C   UNL     1       0.764  -0.507   1.226  0.00  0.00    +0.009 C 
ATOM      9  C   UNL     1      -0.596  -2.567   1.647  0.00  0.00    +0.011 C 
ATOM     10  C   UNL     1       1.769  -2.455   2.382  0.00  0.00    +0.011 C 
ATOM     11  C   UNL     1      -0.665  -2.529  -1.638  0.00  0.00    +0.248 C 
ATOM     12  O   UNL     1      -1.716  -2.282  -1.086  0.00  0.00    -0.273 OA
ATOM     13  N   UNL     1      -0.504  -3.320  -2.721  0.00  0.00    -0.211 N 
ATOM     14  C   UNL     1       0.750  -3.268  -3.183  0.00  0.00    +0.310 C 
ATOM     15  O   UNL     1       1.137  -3.883  -4.158  0.00  0.00    -0.252 OA
ATOM     16  N   UNL     1       1.532  -2.462  -2.446  0.00  0.00    -0.285 N 
ATOM     17  H   UNL     1       2.452  -2.214  -2.618  0.00  0.00    +0.151 HD
ENDBRANCH   1  13
BRANCH   1  18
ATOM     18  N   UNL     1      -2.275  -3.344  -4.335  0.00  0.00    -0.290 NA
ATOM     19  C   UNL     1      -3.267  -2.451  -3.721  0.00  0.00    +0.067 C 
ATOM     20  C   UNL     1      -3.934  -1.609  -4.810  0.00  0.00    -0.063 C 
ATOM     21  N   UNL     1      -4.584  -2.495  -5.785  0.00  0.00    +0.384 N 
ATOM     22  C   UNL     1      -3.576  -3.364  -6.408  0.00  0.00    -0.063 C 
ATOM     23  C   UNL     1      -2.906  -4.221  -5.331  0.00  0.00    +0.067 C 
ATOM     24  H   UNL     1      -5.274  -3.063  -5.316  0.00  0.00    -0.081 HD
BRANCH  21  25
ATOM     25  C   UNL     1      -5.240  -1.686  -6.821  0.00  0.00    -0.051 C 
BRANCH  25  26
ATOM     26  C   UNL     1      -6.009  -2.588  -7.752  0.00  0.00    -0.045 C 
ATOM     27  C   UNL     1      -7.300  -2.376  -7.963  0.00  0.00    +0.002 C 
BRANCH  27  28
ATOM     28  C   UNL     1      -8.055  -3.261  -8.875  0.00  0.00    -0.025 A 
ATOM     29  C   UNL     1      -7.411  -4.323  -9.512  0.00  0.00    +0.008 A 
ATOM     30  C   UNL     1      -8.121  -5.146 -10.363  0.00  0.00    +0.001 A 
ATOM     31  C   UNL     1      -9.467  -4.918 -10.586  0.00  0.00    +0.000 A 
ATOM     32  C   UNL     1     -10.111  -3.866  -9.958  0.00  0.00    +0.001 A 
ATOM     33  C   UNL     1      -9.414  -3.041  -9.100  0.00  0.00    +0.008 A 
ENDBRANCH  27  28
ENDBRANCH  25  26
ENDBRANCH  21  25
ENDBRANCH   1  18
TORSDOF 5
