REMARK  Name = ZINC64957197
REMARK  9 active torsions:
REMARK  status: ('A' for Active; 'I' for Inactive)
REMARK    1  A    between atoms: C_1  and  C_2
REMARK    2  A    between atoms: C_2  and  C_3
REMARK    3  A    between atoms: C_2  and  N_4
REMARK    4  A    between atoms: N_10  and  C_13
REMARK    5  A    between atoms: C_13  and  C_14
REMARK    6  A    between atoms: C_18  and  C_23
REMARK    7  A    between atoms: C_23  and  C_24
REMARK    8  A    between atoms: C_23  and  C_25
REMARK    9  A    between atoms: C_23  and  C_26
REMARK                            x       y       z     vdW  Elec       q    Type
REMARK                         _______ _______ _______ _____ _____    ______ ____
ROOT
ATOM      1  C   UNL     1      -5.906  -4.292   1.690  0.00  0.00    +0.180 C 
ENDROOT
BRANCH   1   8
ATOM      2  N   UNL     1      -1.372  -0.511   0.013  0.00  0.00    -0.297 N 
ATOM      3  C   UNL     1      -1.643  -1.734  -0.485  0.00  0.00    +0.302 C 
ATOM      4  O   UNL     1      -0.765  -2.379  -1.024  0.00  0.00    -0.253 OA
ATOM      5  N   UNL     1      -2.888  -2.242  -0.385  0.00  0.00    -0.283 N 
ATOM      6  C   UNL     1      -3.991  -1.435   0.159  0.00  0.00    +0.124 C 
ATOM      7  C   UNL     1      -4.689  -2.243   1.258  0.00  0.00    +0.104 C 
ATOM      8  N   UNL     1      -5.083  -3.553   0.722  0.00  0.00    -0.291 NA
ATOM      9  C   UNL     1      -3.909  -4.340   0.321  0.00  0.00    +0.104 C 
ATOM     10  C   UNL     1      -3.180  -3.616  -0.821  0.00  0.00    +0.124 C 
ATOM     11  H   UNL     1      -2.088   0.034   0.376  0.00  0.00    +0.150 HD
BRANCH   2  13
ATOM     12  C   UNL     1      -0.018   1.525   0.012  0.00  0.00    +0.027 C 
ATOM     13  C   UNL     1       0.002  -0.005   0.004  0.00  0.00    +0.068 C 
ATOM     14  C   UNL     1       0.741  -0.512   1.244  0.00  0.00    +0.027 C 
ENDBRANCH   2  13
ENDBRANCH   1   8
BRANCH   1  15
ATOM     15  C   UNL     1      -6.492  -5.510   1.024  0.00  0.00    +0.211 A 
ATOM     16  N   UNL     1      -5.930  -6.681   0.992  0.00  0.00    -0.212 NA
ATOM     17  C   UNL     1      -6.739  -7.537   0.310  0.00  0.00    +0.110 A 
ATOM     18  C   UNL     1      -6.650  -8.888  -0.028  0.00  0.00    +0.035 A 
ATOM     19  C   UNL     1      -7.665  -9.481  -0.745  0.00  0.00    -0.040 A 
ATOM     20  C   UNL     1      -8.774  -8.744  -1.133  0.00  0.00    +0.008 A 
ATOM     21  C   UNL     1      -8.876  -7.408  -0.806  0.00  0.00    +0.049 A 
ATOM     22  C   UNL     1      -7.863  -6.795  -0.084  0.00  0.00    +0.155 A 
ATOM     23  O   UNL     1      -7.672  -5.542   0.384  0.00  0.00    -0.438 OA
BRANCH  19  24
ATOM     24  C   UNL     1      -7.569 -10.940  -1.111  0.00  0.00    -0.013 C 
ATOM     25  C   UNL     1      -7.473 -11.780   0.164  0.00  0.00    +0.015 C 
ATOM     26  C   UNL     1      -8.814 -11.350  -1.900  0.00  0.00    +0.015 C 
ATOM     27  C   UNL     1      -6.323 -11.170  -1.969  0.00  0.00    +0.015 C 
ENDBRANCH  19  24
ENDBRANCH   1  15
TORSDOF 4
