REMARK  Name = ZINC19370475
REMARK  7 active torsions:
REMARK  status: ('A' for Active; 'I' for Inactive)
REMARK    1  A    between atoms: C_4  and  C_7
REMARK    2  A    between atoms: C_7  and  C_8
REMARK    3  A    between atoms: C_8  and  C_10
REMARK    4  A    between atoms: C_8  and  N_31
REMARK    5  A    between atoms: C_18  and  C_20
REMARK    6  A    between atoms: C_20  and  C_21
REMARK    7  A    between atoms: C_21  and  N_22
REMARK                            x       y       z     vdW  Elec       q    Type
REMARK                         _______ _______ _______ _____ _____    ______ ____
ROOT
ATOM      1  C   UNL     1       4.701   9.323   5.992  0.00  0.00    +0.201 C 
ATOM      2  O   UNL     1       5.019  10.493   5.995  0.00  0.00    -0.277 OA
ATOM      3  N   UNL     1       4.613   8.651   4.827  0.00  0.00    -0.300 N 
ATOM      4  C   UNL     1       4.899   9.323   3.552  0.00  0.00    +0.126 C 
ATOM      5  C   UNL     1       3.687   9.156   2.627  0.00  0.00    +0.126 C 
ATOM      6  N   UNL     1       3.302   7.738   2.609  0.00  0.00    -0.298 N 
ATOM      7  C   UNL     1       3.010   7.067   3.884  0.00  0.00    +0.126 C 
ATOM      8  C   UNL     1       4.228   7.232   4.809  0.00  0.00    +0.126 C 
ATOM      9  C   UNL     1       3.212   7.066   1.444  0.00  0.00    +0.217 C 
ATOM     10  O   UNL     1       3.451   7.632   0.398  0.00  0.00    -0.276 OA
ENDROOT
BRANCH   1  11
ATOM     11  C   UNL     1       4.405   8.620   7.292  0.00  0.00    +0.017 C 
BRANCH  11  12
ATOM     12  N   UNL     1       5.011   9.367   8.402  0.00  0.00    +0.386 N 
ATOM     13  H   UNL     1       6.099   9.423   8.255  0.00  0.00    -0.089 HD
ATOM     14  H   UNL     1       4.794   8.854   9.351  0.00  0.00    -0.089 HD
ATOM     15  H   UNL     1       4.592  10.384   8.431  0.00  0.00    -0.089 HD
ENDBRANCH  11  12
BRANCH  11  16
ATOM     16  C   UNL     1       2.890   8.542   7.496  0.00  0.00    +0.028 C 
BRANCH  16  20
ATOM     17  C   UNL     1       2.040   6.249  10.998  0.00  0.00    +0.000 A 
ATOM     18  C   UNL     1       2.216   7.617  11.094  0.00  0.00    +0.000 A 
ATOM     19  C   UNL     1       2.491   8.359   9.960  0.00  0.00    +0.003 A 
ATOM     20  C   UNL     1       2.591   7.733   8.732  0.00  0.00    -0.048 A 
ATOM     21  C   UNL     1       2.410   6.366   8.636  0.00  0.00    +0.003 A 
ATOM     22  C   UNL     1       2.140   5.623   9.770  0.00  0.00    +0.000 A 
ENDBRANCH  16  20
ENDBRANCH  11  16
ENDBRANCH   1  11
BRANCH   9  23
ATOM     23  C   UNL     1       2.817   5.612   1.441  0.00  0.00    +0.117 C 
BRANCH  23  24
ATOM     24  C   UNL     1       2.791   5.094   0.002  0.00  0.00    +0.131 C 
BRANCH  24  25
ATOM     25  N   UNL     1       2.406   3.680  -0.001  0.00  0.00    -0.345 N 
ATOM     26  C   UNL     1       3.279   2.629  -0.014  0.00  0.00    +0.087 A 
ATOM     27  C   UNL     1       2.601   1.468  -0.014  0.00  0.00    +0.027 A 
ATOM     28  C   UNL     1       1.180   1.805   0.001  0.00  0.00    +0.003 A 
ATOM     29  C   UNL     1       1.112   3.214   0.008  0.00  0.00    +0.065 A 
ATOM     30  C   UNL     1      -0.139   3.816   0.022  0.00  0.00    +0.109 A 
ATOM     31  N   UNL     1      -1.231   3.079   0.027  0.00  0.00    -0.365 N 
ATOM     32  C   UNL     1      -1.198   1.757   0.017  0.00  0.00    +0.083 A 
ATOM     33  C   UNL     1      -0.013   1.076   0.008  0.00  0.00    +0.027 A 
ATOM     34  H   UNL     1      -2.220   3.561   0.041  0.00  0.00    +0.165 HD
ENDBRANCH  24  25
ENDBRANCH  23  24
ENDBRANCH   9  23
TORSDOF 7
