REMARK  Name = ZINC16249244
REMARK  9 active torsions:
REMARK  status: ('A' for Active; 'I' for Inactive)
REMARK    1  A    between atoms: C_1  and  C_2
REMARK    2  A    between atoms: C_3  and  C_12
REMARK    3  A    between atoms: C_4  and  O_11
REMARK    4  A    between atoms: C_6  and  C_9
REMARK    5  A    between atoms: N_13  and  C_14
REMARK    6  A    between atoms: C_14  and  C_15
REMARK    7  A    between atoms: C_15  and  N_16
REMARK    8  A    between atoms: N_16  and  C_17
REMARK    9  A    between atoms: C_20  and  N_23
REMARK                            x       y       z     vdW  Elec       q    Type
REMARK                         _______ _______ _______ _____ _____    ______ ____
ROOT
ATOM      1  C   UNL     1      -0.011   0.042  -2.487  0.00  0.00    +0.090 C 
ATOM      2  N   UNL     1       0.090  -0.599  -3.607  0.00  0.00    -0.388 N 
ATOM      3  H   UNL     1       0.104  -1.569  -3.611  0.00  0.00    +0.159 HD
ENDROOT
BRANCH   1   6
ATOM      4  C   UNL     1      -0.486   1.464  -0.013  0.00  0.00    +0.046 C 
ATOM      5  C   UNL     1      -0.256  -0.025  -0.011  0.00  0.00    -0.020 A 
ATOM      6  C   UNL     1      -0.027  -0.700  -1.213  0.00  0.00    +0.037 A 
ATOM      7  C   UNL     1       0.187  -2.084  -1.201  0.00  0.00    +0.140 A 
ATOM      8  C   UNL     1       0.169  -2.773   0.003  0.00  0.00    +0.064 A 
ATOM      9  C   UNL     1      -0.058  -2.095   1.185  0.00  0.00    -0.014 A 
ATOM     10  C   UNL     1      -0.265  -0.724   1.179  0.00  0.00    +0.049 A 
ATOM     11 CL   UNL     1      -0.543   0.116   2.672  0.00  0.00    -0.083 Cl
ATOM     12  C   UNL     1      -0.077  -2.849   2.490  0.00  0.00    +0.046 C 
ATOM     13 BR   UNL     1       0.456  -4.642   0.027  0.00  0.00    -0.046 Br
BRANCH   7  14
ATOM     14  O   UNL     1       0.409  -2.750  -2.363  0.00  0.00    -0.505 OA
ATOM     15  H   UNL     1       1.343  -2.808  -2.610  0.00  0.00    +0.292 HD
ENDBRANCH   7  14
ENDBRANCH   1   6
BRANCH   2  16
ATOM     16  C   UNL     1       0.184   0.141  -4.868  0.00  0.00    +0.131 C 
BRANCH  16  17
ATOM     17  C   UNL     1       1.552  -0.109  -5.506  0.00  0.00    +0.122 C 
BRANCH  17  18
ATOM     18  N   UNL     1       1.645   0.631  -6.767  0.00  0.00    -0.342 N 
ATOM     19  H   UNL     1       0.898   1.172  -7.068  0.00  0.00    +0.146 HD
BRANCH  18  20
ATOM     20  C   UNL     1       2.809   0.558  -7.535  0.00  0.00    +0.027 A 
ATOM     21  C   UNL     1       3.877  -0.221  -7.107  0.00  0.00    +0.025 A 
ATOM     22  C   UNL     1       5.027  -0.291  -7.869  0.00  0.00    +0.034 A 
ATOM     23  C   UNL     1       5.116   0.412  -9.056  0.00  0.00    +0.126 A 
ATOM     24  C   UNL     1       4.054   1.188  -9.485  0.00  0.00    +0.034 A 
ATOM     25  C   UNL     1       2.900   1.259  -8.730  0.00  0.00    +0.025 A 
BRANCH  23  26
ATOM     26  N   UNL     1       6.349   0.335  -9.870  0.00  0.00    +0.056 N 
ATOM     27  O   UNL     1       7.278  -0.343  -9.497  0.00  0.00    -0.126 OA
ATOM     28  O   UNL     1       6.428   0.949 -10.909  0.00  0.00    -0.126 OA
ENDBRANCH  23  26
ENDBRANCH  18  20
ENDBRANCH  17  18
ENDBRANCH  16  17
ENDBRANCH   2  16
TORSDOF 7
