REMARK  Name = ZINC39710323
REMARK  12 active torsions:
REMARK  status: ('A' for Active; 'I' for Inactive)
REMARK    1  A    between atoms: C_1  and  C_2
REMARK    2  A    between atoms: C_9  and  C_14
REMARK    3  A    between atoms: C_14  and  C_16
REMARK    4  A    between atoms: C_14  and  N_25
REMARK    5  A    between atoms: N_20  and  C_21
REMARK    6  A    between atoms: C_21  and  C_22
REMARK    7  A    between atoms: C_22  and  O_23
REMARK    8  A    between atoms: O_23  and  C_24
REMARK    9  A    between atoms: N_25  and  C_26
REMARK   10  A    between atoms: N_25  and  C_34
REMARK   11  A    between atoms: C_26  and  C_27
REMARK   12  A    between atoms: C_34  and  C_35
REMARK                            x       y       z     vdW  Elec       q    Type
REMARK                         _______ _______ _______ _____ _____    ______ ____
ROOT
ATOM      1  C   UNL     1       1.358  -4.879   2.814  0.00  0.00    +0.019 C 
ENDROOT
BRANCH   1  10
ATOM      2  C   UNL     1       0.450   1.229  -0.774  0.00  0.00    +0.044 C 
ATOM      3  C   UNL     1       0.427  -0.272  -0.645  0.00  0.00    -0.050 A 
ATOM      4  C   UNL     1       0.510  -1.058  -1.795  0.00  0.00    +0.005 A 
ATOM      5  C   UNL     1       0.496  -2.416  -1.757  0.00  0.00    +0.024 A 
ATOM      6  C   UNL     1       0.395  -3.095  -0.529  0.00  0.00    +0.040 A 
ATOM      7  N   UNL     1       0.382  -4.428  -0.504  0.00  0.00    -0.285 N 
ATOM      8  C   UNL     1       0.289  -5.128   0.614  0.00  0.00    +0.223 C 
ATOM      9  O   UNL     1       0.283  -6.344   0.574  0.00  0.00    -0.275 OA
ATOM     10  C   UNL     1       0.191  -4.412   1.942  0.00  0.00    +0.092 C 
ATOM     11  C   UNL     1       0.205  -2.896   1.919  0.00  0.00    -0.006 C 
ATOM     12  C   UNL     1       0.306  -2.291   0.701  0.00  0.00    -0.007 A 
ATOM     13  C   UNL     1       0.332  -0.832   0.589  0.00  0.00    +0.012 A 
ATOM     14  H   UNL     1       0.444  -4.906  -1.346  0.00  0.00    +0.155 HD
ENDBRANCH   1  10
BRANCH   1  15
ATOM     15  C   UNL     1       2.655  -4.653   2.080  0.00  0.00    +0.139 A 
ATOM     16  N   UNL     1       3.121  -5.359   1.078  0.00  0.00    -0.115 NA
ATOM     17  N   UNL     1       4.252  -4.853   0.727  0.00  0.00    -0.023 NA
ATOM     18  N   UNL     1       4.521  -3.843   1.479  0.00  0.00    -0.044 NA
ATOM     19  N   UNL     1       3.558  -3.684   2.323  0.00  0.00    -0.229 N 
BRANCH  19  20
ATOM     20  C   UNL     1       3.465  -2.647   3.353  0.00  0.00    +0.175 C 
BRANCH  20  21
ATOM     21  C   UNL     1       4.112  -3.152   4.644  0.00  0.00    +0.183 C 
BRANCH  21  22
ATOM     22  O   UNL     1       4.022  -2.140   5.649  0.00  0.00    -0.381 OA
ATOM     23  C   UNL     1       4.599  -2.512   6.902  0.00  0.00    +0.194 C 
ENDBRANCH  21  22
ENDBRANCH  20  21
ENDBRANCH  19  20
ENDBRANCH   1  15
BRANCH   1  24
ATOM     24  N   UNL     1       1.206  -6.309   3.111  0.00  0.00    +0.394 N 
ATOM     25  H   UNL     1       1.186  -6.832   2.248  0.00  0.00    -0.080 HD
BRANCH  24  26
ATOM     26  C   UNL     1      -0.048  -6.527   3.845  0.00  0.00    -0.041 C 
BRANCH  26  27
ATOM     27  C   UNL     1      -0.072  -5.648   5.069  0.00  0.00    -0.064 A 
ATOM     28  C   UNL     1       0.531  -6.075   6.237  0.00  0.00    +0.003 A 
ATOM     29  C   UNL     1       0.509  -5.270   7.361  0.00  0.00    +0.020 A 
ATOM     30  C   UNL     1      -0.117  -4.037   7.315  0.00  0.00    +0.041 A 
ATOM     31  C   UNL     1      -0.720  -3.610   6.146  0.00  0.00    +0.020 A 
ATOM     32  C   UNL     1      -0.692  -4.414   5.021  0.00  0.00    +0.003 A 
ATOM     33 CL   UNL     1      -0.145  -3.025   8.726  0.00  0.00    -0.084 Cl
ENDBRANCH  26  27
ENDBRANCH  24  26
BRANCH  24  34
ATOM     34  C   UNL     1       2.338  -6.762   3.931  0.00  0.00    -0.002 C 
BRANCH  34  35
ATOM     35  C   UNL     1       2.263  -8.257   4.110  0.00  0.00    +0.089 A 
ATOM     36  C   UNL     1       2.895  -9.172   3.354  0.00  0.00    +0.042 A 
ATOM     37  C   UNL     1       2.545 -10.441   3.870  0.00  0.00    +0.041 A 
ATOM     38  C   UNL     1       1.720 -10.225   4.910  0.00  0.00    +0.195 A 
ATOM     39  O   UNL     1       1.557  -8.900   5.054  0.00  0.00    -0.470 OA
ENDBRANCH  34  35
ENDBRANCH  24  34
ENDBRANCH   1  24
TORSDOF 10
