REMARK  Name = ZINC09254190
REMARK  5 active torsions:
REMARK  status: ('A' for Active; 'I' for Inactive)
REMARK    1  A    between atoms: C_1  and  C_2
REMARK    2  A    between atoms: C_2  and  C_21
REMARK    3  A    between atoms: N_5  and  C_9
REMARK    4  A    between atoms: C_9  and  N_53
REMARK    5  A    between atoms: C_12  and  C_15
REMARK                            x       y       z     vdW  Elec       q    Type
REMARK                         _______ _______ _______ _____ _____    ______ ____
ROOT
ATOM      1  C   UNL     1      -5.684  -2.228   1.711  0.00  0.00    +0.050 C 
ATOM      2  C   UNL     1      -5.579  -1.055   2.689  0.00  0.00    +0.168 C 
ATOM      3  C   UNL     1      -4.133  -0.632   2.860  0.00  0.00    +0.252 C 
ATOM      4  O   UNL     1      -3.220  -1.303   3.291  0.00  0.00    -0.272 OA
ATOM      5  N   UNL     1      -4.074   0.645   2.435  0.00  0.00    -0.241 N 
ATOM      6  C   UNL     1      -5.270   1.085   2.027  0.00  0.00    +0.308 C 
ATOM      7  O   UNL     1      -5.469   2.207   1.604  0.00  0.00    -0.252 OA
ATOM      8  N   UNL     1      -6.227   0.145   2.134  0.00  0.00    -0.279 N 
ATOM      9  H   UNL     1      -7.163   0.241   1.897  0.00  0.00    +0.152 HD
ENDROOT
BRANCH   2  10
ATOM     10  C   UNL     1      -6.186  -1.420   4.019  0.00  0.00    +0.138 A 
ATOM     11  C   UNL     1      -7.480  -1.277   4.336  0.00  0.00    +0.056 A 
ATOM     12  C   UNL     1      -7.617  -1.756   5.717  0.00  0.00    +0.020 A 
ATOM     13  C   UNL     1      -8.684  -1.872   6.607  0.00  0.00    +0.011 A 
ATOM     14  C   UNL     1      -8.469  -2.369   7.862  0.00  0.00    +0.001 A 
ATOM     15  C   UNL     1      -7.197  -2.760   8.254  0.00  0.00    +0.004 A 
ATOM     16  C   UNL     1      -6.130  -2.653   7.388  0.00  0.00    +0.047 A 
ATOM     17  C   UNL     1      -6.327  -2.150   6.108  0.00  0.00    +0.135 A 
ATOM     18  O   UNL     1      -5.507  -1.930   5.061  0.00  0.00    -0.457 OA
ENDBRANCH   2  10
BRANCH   5  19
ATOM     19  C   UNL     1      -2.853   1.454   2.425  0.00  0.00    +0.043 C 
BRANCH  19  25
ATOM     20  C   UNL     1      -0.727   1.579   1.269  0.00  0.00    -0.071 C 
ATOM     21  C   UNL     1      -0.013   1.086   0.008  0.00  0.00    +0.017 C 
ATOM     22  C   UNL     1      -0.738   1.583  -1.211  0.00  0.00    -0.048 C 
ATOM     23  C   UNL     1      -1.967   2.047  -1.166  0.00  0.00    -0.041 C 
ATOM     24  C   UNL     1      -2.764   2.134   0.104  0.00  0.00    -0.049 C 
ATOM     25  N   UNL     1      -2.163   1.262   1.130  0.00  0.00    +0.393 N 
ATOM     26  H   UNL     1      -2.264   0.283   0.840  0.00  0.00    -0.079 HD
BRANCH  22  27
ATOM     27  C   UNL     1      -0.040   1.549  -2.514  0.00  0.00    -0.022 A 
ATOM     28  C   UNL     1       0.321   0.328  -3.084  0.00  0.00    +0.008 A 
ATOM     29  C   UNL     1       0.966   0.302  -4.303  0.00  0.00    +0.001 A 
ATOM     30  C   UNL     1       1.266   1.485  -4.955  0.00  0.00    +0.000 A 
ATOM     31  C   UNL     1       0.916   2.700  -4.392  0.00  0.00    +0.001 A 
ATOM     32  C   UNL     1       0.265   2.739  -3.177  0.00  0.00    +0.008 A 
ENDBRANCH  22  27
ENDBRANCH  19  25
ENDBRANCH   5  19
TORSDOF 4
