REMARK  Name = ZINC33936814
REMARK  10 active torsions:
REMARK  status: ('A' for Active; 'I' for Inactive)
REMARK    1  A    between atoms: C_1  and  C_2
REMARK    2  A    between atoms: C_7  and  C_14
REMARK    3  A    between atoms: C_14  and  C_16
REMARK    4  A    between atoms: C_14  and  N_28
REMARK    5  A    between atoms: N_20  and  C_21
REMARK    6  A    between atoms: C_21  and  C_22
REMARK    7  A    between atoms: N_28  and  C_29
REMARK    8  A    between atoms: N_28  and  C_36
REMARK    9  A    between atoms: C_29  and  C_30
REMARK   10  A    between atoms: C_36  and  C_37
REMARK                            x       y       z     vdW  Elec       q    Type
REMARK                         _______ _______ _______ _____ _____    ______ ____
ROOT
ATOM      1  C   UNL     1      -0.553  -6.829   0.229  0.00  0.00    +0.163 C 
ENDROOT
BRANCH   1   8
ATOM      2  C   UNL     1       1.079   0.573  -2.255  0.00  0.00    +0.044 C 
ATOM      3  C   UNL     1       1.000  -0.844  -1.749  0.00  0.00    -0.048 A 
ATOM      4  C   UNL     1       2.161  -1.500  -1.361  0.00  0.00    +0.004 A 
ATOM      5  C   UNL     1       2.112  -2.785  -0.900  0.00  0.00    +0.010 A 
ATOM      6  C   UNL     1       0.882  -3.446  -0.818  0.00  0.00    -0.001 A 
ATOM      7  C   UNL     1       0.793  -4.823  -0.328  0.00  0.00    +0.021 A 
ATOM      8  C   UNL     1      -0.426  -5.413  -0.270  0.00  0.00    +0.042 A 
ATOM      9  C   UNL     1      -1.578  -4.705  -0.676  0.00  0.00    +0.254 A 
ATOM     10  O   UNL     1      -2.665  -5.254  -0.616  0.00  0.00    -0.268 OA
ATOM     11  N   UNL     1      -1.506  -3.440  -1.127  0.00  0.00    -0.322 N 
ATOM     12  H   UNL     1      -2.318  -2.983  -1.398  0.00  0.00    +0.169 HD
ATOM     13  C   UNL     1      -0.297  -2.785  -1.210  0.00  0.00    +0.049 A 
ATOM     14  C   UNL     1      -0.223  -1.474  -1.672  0.00  0.00    +0.029 A 
ENDBRANCH   1   8
BRANCH   1  15
ATOM     15  C   UNL     1       0.817  -7.380   0.530  0.00  0.00    +0.173 A 
ATOM     16  N   UNL     1       1.598  -7.036   1.525  0.00  0.00    -0.111 NA
ATOM     17  N   UNL     1       2.680  -7.730   1.439  0.00  0.00    -0.023 NA
ATOM     18  N   UNL     1       2.611  -8.507   0.415  0.00  0.00    -0.044 NA
ATOM     19  N   UNL     1       1.475  -8.324  -0.169  0.00  0.00    -0.225 N 
BRANCH  19  20
ATOM     20  C   UNL     1       0.993  -9.013  -1.368  0.00  0.00    +0.179 C 
BRANCH  20  21
ATOM     21  C   UNL     1       1.418  -8.230  -2.612  0.00  0.00    +0.140 C 
ATOM     22  C   UNL     1       0.996  -8.989  -3.895  0.00  0.00    +0.035 C 
ATOM     23  C   UNL     1       0.909  -7.819  -4.914  0.00  0.00    +0.031 C 
ATOM     24  C   UNL     1       0.408  -6.654  -4.033  0.00  0.00    +0.160 C 
ATOM     25  O   UNL     1       0.724  -6.974  -2.671  0.00  0.00    -0.375 OA
ENDBRANCH  20  21
ENDBRANCH  19  20
ENDBRANCH   1  15
BRANCH   1  26
ATOM     26  N   UNL     1      -1.367  -6.846   1.452  0.00  0.00    -0.280 NA
BRANCH  26  27
ATOM     27  C   UNL     1      -1.583  -8.222   1.920  0.00  0.00    +0.121 C 
BRANCH  27  28
ATOM     28  C   UNL     1      -2.719  -8.242   2.911  0.00  0.00    -0.033 A 
ATOM     29  C   UNL     1      -2.454  -8.186   4.267  0.00  0.00    +0.005 A 
ATOM     30  C   UNL     1      -3.496  -8.204   5.175  0.00  0.00    +0.000 A 
ATOM     31  C   UNL     1      -4.802  -8.279   4.728  0.00  0.00    +0.000 A 
ATOM     32  C   UNL     1      -5.066  -8.334   3.373  0.00  0.00    +0.000 A 
ATOM     33  C   UNL     1      -4.025  -8.311   2.464  0.00  0.00    +0.005 A 
ENDBRANCH  27  28
ENDBRANCH  26  27
BRANCH  26  34
ATOM     34  C   UNL     1      -0.755  -6.022   2.503  0.00  0.00    +0.128 C 
BRANCH  34  35
ATOM     35  C   UNL     1      -1.376  -4.649   2.489  0.00  0.00    +0.004 A 
ATOM     36  C   UNL     1      -2.531  -4.229   3.060  0.00  0.00    +0.012 A 
ATOM     37  C   UNL     1      -2.907  -2.906   2.916  0.00  0.00    +0.008 A 
ATOM     38  C   UNL     1      -2.110  -2.069   2.208  0.00  0.00    +0.045 A 
ATOM     39  S   UNL     1      -0.776  -3.152   1.724  0.00  0.00    -0.100 S 
ENDBRANCH  34  35
ENDBRANCH  26  34
ENDBRANCH   1  26
TORSDOF 9
