REMARK  Name = ZINC06824933
REMARK  7 active torsions:
REMARK  status: ('A' for Active; 'I' for Inactive)
REMARK    1  A    between atoms: C_1  and  C_2
REMARK    2  A    between atoms: C_3  and  C_26
REMARK    3  A    between atoms: C_4  and  C_10
REMARK    4  A    between atoms: C_7  and  C_8
REMARK    5  A    between atoms: N_12  and  N_13
REMARK    6  A    between atoms: C_14  and  C_15
REMARK    7  A    between atoms: C_22  and  O_25
REMARK                            x       y       z     vdW  Elec       q    Type
REMARK                         _______ _______ _______ _____ _____    ______ ____
ROOT
ATOM      1  C   UNL     1       0.108  -2.797  -2.522  0.00  0.00    +0.264 C 
ATOM      2  O   UNL     1      -0.145  -2.160  -3.527  0.00  0.00    -0.268 OA
ATOM      3  N   UNL     1       0.117  -4.144  -2.563  0.00  0.00    -0.203 N 
ATOM      4  H   UNL     1       0.246  -4.653  -1.747  0.00  0.00    +0.178 HD
ENDROOT
BRANCH   1   8
ATOM      5  C   UNL     1      -0.723   1.004   0.601  0.00  0.00    +0.044 C 
ATOM      6  C   UNL     1       0.008  -0.266   0.250  0.00  0.00    -0.043 A 
ATOM      7  C   UNL     1      -0.273  -0.918  -0.933  0.00  0.00    -0.035 A 
ATOM      8  C   UNL     1       0.405  -2.094  -1.257  0.00  0.00    +0.043 A 
ATOM      9  C   UNL     1       1.365  -2.603  -0.381  0.00  0.00    +0.029 A 
ATOM     10  C   UNL     1       1.637  -1.942   0.800  0.00  0.00    +0.022 A 
ATOM     11  C   UNL     1       0.964  -0.772   1.112  0.00  0.00    -0.033 A 
ATOM     12  C   UNL     1       1.270  -0.052   2.400  0.00  0.00    +0.045 C 
ATOM     13 BR   UNL     1       2.936  -2.630   1.990  0.00  0.00    -0.050 Br
ATOM     14  C   UNL     1      -1.311  -0.361  -1.873  0.00  0.00    +0.045 C 
ENDBRANCH   1   8
BRANCH   3  15
ATOM     15  N   UNL     1      -0.060  -4.810  -3.783  0.00  0.00    -0.186 NA
ATOM     16  C   UNL     1      -0.111  -6.107  -3.814  0.00  0.00    +0.158 C 
BRANCH  16  17
ATOM     17  C   UNL     1      -0.318  -6.866  -2.568  0.00  0.00    +0.084 A 
ATOM     18  C   UNL     1      -0.223  -8.269  -2.594  0.00  0.00    +0.030 A 
ATOM     19  C   UNL     1      -0.413  -8.981  -1.448  0.00  0.00    +0.012 A 
ATOM     20  C   UNL     1      -0.702  -8.276  -0.262  0.00  0.00    +0.004 A 
ATOM     21  C   UNL     1      -0.908  -8.949   0.953  0.00  0.00    +0.010 A 
ATOM     22  C   UNL     1      -1.185  -8.238   2.081  0.00  0.00    +0.004 A 
ATOM     23  C   UNL     1      -1.267  -6.849   2.051  0.00  0.00    +0.047 A 
ATOM     24  C   UNL     1      -1.073  -6.158   0.888  0.00  0.00    +0.143 A 
ATOM     25  C   UNL     1      -0.784  -6.862  -0.301  0.00  0.00    +0.113 A 
ATOM     26  N   UNL     1      -0.584  -6.213  -1.450  0.00  0.00    -0.242 NA
BRANCH  24  27
ATOM     27  O   UNL     1      -1.158  -4.803   0.877  0.00  0.00    -0.505 OA
ATOM     28  H   UNL     1      -0.307  -4.354   0.979  0.00  0.00    +0.292 HD
ENDBRANCH  24  27
ENDBRANCH  16  17
ENDBRANCH   3  15
TORSDOF 4
