REMARK  Name = ZINC20706704
REMARK  4 active torsions:
REMARK  status: ('A' for Active; 'I' for Inactive)
REMARK    1  A    between atoms: C_1  and  C_2
REMARK    2  A    between atoms: C_2  and  C_4
REMARK    3  A    between atoms: C_17  and  C_20
REMARK    4  A    between atoms: C_25  and  O_26
REMARK                            x       y       z     vdW  Elec       q    Type
REMARK                         _______ _______ _______ _____ _____    ______ ____
ROOT
ATOM      1  C   UNL     1      -5.236   3.223   1.993  0.00  0.00    +0.017 A 
ATOM      2  C   UNL     1      -4.952   3.188   3.364  0.00  0.00    +0.013 A 
ATOM      3  C   UNL     1      -3.808   2.593   3.809  0.00  0.00    +0.024 A 
ATOM      4  C   UNL     1      -2.913   2.016   2.909  0.00  0.00    +0.031 A 
ATOM      5  C   UNL     1      -3.189   2.056   1.539  0.00  0.00    -0.019 A 
ATOM      6  C   UNL     1      -4.342   2.639   1.086  0.00  0.00    +0.017 A 
ATOM      7  C   UNL     1      -2.234   1.397   0.620  0.00  0.00    +0.049 C 
ATOM      8  C   UNL     1      -2.088   1.820  -0.796  0.00  0.00    -0.023 C 
ATOM      9  C   UNL     1      -0.827   1.630  -1.167  0.00  0.00    -0.030 C 
ATOM     10  C   UNL     1      -0.013   1.086   0.008  0.00  0.00    +0.033 C 
ATOM     11  C   UNL     1      -0.807   1.618   1.208  0.00  0.00    +0.029 C 
ATOM     12  C   UNL     1      -0.765   0.800   2.486  0.00  0.00    +0.108 C 
ATOM     13  N   UNL     1      -1.746   1.431   3.395  0.00  0.00    -0.336 N 
ATOM     14  H   UNL     1      -1.562   1.445   4.480  0.00  0.00    +0.147 HD
ENDROOT
BRANCH  12  15
ATOM     15  C   UNL     1       0.615   0.849   3.090  0.00  0.00    +0.014 A 
ATOM     16  C   UNL     1       0.879   1.703   4.143  0.00  0.00    +0.009 A 
ATOM     17  C   UNL     1       2.144   1.747   4.699  0.00  0.00    +0.001 A 
ATOM     18  C   UNL     1       3.148   0.937   4.201  0.00  0.00    +0.004 A 
ATOM     19  C   UNL     1       2.890   0.082   3.148  0.00  0.00    +0.046 A 
ATOM     20  C   UNL     1       1.619   0.031   2.593  0.00  0.00    +0.122 A 
BRANCH  20  21
ATOM     21  O   UNL     1       1.360  -0.814   1.561  0.00  0.00    -0.506 OA
ATOM     22  H   UNL     1       2.157  -1.462   1.167  0.00  0.00    +0.292 HD
ENDBRANCH  20  21
ENDBRANCH  12  15
BRANCH   1  24
ATOM     23  C   UNL     1      -7.420   4.496   2.488  0.00  0.00    +0.091 C 
ATOM     24  C   UNL     1      -6.462   3.868   1.509  0.00  0.00    +0.160 C 
ATOM     25  O   UNL     1      -6.704   3.897   0.320  0.00  0.00    -0.292 OA
ENDBRANCH   1  24
TORSDOF 3
