REMARK  Name = ZINC11961182
REMARK  12 active torsions:
REMARK  status: ('A' for Active; 'I' for Inactive)
REMARK    1  A    between atoms: C_1  and  C_2
REMARK    2  A    between atoms: C_5  and  C_7
REMARK    3  A    between atoms: C_9  and  C_17
REMARK    4  A    between atoms: C_11  and  C_16
REMARK    5  A    between atoms: C_17  and  O_19
REMARK    6  A    between atoms: O_19  and  C_20
REMARK    7  A    between atoms: C_20  and  C_22
REMARK    8  A    between atoms: C_20  and  C_23
REMARK    9  A    between atoms: N_28  and  C_29
REMARK   10  A    between atoms: C_29  and  C_30
REMARK   11  A    between atoms: C_29  and  C_31
REMARK   12  A    between atoms: C_29  and  C_32
REMARK                            x       y       z     vdW  Elec       q    Type
REMARK                         _______ _______ _______ _____ _____    ______ ____
ROOT
ATOM      1  C   UNL     1       4.307  -6.039   0.484  0.00  0.00    +0.341 C 
ATOM      2  O   UNL     1       4.688  -7.190   0.418  0.00  0.00    -0.245 OA
ENDROOT
BRANCH   1   5
ATOM      3  C   UNL     1       0.932  -4.439   1.021  0.00  0.00    +0.082 A 
ATOM      4  C   UNL     1       2.304  -4.694   1.135  0.00  0.00    +0.044 A 
ATOM      5  C   UNL     1       2.862  -5.732   0.397  0.00  0.00    +0.075 A 
ATOM      6  C   UNL     1       2.008  -6.483  -0.439  0.00  0.00    +0.077 A 
ATOM      7  C   UNL     1       2.212  -7.614  -1.341  0.00  0.00    +0.091 A 
ATOM      8  N   UNL     1       1.060  -7.907  -1.863  0.00  0.00    -0.080 NA
ATOM      9  O   UNL     1       0.072  -7.029  -1.362  0.00  0.00    -0.334 OA
ATOM     10  C   UNL     1       0.640  -6.163  -0.498  0.00  0.00    +0.260 A 
ATOM     11  N   UNL     1       0.158  -5.169   0.229  0.00  0.00    -0.209 NA
ATOM     12  C   UNL     1       3.520  -8.312  -1.615  0.00  0.00    +0.070 C 
BRANCH   3  17
ATOM     13  C   UNL     1      -0.431  -0.098   4.343  0.00  0.00    +0.051 C 
ATOM     14  C   UNL     1      -0.322  -1.262   3.392  0.00  0.00    -0.013 A 
ATOM     15  C   UNL     1      -1.298  -1.862   2.661  0.00  0.00    +0.011 A 
ATOM     16  C   UNL     1      -0.971  -2.922   1.848  0.00  0.00    +0.018 A 
ATOM     17  C   UNL     1       0.334  -3.340   1.803  0.00  0.00    +0.038 A 
ATOM     18  S   UNL     1       1.123  -2.203   2.930  0.00  0.00    -0.092 S 
ENDBRANCH   3  17
ENDBRANCH   1   5
BRANCH   1  19
ATOM     19  O   UNL     1       5.199  -5.041   0.636  0.00  0.00    -0.449 OA
BRANCH  19  20
ATOM     20  C   UNL     1       6.577  -5.410   0.713  0.00  0.00    +0.259 C 
ATOM     21  C   UNL     1       7.181  -5.423  -0.693  0.00  0.00    +0.062 C 
BRANCH  20  22
ATOM     22  C   UNL     1       7.317  -4.414   1.568  0.00  0.00    +0.261 C 
ATOM     23  O   UNL     1       6.723  -3.480   2.062  0.00  0.00    -0.271 OA
ATOM     24  N   UNL     1       8.640  -4.561   1.783  0.00  0.00    -0.237 N 
ATOM     25  C   UNL     1       9.301  -3.670   2.547  0.00  0.00    +0.306 C 
ATOM     26  O   UNL     1       8.705  -2.734   3.043  0.00  0.00    -0.252 OA
ATOM     27  N   UNL     1      10.623  -3.817   2.762  0.00  0.00    -0.294 N 
ATOM     28  H   UNL     1       9.115  -5.308   1.387  0.00  0.00    +0.159 HD
ATOM     29  H   UNL     1      11.099  -4.564   2.366  0.00  0.00    +0.151 HD
BRANCH  27  30
ATOM     30  C   UNL     1      11.343  -2.848   3.593  0.00  0.00    +0.028 C 
ATOM     31  C   UNL     1      10.739  -2.835   4.999  0.00  0.00    +0.031 C 
ATOM     32  C   UNL     1      12.819  -3.243   3.676  0.00  0.00    +0.031 C 
ATOM     33  C   UNL     1      11.222  -1.454   2.973  0.00  0.00    +0.031 C 
ENDBRANCH  27  30
ENDBRANCH  20  22
ENDBRANCH  19  20
ENDBRANCH   1  19
TORSDOF 6
