REMARK  Name = ZINC05607139
REMARK  7 active torsions:
REMARK  status: ('A' for Active; 'I' for Inactive)
REMARK    1  A    between atoms: C_1  and  C_2
REMARK    2  A    between atoms: C_5  and  N_9
REMARK    3  A    between atoms: C_6  and  C_8
REMARK    4  A    between atoms: C_10  and  C_12
REMARK    5  A    between atoms: C_12  and  C_14
REMARK    6  A    between atoms: C_12  and  N_15
REMARK    7  A    between atoms: C_26  and  C_30
REMARK                            x       y       z     vdW  Elec       q    Type
REMARK                         _______ _______ _______ _____ _____    ______ ____
ROOT
ATOM      1  N   UNL     1       0.057  -4.066  -1.919  0.00  0.00    -0.199 N 
ATOM      2  C   UNL     1      -0.067  -2.886  -1.264  0.00  0.00    +0.279 A 
ATOM      3  O   UNL     1      -0.859  -2.732  -0.350  0.00  0.00    -0.265 OA
ATOM      4  C   UNL     1       0.795  -1.829  -1.717  0.00  0.00    +0.079 A 
ATOM      5  C   UNL     1       0.860  -0.480  -1.188  0.00  0.00    -0.023 A 
ATOM      6  C   UNL     1       1.752   0.358  -1.769  0.00  0.00    -0.004 A 
ATOM      7  S   UNL     1       2.537  -0.606  -3.036  0.00  0.00    -0.071 S 
ATOM      8  C   UNL     1       1.671  -2.124  -2.785  0.00  0.00    +0.138 A 
ATOM      9  N   UNL     1       1.746  -3.305  -3.388  0.00  0.00    -0.123 NA
ATOM     10  N   UNL     1       0.961  -4.249  -2.966  0.00  0.00    -0.061 NA
ATOM     11  C   UNL     1       2.017   1.788  -1.413  0.00  0.00    +0.046 C 
ATOM     12  C   UNL     1       1.389   2.072  -0.042  0.00  0.00    -0.009 C 
ATOM     13  C   UNL     1      -0.043   1.529  -0.036  0.00  0.00    +0.008 C 
ATOM     14  C   UNL     1      -0.018   0.000  -0.036  0.00  0.00    +0.037 C 
ATOM     15  C   UNL     1       1.367   3.581   0.210  0.00  0.00    +0.008 C 
ENDROOT
BRANCH   1  16
ATOM     16  C   UNL     1      -0.788  -5.191  -1.512  0.00  0.00    +0.195 C 
ATOM     17  C   UNL     1      -1.652  -5.633  -2.695  0.00  0.00    +0.043 C 
BRANCH  16  19
ATOM     18  N   UNL     1      -0.482  -7.488  -0.647  0.00  0.00    -0.284 N 
ATOM     19  C   UNL     1       0.082  -6.338  -1.068  0.00  0.00    +0.242 C 
ATOM     20  O   UNL     1       1.289  -6.227  -1.089  0.00  0.00    -0.273 OA
ATOM     21  H   UNL     1      -1.445  -7.550  -0.554  0.00  0.00    +0.155 HD
BRANCH  18  26
ATOM     22  C   UNL     1       2.781 -11.964   0.578  0.00  0.00    +0.044 C 
ATOM     23  C   UNL     1       1.914 -10.775   0.252  0.00  0.00    -0.050 A 
ATOM     24  C   UNL     1       2.367  -9.812  -0.631  0.00  0.00    +0.005 A 
ATOM     25  C   UNL     1       1.576  -8.721  -0.931  0.00  0.00    +0.024 A 
ATOM     26  C   UNL     1       0.323  -8.592  -0.345  0.00  0.00    +0.036 A 
ATOM     27  C   UNL     1      -0.127  -9.558   0.544  0.00  0.00    -0.029 A 
ATOM     28  C   UNL     1       0.667 -10.650   0.836  0.00  0.00    +0.008 A 
ATOM     29  C   UNL     1      -1.483  -9.419   1.187  0.00  0.00    +0.045 C 
ENDBRANCH  18  26
ENDBRANCH  16  19
ENDBRANCH   1  16
TORSDOF 3
