REMARK  Name = ZINC39657383
REMARK  6 active torsions:
REMARK  status: ('A' for Active; 'I' for Inactive)
REMARK    1  A    between atoms: C_3  and  C_6
REMARK    2  A    between atoms: C_6  and  C_7
REMARK    3  A    between atoms: C_7  and  N_8
REMARK    4  A    between atoms: C_9  and  C_11
REMARK    5  A    between atoms: C_22  and  C_24
REMARK    6  A    between atoms: C_27  and  C_31
REMARK                            x       y       z     vdW  Elec       q    Type
REMARK                         _______ _______ _______ _____ _____    ______ ____
ROOT
ATOM      1  C   UNL     1       7.199   3.171   2.887  0.00  0.00    +0.100 C 
ATOM      2  C   UNL     1       7.432   4.410   1.993  0.00  0.00    +0.121 C 
ATOM      3  N   UNL     1       7.517   5.545   2.942  0.00  0.00    -0.296 N 
ATOM      4  C   UNL     1       8.280   5.006   4.094  0.00  0.00    +0.115 C 
ATOM      5  C   UNL     1       7.761   3.565   4.263  0.00  0.00    -0.004 C 
ATOM      6  C   UNL     1       8.904   2.634   4.654  0.00  0.00    -0.010 C 
ATOM      7  C   UNL     1       9.407   3.008   6.051  0.00  0.00    -0.082 C 
ATOM      8  N   UNL     1       8.306   2.896   7.016  0.00  0.00    +0.379 N 
ATOM      9  C   UNL     1       7.251   3.862   6.686  0.00  0.00    -0.082 C 
ATOM     10  C   UNL     1       6.657   3.523   5.316  0.00  0.00    -0.010 C 
ATOM     11  C   UNL     1       7.014   6.786   2.792  0.00  0.00    +0.249 C 
ATOM     12  O   UNL     1       7.248   7.641   3.624  0.00  0.00    -0.270 OA
ATOM     13  H   UNL     1       7.927   1.962   6.984  0.00  0.00    -0.086 HD
ATOM     14  H   UNL     1       8.654   3.084   7.944  0.00  0.00    -0.086 HD
ENDROOT
BRANCH  11  15
ATOM     15  C   UNL     1       6.179   7.108   1.617  0.00  0.00    +0.072 A 
ATOM     16  C   UNL     1       6.452   6.519   0.381  0.00  0.00    +0.016 A 
ATOM     17  C   UNL     1       5.668   6.823  -0.712  0.00  0.00    +0.013 A 
ATOM     18  C   UNL     1       4.613   7.711  -0.587  0.00  0.00    +0.058 A 
ATOM     19  C   UNL     1       4.335   8.299   0.632  0.00  0.00    +0.051 A 
ATOM     20  C   UNL     1       5.109   7.999   1.739  0.00  0.00    +0.136 A 
ATOM     21  F   UNL     1       4.834   8.569   2.933  0.00  0.00    -0.205 F 
BRANCH  18  22
ATOM     22  C   UNL     1       3.762   8.037  -1.788  0.00  0.00    +0.418 C 
ATOM     23  F   UNL     1       2.693   7.138  -1.860  0.00  0.00    -0.166 F 
ATOM     24  F   UNL     1       3.268   9.341  -1.668  0.00  0.00    -0.166 F 
ATOM     25  F   UNL     1       4.536   7.937  -2.949  0.00  0.00    -0.166 F 
ENDBRANCH  18  22
ENDBRANCH  11  15
BRANCH   1  27
ATOM     26  N   UNL     1       5.314   1.604   3.215  0.00  0.00    -0.315 N 
ATOM     27  C   UNL     1       5.727   2.866   2.988  0.00  0.00    +0.218 C 
ATOM     28  O   UNL     1       4.914   3.758   2.866  0.00  0.00    -0.275 OA
ATOM     29  H   UNL     1       5.964   0.891   3.312  0.00  0.00    +0.149 HD
BRANCH  26  30
ATOM     30  C   UNL     1       3.882   1.308   3.313  0.00  0.00    +0.109 C 
BRANCH  30  31
ATOM     31  C   UNL     1       3.687  -0.188   3.572  0.00  0.00    +0.061 C 
BRANCH  31  34
ATOM     32  C   UNL     1       0.024  -1.075   3.022  0.00  0.00    +0.008 A 
ATOM     33  C   UNL     1       1.346  -0.839   2.693  0.00  0.00    +0.011 A 
ATOM     34  C   UNL     1       2.215  -0.492   3.673  0.00  0.00    -0.009 A 
ATOM     35  S   UNL     1       1.163  -0.490   5.116  0.00  0.00    -0.102 S 
ATOM     36  C   UNL     1      -0.364  -0.952   4.314  0.00  0.00    +0.045 A 
ENDBRANCH  31  34
ENDBRANCH  30  31
ENDBRANCH  26  30
ENDBRANCH   1  27
TORSDOF 6
