REMARK  Name = ZINC39634879
REMARK  15 active torsions:
REMARK  status: ('A' for Active; 'I' for Inactive)
REMARK    1  A    between atoms: C_1  and  C_2
REMARK    2  A    between atoms: C_2  and  C_3
REMARK    3  A    between atoms: C_2  and  N_4
REMARK    4  A    between atoms: N_4  and  C_5
REMARK    5  A    between atoms: N_4  and  C_33
REMARK    6  A    between atoms: C_5  and  C_6
REMARK    7  A    between atoms: C_6  and  N_7
REMARK    8  A    between atoms: C_8  and  C_10
REMARK    9  A    between atoms: C_21  and  C_23
REMARK   10  A    between atoms: C_23  and  C_24
REMARK   11  A    between atoms: C_24  and  C_25
REMARK   12  A    between atoms: C_28  and  O_31
REMARK   13  A    between atoms: O_31  and  C_32
REMARK   14  A    between atoms: C_33  and  C_34
REMARK   15  A    between atoms: C_33  and  C_35
REMARK                            x       y       z     vdW  Elec       q    Type
REMARK                         _______ _______ _______ _____ _____    ______ ____
ROOT
ATOM      1  C   UNL     1      -4.903   0.761  -4.351  0.00  0.00    +0.100 C 
ATOM      2  C   UNL     1      -4.034   1.779  -5.123  0.00  0.00    +0.121 C 
ATOM      3  N   UNL     1      -4.966   2.875  -5.476  0.00  0.00    -0.300 N 
ATOM      4  C   UNL     1      -5.827   3.027  -4.279  0.00  0.00    +0.115 C 
ATOM      5  C   UNL     1      -6.078   1.585  -3.798  0.00  0.00    -0.004 C 
ATOM      6  C   UNL     1      -6.089   1.532  -2.273  0.00  0.00    -0.010 C 
ATOM      7  C   UNL     1      -7.300   2.309  -1.749  0.00  0.00    -0.082 C 
ATOM      8  N   UNL     1      -8.532   1.720  -2.288  0.00  0.00    +0.379 N 
ATOM      9  C   UNL     1      -8.556   1.859  -3.749  0.00  0.00    -0.082 C 
ATOM     10  C   UNL     1      -7.398   1.063  -4.358  0.00  0.00    -0.010 C 
ATOM     11  C   UNL     1      -5.019   3.576  -6.627  0.00  0.00    +0.216 C 
ATOM     12  O   UNL     1      -5.847   4.451  -6.766  0.00  0.00    -0.276 OA
ATOM     13  H   UNL     1      -8.571   0.742  -2.044  0.00  0.00    -0.086 HD
ATOM     14  H   UNL     1      -9.331   2.195  -1.894  0.00  0.00    -0.086 HD
ENDROOT
BRANCH   1  16
ATOM     15  N   UNL     1      -4.397  -1.101  -2.804  0.00  0.00    -0.317 N 
ATOM     16  C   UNL     1      -4.115   0.148  -3.222  0.00  0.00    +0.218 C 
ATOM     17  O   UNL     1      -3.226   0.779  -2.690  0.00  0.00    -0.275 OA
ATOM     18  H   UNL     1      -5.108  -1.606  -3.229  0.00  0.00    +0.149 HD
BRANCH  15  19
ATOM     19  C   UNL     1      -3.631  -1.698  -1.706  0.00  0.00    +0.085 C 
BRANCH  19  20
ATOM     20  C   UNL     1      -4.149  -3.111  -1.431  0.00  0.00    -0.059 C 
BRANCH  20  21
ATOM     21  N   UNL     1      -3.401  -3.697  -0.312  0.00  0.00    +0.384 N 
ATOM     22  H   UNL     1      -2.413  -3.667  -0.515  0.00  0.00    -0.081 HD
BRANCH  21  24
ATOM     23  C   UNL     1      -3.560  -5.883  -1.405  0.00  0.00    -0.014 C 
ATOM     24  C   UNL     1      -3.819  -5.092  -0.121  0.00  0.00    -0.074 C 
ATOM     25  C   UNL     1      -3.021  -5.711   1.029  0.00  0.00    -0.014 C 
ENDBRANCH  21  24
BRANCH  21  26
ATOM     26  C   UNL     1      -3.673  -2.933   0.913  0.00  0.00    -0.074 C 
ATOM     27  C   UNL     1      -4.969  -3.436   1.552  0.00  0.00    -0.014 C 
ATOM     28  C   UNL     1      -2.515  -3.116   1.896  0.00  0.00    -0.014 C 
ENDBRANCH  21  26
ENDBRANCH  20  21
ENDBRANCH  19  20
ENDBRANCH  15  19
ENDBRANCH   1  16
BRANCH  11  29
ATOM     29  C   UNL     1      -4.051   3.271  -7.740  0.00  0.00    +0.100 C 
BRANCH  29  30
ATOM     30  C   UNL     1      -4.324   4.202  -8.923  0.00  0.00    +0.044 C 
BRANCH  30  31
ATOM     31  C   UNL     1      -3.355   3.897 -10.037  0.00  0.00    -0.047 A 
ATOM     32  C   UNL     1      -2.139   4.553 -10.092  0.00  0.00    +0.007 A 
ATOM     33  C   UNL     1      -1.250   4.276 -11.112  0.00  0.00    +0.046 A 
ATOM     34  C   UNL     1      -1.577   3.338 -12.080  0.00  0.00    +0.120 A 
ATOM     35  C   UNL     1      -2.797   2.681 -12.022  0.00  0.00    +0.046 A 
ATOM     36  C   UNL     1      -3.681   2.958 -10.997  0.00  0.00    +0.007 A 
BRANCH  34  37
ATOM     37  O   UNL     1      -0.703   3.064 -13.085  0.00  0.00    -0.495 OA
ATOM     38  C   UNL     1      -1.107   2.087 -14.047  0.00  0.00    +0.277 C 
ENDBRANCH  34  37
ENDBRANCH  30  31
ENDBRANCH  29  30
ENDBRANCH  11  29
TORSDOF 10
