REMARK  Name = ZINC59008271
REMARK  5 active torsions:
REMARK  status: ('A' for Active; 'I' for Inactive)
REMARK    1  A    between atoms: C_1  and  C_2
REMARK    2  A    between atoms: C_2  and  C_20
REMARK    3  A    between atoms: N_5  and  C_9
REMARK    4  A    between atoms: C_9  and  C_10
REMARK    5  A    between atoms: C_12  and  C_15
REMARK                            x       y       z     vdW  Elec       q    Type
REMARK                         _______ _______ _______ _____ _____    ______ ____
ROOT
ATOM      1  C   UNL     1      -0.019   1.526   0.010  0.00  0.00    +0.047 C 
ATOM      2  C   UNL     1       0.002  -0.004   0.002  0.00  0.00    +0.135 C 
ATOM      3  C   UNL     1      -1.403  -0.557   0.139  0.00  0.00    +0.251 C 
ATOM      4  O   UNL     1      -2.332  -0.392  -0.621  0.00  0.00    -0.272 OA
ATOM      5  N   UNL     1      -1.403  -1.272   1.282  0.00  0.00    -0.216 N 
ATOM      6  C   UNL     1      -0.206  -1.247   1.879  0.00  0.00    +0.310 C 
ATOM      7  O   UNL     1       0.040  -1.819   2.924  0.00  0.00    -0.252 OA
ATOM      8  N   UNL     1       0.695  -0.520   1.195  0.00  0.00    -0.281 N 
ATOM      9  H   UNL     1       1.621  -0.365   1.440  0.00  0.00    +0.152 HD
ENDROOT
BRANCH   2  10
ATOM     10  C   UNL     1       0.657  -0.517  -1.255  0.00  0.00    -0.015 A 
ATOM     11  C   UNL     1      -0.108  -0.772  -2.378  0.00  0.00    +0.007 A 
ATOM     12  C   UNL     1       0.492  -1.242  -3.530  0.00  0.00    +0.020 A 
ATOM     13  C   UNL     1       1.859  -1.458  -3.560  0.00  0.00    +0.041 A 
ATOM     14  C   UNL     1       2.623  -1.203  -2.436  0.00  0.00    +0.020 A 
ATOM     15  C   UNL     1       2.023  -0.727  -1.286  0.00  0.00    +0.007 A 
ATOM     16 CL   UNL     1       2.613  -2.049  -5.008  0.00  0.00    -0.084 Cl
ENDBRANCH   2  10
BRANCH   5  17
ATOM     17  C   UNL     1      -2.569  -1.986   1.805  0.00  0.00    +0.197 C 
BRANCH  17  18
ATOM     18  C   UNL     1      -2.585  -3.391   1.260  0.00  0.00    +0.190 A 
ATOM     19  N   UNL     1      -3.176  -3.774   0.127  0.00  0.00    -0.190 NA
ATOM     20  C   UNL     1      -3.000  -5.067  -0.057  0.00  0.00    +0.265 A 
ATOM     21  O   UNL     1      -2.279  -5.538   0.978  0.00  0.00    -0.332 OA
ATOM     22  N   UNL     1      -2.017  -4.424   1.817  0.00  0.00    -0.059 NA
BRANCH  20  23
ATOM     23  C   UNL     1      -3.502  -5.855  -1.190  0.00  0.00    +0.077 A 
ATOM     24  C   UNL     1      -3.360  -7.209  -1.442  0.00  0.00    +0.021 A 
ATOM     25  C   UNL     1      -3.949  -7.666  -2.600  0.00  0.00    +0.008 A 
ATOM     26  C   UNL     1      -4.609  -6.788  -3.393  0.00  0.00    +0.046 A 
ATOM     27  S   UNL     1      -4.460  -5.318  -2.594  0.00  0.00    -0.092 S 
ENDBRANCH  20  23
ENDBRANCH  17  18
ENDBRANCH   5  17
TORSDOF 4
