REMARK  Name = ZINC40538094
REMARK  14 active torsions:
REMARK  status: ('A' for Active; 'I' for Inactive)
REMARK    1  A    between atoms: C_1  and  C_2
REMARK    2  A    between atoms: C_10  and  O_40
REMARK    3  A    between atoms: C_20  and  C_24
REMARK    4  A    between atoms: C_20  and  C_38
REMARK    5  A    between atoms: C_21  and  O_23
REMARK    6  A    between atoms: C_24  and  C_25
REMARK    7  A    between atoms: C_25  and  C_26
REMARK    8  A    between atoms: C_26  and  C_27
REMARK    9  A    between atoms: C_27  and  C_28
REMARK   10  A    between atoms: C_28  and  C_29
REMARK   11  A    between atoms: C_29  and  N_30
REMARK   12  A    between atoms: N_30  and  C_31
REMARK   13  A    between atoms: C_31  and  C_32
REMARK   14  A    between atoms: C_38  and  O_39
REMARK                            x       y       z     vdW  Elec       q    Type
REMARK                         _______ _______ _______ _____ _____    ______ ____
ROOT
ATOM      1  C   UNL     1       0.202   1.983   0.201  0.00  0.00    +0.014 C 
ATOM      2  C   UNL     1       0.116   0.466   0.348  0.00  0.00    -0.002 C 
ATOM      3  C   UNL     1      -1.311   0.041   0.622  0.00  0.00    +0.010 C 
ATOM      4  C   UNL     1      -1.729   0.572   1.999  0.00  0.00    +0.009 C 
ATOM      5  C   UNL     1      -0.819   0.055   3.107  0.00  0.00    +0.023 C 
ATOM      6  C   UNL     1      -1.251   0.637   4.429  0.00  0.00    -0.041 A 
ATOM      7  C   UNL     1      -2.484   0.236   4.930  0.00  0.00    +0.008 A 
ATOM      8  C   UNL     1      -2.946   0.720   6.135  0.00  0.00    +0.046 A 
ATOM      9  C   UNL     1      -2.173   1.618   6.857  0.00  0.00    +0.117 A 
ATOM     10  C   UNL     1      -0.946   2.019   6.359  0.00  0.00    +0.049 A 
ATOM     11  C   UNL     1      -0.485   1.530   5.145  0.00  0.00    -0.040 A 
ATOM     12  C   UNL     1       0.857   2.015   4.656  0.00  0.00    +0.036 C 
ATOM     13  C   UNL     1       0.933   1.836   3.133  0.00  0.00    +0.009 C 
ATOM     14  C   UNL     1       0.655   0.370   2.832  0.00  0.00    +0.000 C 
ATOM     15  C   UNL     1       1.021  -0.094   1.462  0.00  0.00    +0.002 C 
ATOM     16  C   UNL     1       2.420   0.204   0.914  0.00  0.00    +0.016 C 
ATOM     17  C   UNL     1       2.276  -0.222  -0.575  0.00  0.00    +0.021 C 
ATOM     18  C   UNL     1       0.761  -0.163  -0.900  0.00  0.00    +0.129 C 
ENDROOT
BRANCH  18  19
ATOM     19  O   UNL     1       0.525   0.665  -2.038  0.00  0.00    -0.391 OA
ATOM     20  H   UNL     1       0.906   0.325  -2.858  0.00  0.00    +0.210 HD
ENDBRANCH  18  19
BRANCH   9  21
ATOM     21  O   UNL     1      -2.618   2.099   8.047  0.00  0.00    -0.507 OA
ATOM     22  H   UNL     1      -2.356   1.566   8.810  0.00  0.00    +0.292 HD
ENDBRANCH   9  21
BRANCH  17  23
ATOM     23  C   UNL     1       3.055   0.733  -1.479  0.00  0.00    +0.012 C 
BRANCH  23  24
ATOM     24  C   UNL     1       4.506   0.815  -1.002  0.00  0.00    +0.001 C 
BRANCH  24  25
ATOM     25  C   UNL     1       5.253   1.869  -1.822  0.00  0.00    -0.000 C 
BRANCH  25  26
ATOM     26  C   UNL     1       6.705   1.952  -1.346  0.00  0.00    -0.002 C 
BRANCH  26  27
ATOM     27  C   UNL     1       7.452   3.005  -2.166  0.00  0.00    -0.019 C 
BRANCH  27  28
ATOM     28  C   UNL     1       8.903   3.088  -1.689  0.00  0.00    -0.082 C 
BRANCH  28  29
ATOM     29  N   UNL     1       9.621   4.099  -2.477  0.00  0.00    +0.383 N 
ATOM     30  H   UNL     1       9.601   3.842  -3.452  0.00  0.00    -0.085 HD
ATOM     31  H   UNL     1       9.176   4.997  -2.357  0.00  0.00    -0.085 HD
BRANCH  29  32
ATOM     32  C   UNL     1      11.014   4.179  -2.019  0.00  0.00    -0.026 C 
BRANCH  32  33
ATOM     33  C   UNL     1      11.750   5.216  -2.827  0.00  0.00    +0.024 A 
ATOM     34  C   UNL     1      11.867   6.505  -2.341  0.00  0.00    +0.021 A 
ATOM     35  C   UNL     1      12.545   7.452  -3.092  0.00  0.00    +0.003 A 
ATOM     36  C   UNL     1      13.084   7.066  -4.310  0.00  0.00    +0.020 A 
ATOM     37  C   UNL     1      12.928   5.759  -4.731  0.00  0.00    +0.111 A 
ATOM     38  N   UNL     1      12.280   4.883  -3.988  0.00  0.00    -0.262 NA
ENDBRANCH  32  33
ENDBRANCH  29  32
ENDBRANCH  28  29
ENDBRANCH  27  28
ENDBRANCH  26  27
ENDBRANCH  25  26
ENDBRANCH  24  25
ENDBRANCH  23  24
ENDBRANCH  17  23
BRANCH  17  39
ATOM     39  C   UNL     1       2.793  -1.652  -0.758  0.00  0.00    +0.165 C 
BRANCH  39  40
ATOM     40  O   UNL     1       4.139  -1.735  -0.286  0.00  0.00    -0.394 OA
ATOM     41  H   UNL     1       4.532  -2.615  -0.371  0.00  0.00    +0.209 HD
ENDBRANCH  39  40
ENDBRANCH  17  39
TORSDOF 13
