REMARK  Name = ZINC38935664
REMARK  4 active torsions:
REMARK  status: ('A' for Active; 'I' for Inactive)
REMARK    1  A    between atoms: C_4  and  C_7
REMARK    2  A    between atoms: C_8  and  C_9
REMARK    3  A    between atoms: N_10  and  N_11
REMARK    4  A    between atoms: C_12  and  C_18
REMARK                            x       y       z     vdW  Elec       q    Type
REMARK                         _______ _______ _______ _____ _____    ______ ____
ROOT
ATOM      1  N   UNL     1       6.193  -4.700  -0.191  0.00  0.00    -0.168 N 
ATOM      2  C   UNL     1       7.552  -4.125  -0.213  0.00  0.00    +0.301 C 
ATOM      3  N   UNL     1       8.421  -5.304  -0.359  0.00  0.00    -0.163 NA
ATOM      4  N   UNL     1       7.699  -6.303  -0.406  0.00  0.00    -0.096 NA
ATOM      5  C   UNL     1       6.391  -6.031  -0.309  0.00  0.00    +0.199 C 
ATOM      6  S   UNL     1       5.146  -7.205  -0.335  0.00  0.00    -0.013 S 
ENDROOT
BRANCH   2   7
ATOM      7  C   UNL     1       7.715  -3.193  -1.386  0.00  0.00    +0.151 A 
ATOM      8  C   UNL     1       8.861  -2.954  -2.048  0.00  0.00    +0.049 A 
ATOM      9  C   UNL     1       8.559  -2.023  -3.068  0.00  0.00    +0.041 A 
ATOM     10  C   UNL     1       7.246  -1.749  -2.969  0.00  0.00    +0.195 A 
ATOM     11  O   UNL     1       6.738  -2.465  -1.952  0.00  0.00    -0.464 OA
ENDBRANCH   2   7
BRANCH   1  13
ATOM     12  C   UNL     1       4.963  -2.734   0.145  0.00  0.00    +0.131 C 
ATOM     13  N   UNL     1       4.974  -4.020  -0.069  0.00  0.00    -0.184 NA
BRANCH  12  15
ATOM     14  C   UNL     1       3.724  -0.697   0.375  0.00  0.00    +0.009 C 
ATOM     15  C   UNL     1       3.735  -2.028   0.153  0.00  0.00    +0.022 C 
BRANCH  14  19
ATOM     16  C   UNL     1       0.048   1.419   0.397  0.00  0.00    +0.000 A 
ATOM     17  C   UNL     1       1.234   2.098   0.618  0.00  0.00    +0.001 A 
ATOM     18  C   UNL     1       2.433   1.417   0.612  0.00  0.00    +0.008 A 
ATOM     19  C   UNL     1       2.449   0.037   0.383  0.00  0.00    -0.025 A 
ATOM     20  C   UNL     1       1.246  -0.641   0.161  0.00  0.00    +0.008 A 
ATOM     21  C   UNL     1       0.055   0.054   0.169  0.00  0.00    +0.001 A 
ENDBRANCH  14  19
ENDBRANCH  12  15
ENDBRANCH   1  13
TORSDOF 4
