REMARK  Name = ZINC20681277
REMARK  4 active torsions:
REMARK  status: ('A' for Active; 'I' for Inactive)
REMARK    1  A    between atoms: C_6  and  C_7
REMARK    2  A    between atoms: C_18  and  C_23
REMARK    3  A    between atoms: N_25  and  C_26
REMARK    4  A    between atoms: C_26  and  C_27
REMARK                            x       y       z     vdW  Elec       q    Type
REMARK                         _______ _______ _______ _____ _____    ______ ____
ROOT
ATOM      1  C   UNL     1       7.769  -0.640   5.823  0.00  0.00    +0.105 C 
ATOM      2  C   UNL     1       8.388  -0.377   4.462  0.00  0.00    +0.029 C 
ATOM      3  C   UNL     1       9.824   0.165   4.440  0.00  0.00    +0.033 C 
ATOM      4  C   UNL     1       9.827   0.976   3.143  0.00  0.00    -0.030 C 
ATOM      5  C   UNL     1       8.594   1.374   2.853  0.00  0.00    -0.023 C 
ATOM      6  C   UNL     1       7.680   0.903   3.925  0.00  0.00    +0.049 C 
ATOM      7  C   UNL     1       6.266   0.562   3.658  0.00  0.00    -0.019 A 
ATOM      8  C   UNL     1       5.562   1.109   2.613  0.00  0.00    +0.019 A 
ATOM      9  C   UNL     1       4.220   0.773   2.417  0.00  0.00    +0.037 A 
ATOM     10  C   UNL     1       3.600  -0.132   3.283  0.00  0.00    +0.015 A 
ATOM     11  C   UNL     1       4.310  -0.687   4.321  0.00  0.00    +0.024 A 
ATOM     12  C   UNL     1       5.648  -0.356   4.520  0.00  0.00    +0.031 A 
ATOM     13  N   UNL     1       6.350  -0.964   5.560  0.00  0.00    -0.336 N 
ATOM     14  H   UNL     1       5.827  -1.696   6.192  0.00  0.00    +0.147 HD
ENDROOT
BRANCH   1  20
ATOM     15  C   UNL     1       8.119  -3.098   6.141  0.00  0.00    +0.006 A 
ATOM     16  C   UNL     1       8.752  -4.166   6.749  0.00  0.00    +0.015 A 
ATOM     17  C   UNL     1       9.715  -3.939   7.715  0.00  0.00    +0.018 A 
ATOM     18  C   UNL     1      10.048  -2.643   8.069  0.00  0.00    +0.015 A 
ATOM     19  C   UNL     1       9.418  -1.577   7.456  0.00  0.00    +0.006 A 
ATOM     20  C   UNL     1       8.456  -1.804   6.490  0.00  0.00    -0.027 A 
ATOM     21 BR   UNL     1      10.577  -5.399   8.554  0.00  0.00    -0.050 Br
ENDBRANCH   1  20
BRANCH   9  22
ATOM     22  C   UNL     1       3.463   1.366   1.298  0.00  0.00    +0.244 C 
ATOM     23  O   UNL     1       4.006   2.153   0.546  0.00  0.00    -0.270 OA
ATOM     24  N   UNL     1       2.171   1.036   1.109  0.00  0.00    -0.309 N 
ATOM     25  H   UNL     1       1.680   0.324   1.788  0.00  0.00    +0.149 HD
BRANCH  24  26
ATOM     26  C   UNL     1       1.419   1.624  -0.003  0.00  0.00    +0.136 C 
BRANCH  26  27
ATOM     27  C   UNL     1      -0.013   1.086   0.008  0.00  0.00    +0.135 C 
ATOM     28  C   UNL     1      -0.777   1.606  -1.228  0.00  0.00    +0.035 C 
ATOM     29  C   UNL     1      -2.188   1.898  -0.642  0.00  0.00    +0.031 C 
ATOM     30  C   UNL     1      -1.821   2.368   0.788  0.00  0.00    +0.160 C 
ATOM     31  O   UNL     1      -0.700   1.556   1.173  0.00  0.00    -0.375 OA
ENDBRANCH  26  27
ENDBRANCH  24  26
ENDBRANCH   9  22
TORSDOF 4
