REMARK  Name = ZINC01386104
REMARK  7 active torsions:
REMARK  status: ('A' for Active; 'I' for Inactive)
REMARK    1  A    between atoms: C_1  and  C_2
REMARK    2  A    between atoms: C_2  and  C_3
REMARK    3  A    between atoms: C_2  and  C_4
REMARK    4  A    between atoms: C_2  and  C_5
REMARK    5  A    between atoms: C_8  and  C_11
REMARK    6  A    between atoms: C_11  and  N_12
REMARK    7  A    between atoms: C_20  and  C_21
REMARK                            x       y       z     vdW  Elec       q    Type
REMARK                         _______ _______ _______ _____ _____    ______ ____
ROOT
ATOM      1  N   UNL     1       2.467  -1.012  -5.925  0.00  0.00    -0.319 N 
ATOM      2  C   UNL     1       1.344  -1.032  -6.731  0.00  0.00    +0.069 A 
ATOM      3  C   UNL     1       0.254  -1.883  -6.841  0.00  0.00    +0.028 A 
ATOM      4  C   UNL     1      -0.728  -1.619  -7.773  0.00  0.00    +0.002 A 
ATOM      5  C   UNL     1      -0.632  -0.509  -8.600  0.00  0.00    +0.002 A 
ATOM      6  C   UNL     1       0.434   0.340  -8.507  0.00  0.00    +0.030 A 
ATOM      7  C   UNL     1       1.442   0.093  -7.569  0.00  0.00    +0.090 A 
ATOM      8  N   UNL     1       2.591   0.734  -7.247  0.00  0.00    -0.227 NA
ATOM      9  C   UNL     1       3.198   0.092  -6.276  0.00  0.00    +0.147 A 
ENDROOT
BRANCH   9  10
ATOM     10  C   UNL     1       4.475   0.496  -5.659  0.00  0.00    +0.082 A 
ATOM     11  C   UNL     1       5.580  -0.346  -5.704  0.00  0.00    +0.018 A 
ATOM     12  C   UNL     1       6.773   0.070  -5.108  0.00  0.00    +0.018 A 
ATOM     13  C   UNL     1       6.843   1.279  -4.498  0.00  0.00    +0.086 A 
ATOM     14  N   UNL     1       5.769   2.105  -4.450  0.00  0.00    -0.329 N 
ATOM     15  H   UNL     1       5.847   2.965  -4.008  0.00  0.00    +0.168 HD
ATOM     16  C   UNL     1       4.598   1.754  -5.014  0.00  0.00    +0.259 A 
ATOM     17  O   UNL     1       3.644   2.512  -4.966  0.00  0.00    -0.267 OA
ENDBRANCH   9  10
BRANCH   1  18
ATOM     18  C   UNL     1       2.809  -1.987  -4.886  0.00  0.00    +0.159 C 
BRANCH  18  22
ATOM     19  C   UNL     1       1.123  -0.750  -1.161  0.00  0.00    -0.042 A 
ATOM     20  C   UNL     1       0.376  -1.513  -2.039  0.00  0.00    +0.004 A 
ATOM     21  C   UNL     1       0.921  -1.913  -3.244  0.00  0.00    +0.005 A 
ATOM     22  C   UNL     1       2.214  -1.550  -3.572  0.00  0.00    -0.028 A 
ATOM     23  C   UNL     1       2.962  -0.786  -2.695  0.00  0.00    +0.005 A 
ATOM     24  C   UNL     1       2.414  -0.383  -1.491  0.00  0.00    +0.004 A 
BRANCH  19  26
ATOM     25  C   UNL     1       0.507   1.214   0.221  0.00  0.00    +0.015 C 
ATOM     26  C   UNL     1       0.529  -0.314   0.153  0.00  0.00    -0.013 C 
ATOM     27  C   UNL     1       1.375  -0.863   1.304  0.00  0.00    +0.015 C 
ATOM     28  C   UNL     1      -0.900  -0.850   0.270  0.00  0.00    +0.015 C 
ENDBRANCH  19  26
ENDBRANCH  18  22
ENDBRANCH   1  18
TORSDOF 4
