REMARK  Name = ZINC39678899
REMARK  9 active torsions:
REMARK  status: ('A' for Active; 'I' for Inactive)
REMARK    1  A    between atoms: C_1  and  N_2
REMARK    2  A    between atoms: N_2  and  C_3
REMARK    3  A    between atoms: N_2  and  C_4
REMARK    4  A    between atoms: C_4  and  C_5
REMARK    5  A    between atoms: C_5  and  C_6
REMARK    6  A    between atoms: C_6  and  C_7
REMARK    7  A    between atoms: C_7  and  N_8
REMARK    8  A    between atoms: C_9  and  C_11
REMARK    9  A    between atoms: C_22  and  C_24
REMARK                            x       y       z     vdW  Elec       q    Type
REMARK                         _______ _______ _______ _____ _____    ______ ____
ROOT
ATOM      1  C   UNL     1       7.046  -0.822  -4.986  0.00  0.00    +0.100 C 
ATOM      2  C   UNL     1       6.359  -0.260  -6.251  0.00  0.00    +0.121 C 
ATOM      3  N   UNL     1       7.134   0.957  -6.589  0.00  0.00    -0.296 N 
ATOM      4  C   UNL     1       8.543   0.583  -6.321  0.00  0.00    +0.115 C 
ATOM      5  C   UNL     1       8.480  -0.269  -5.038  0.00  0.00    -0.004 C 
ATOM      6  C   UNL     1       9.486  -1.414  -5.114  0.00  0.00    -0.010 C 
ATOM      7  C   UNL     1      10.906  -0.842  -5.106  0.00  0.00    -0.082 C 
ATOM      8  N   UNL     1      11.114  -0.063  -3.879  0.00  0.00    +0.379 N 
ATOM      9  C   UNL     1      10.206   1.090  -3.858  0.00  0.00    -0.082 C 
ATOM     10  C   UNL     1       8.756   0.600  -3.814  0.00  0.00    -0.010 C 
ATOM     11  C   UNL     1       6.663   2.137  -7.040  0.00  0.00    +0.252 C 
ATOM     12  O   UNL     1       7.433   3.049  -7.274  0.00  0.00    -0.270 OA
ATOM     13  H   UNL     1      10.932  -0.647  -3.076  0.00  0.00    -0.086 HD
ATOM     14  H   UNL     1      12.069   0.262  -3.846  0.00  0.00    -0.086 HD
ENDROOT
BRANCH  11  15
ATOM     15  C   UNL     1       5.214   2.323  -7.247  0.00  0.00    +0.107 A 
ATOM     16  C   UNL     1       4.411   2.806  -6.209  0.00  0.00    +0.138 A 
ATOM     17  C   UNL     1       3.055   2.978  -6.413  0.00  0.00    +0.039 A 
ATOM     18  C   UNL     1       2.491   2.672  -7.638  0.00  0.00    +0.006 A 
ATOM     19  C   UNL     1       3.278   2.194  -8.670  0.00  0.00    +0.039 A 
ATOM     20  C   UNL     1       4.637   2.022  -8.486  0.00  0.00    +0.138 A 
ATOM     21  F   UNL     1       5.405   1.560  -9.497  0.00  0.00    -0.205 F 
ATOM     22  F   UNL     1       4.959   3.104  -5.011  0.00  0.00    -0.205 F 
ENDBRANCH  11  15
BRANCH   1  24
ATOM     23  N   UNL     1       6.360  -1.081  -2.624  0.00  0.00    -0.315 N 
ATOM     24  C   UNL     1       6.341  -0.336  -3.747  0.00  0.00    +0.218 C 
ATOM     25  O   UNL     1       5.755   0.727  -3.759  0.00  0.00    -0.275 OA
ATOM     26  H   UNL     1       6.829  -1.931  -2.614  0.00  0.00    +0.149 HD
BRANCH  23  27
ATOM     27  C   UNL     1       5.675  -0.609  -1.419  0.00  0.00    +0.104 C 
BRANCH  27  28
ATOM     28  C   UNL     1       5.850  -1.634  -0.297  0.00  0.00    +0.017 C 
BRANCH  28  29
ATOM     29  C   UNL     1       5.134  -1.141   0.962  0.00  0.00    -0.017 C 
BRANCH  29  30
ATOM     30  C   UNL     1       5.309  -2.167   2.083  0.00  0.00    -0.080 C 
BRANCH  30  32
ATOM     31  C   UNL     1       3.175  -1.635   3.042  0.00  0.00    -0.097 C 
ATOM     32  N   UNL     1       4.622  -1.693   3.292  0.00  0.00    +0.376 N 
ATOM     33  C   UNL     1       4.890  -2.617   4.402  0.00  0.00    -0.097 C 
ATOM     34  H   UNL     1       4.959  -0.773   3.532  0.00  0.00    -0.083 HD
ENDBRANCH  30  32
ENDBRANCH  29  30
ENDBRANCH  28  29
ENDBRANCH  27  28
ENDBRANCH  23  27
ENDBRANCH   1  24
TORSDOF 7
