REMARK  Name = ZINC13783537
REMARK  9 active torsions:
REMARK  status: ('A' for Active; 'I' for Inactive)
REMARK    1  A    between atoms: C_1  and  C_2
REMARK    2  A    between atoms: C_17  and  C_39
REMARK    3  A    between atoms: C_19  and  O_37
REMARK    4  A    between atoms: C_22  and  C_36
REMARK    5  A    between atoms: C_23  and  C_24
REMARK    6  A    between atoms: C_23  and  O_28
REMARK    7  A    between atoms: C_24  and  C_26
REMARK    8  A    between atoms: O_28  and  C_29
REMARK    9  A    between atoms: C_29  and  C_31
REMARK                            x       y       z     vdW  Elec       q    Type
REMARK                         _______ _______ _______ _____ _____    ______ ____
ROOT
ATOM      1  C   UNL     1      -0.132  -1.337   5.282  0.00  0.00    +0.012 C 
ATOM      2  C   UNL     1       0.778  -0.303   4.615  0.00  0.00    +0.038 C 
ATOM      3  C   UNL     1       0.624  -0.376   3.071  0.00  0.00    +0.012 C 
ATOM      4  C   UNL     1       0.730   1.093   2.646  0.00  0.00    +0.005 C 
ATOM      5  C   UNL     1       0.082   1.443   1.318  0.00  0.00    +0.018 C 
ATOM      6  C   UNL     1       0.800   0.688   0.198  0.00  0.00    +0.010 C 
ATOM      7  C   UNL     1       0.135   1.007  -1.145  0.00  0.00    +0.032 C 
ATOM      8  C   UNL     1       0.131   2.514  -1.322  0.00  0.00    -0.055 C 
ATOM      9  C   UNL     1       0.611   3.030  -2.445  0.00  0.00    +0.051 C 
ATOM     10  C   UNL     1       0.644   4.487  -2.645  0.00  0.00    +0.179 C 
ATOM     11  O   UNL     1       1.047   4.962  -3.690  0.00  0.00    -0.288 OA
ATOM     12  C   UNL     1       0.178   5.357  -1.552  0.00  0.00    +0.047 C 
ATOM     13  C   UNL     1      -0.303   4.820  -0.442  0.00  0.00    -0.011 C 
ATOM     14  C   UNL     1      -0.423   3.353  -0.208  0.00  0.00    +0.029 C 
ATOM     15  C   UNL     1       0.248   2.957   1.110  0.00  0.00    +0.086 C 
ATOM     16  C   UNL     1      -0.390   3.737   2.255  0.00  0.00    +0.137 C 
ATOM     17  C   UNL     1       0.152   3.287   3.621  0.00  0.00    +0.044 C 
ATOM     18  C   UNL     1      -0.114   1.799   3.741  0.00  0.00    +0.021 C 
ATOM     19  C   UNL     1       0.351   1.127   5.029  0.00  0.00    +0.180 C 
ATOM     20  C   UNL     1      -1.602   1.519   3.518  0.00  0.00    +0.016 C 
ATOM     21 CL   UNL     1       2.004   3.356   1.026  0.00  0.00    -0.114 Cl
ATOM     22  C   UNL     1      -1.915   3.037  -0.085  0.00  0.00    +0.022 C 
ENDROOT
BRANCH  19  23
ATOM     23  C   UNL     1      -0.779   1.067   6.024  0.00  0.00    +0.192 C 
ATOM     24  O   UNL     1      -1.754   0.393   5.791  0.00  0.00    -0.292 OA
BRANCH  23  25
ATOM     25  C   UNL     1      -0.693   1.848   7.311  0.00  0.00    +0.187 C 
ATOM     26 CL   UNL     1      -2.160   1.526   8.308  0.00  0.00    -0.117 Cl
ENDBRANCH  23  25
ENDBRANCH  19  23
BRANCH  16  27
ATOM     27  O   UNL     1      -1.804   3.533   2.227  0.00  0.00    -0.390 OA
ATOM     28  H   UNL     1      -2.283   3.999   2.927  0.00  0.00    +0.210 HD
ENDBRANCH  16  27
BRANCH  19  29
ATOM     29  O   UNL     1       1.480   1.846   5.592  0.00  0.00    -0.444 OA
BRANCH  29  30
ATOM     30  C   UNL     1       2.087   1.292   6.662  0.00  0.00    +0.376 C 
ATOM     31  O   UNL     1       1.710   0.216   7.085  0.00  0.00    -0.241 OA
BRANCH  30  32
ATOM     32  C   UNL     1       3.200   1.986   7.314  0.00  0.00    +0.211 A 
ATOM     33  C   UNL     1       3.900   1.540   8.399  0.00  0.00    +0.056 A 
ATOM     34  C   UNL     1       4.869   2.515   8.683  0.00  0.00    +0.042 A 
ATOM     35  C   UNL     1       4.721   3.501   7.770  0.00  0.00    +0.196 A 
ATOM     36  O   UNL     1       3.718   3.176   6.943  0.00  0.00    -0.456 OA
ENDBRANCH  30  32
ENDBRANCH  29  30
ENDBRANCH  19  29
TORSDOF 6
