REMARK  Name = ZINC02216003
REMARK  8 active torsions:
REMARK  status: ('A' for Active; 'I' for Inactive)
REMARK    1  A    between atoms: C_1  and  O_2
REMARK    2  A    between atoms: O_2  and  C_3
REMARK    3  A    between atoms: C_5  and  C_10
REMARK    4  A    between atoms: C_8  and  O_9
REMARK    5  A    between atoms: C_12  and  C_32
REMARK    6  A    between atoms: C_13  and  S_22
REMARK    7  A    between atoms: S_22  and  C_23
REMARK    8  A    between atoms: C_23  and  C_24
REMARK                            x       y       z     vdW  Elec       q    Type
REMARK                         _______ _______ _______ _____ _____    ______ ____
ROOT
ATOM      1  C   UNL     1       2.462   0.334   4.204  0.00  0.00    +0.097 C 
ATOM      2  C   UNL     1       3.957   0.069   4.202  0.00  0.00    +0.073 C 
ATOM      3  C   UNL     1       4.515  -0.424   5.369  0.00  0.00    +0.112 C 
ATOM      4  N   UNL     1       3.788  -0.663   6.462  0.00  0.00    -0.244 NA
ATOM      5  C   UNL     1       2.497  -0.472   6.576  0.00  0.00    +0.050 C 
ATOM      6  C   UNL     1       1.740   0.022   5.502  0.00  0.00    +0.029 C 
ATOM      7  C   UNL     1       0.416   0.221   5.597  0.00  0.00    +0.162 C 
ATOM      8  C   UNL     1      -0.330  -0.077   6.871  0.00  0.00    +0.080 C 
ATOM      9  C   UNL     1       0.378  -1.212   7.617  0.00  0.00    +0.014 C 
ATOM     10  C   UNL     1       1.818  -0.792   7.887  0.00  0.00    +0.056 C 
ATOM     11  O   UNL     1      -0.259   0.698   4.532  0.00  0.00    -0.292 OA
ENDROOT
BRANCH   1  14
ATOM     12  C   UNL     1       0.626  -0.619   1.042  0.00  0.00    +0.162 A 
ATOM     13  C   UNL     1       1.202   0.137   2.051  0.00  0.00    +0.054 A 
ATOM     14  C   UNL     1       1.836  -0.490   3.108  0.00  0.00    -0.031 A 
ATOM     15  C   UNL     1       1.897  -1.870   3.161  0.00  0.00    +0.008 A 
ATOM     16  C   UNL     1       1.325  -2.630   2.158  0.00  0.00    +0.049 A 
ATOM     17  C   UNL     1       0.683  -2.008   1.099  0.00  0.00    +0.158 A 
BRANCH  12  19
ATOM     18  C   UNL     1      -0.017   1.425   0.010  0.00  0.00    +0.277 C 
ATOM     19  O   UNL     1       0.002  -0.004   0.002  0.00  0.00    -0.491 OA
ENDBRANCH  12  19
BRANCH  17  20
ATOM     20  O   UNL     1       0.115  -2.754   0.114  0.00  0.00    -0.503 OA
ATOM     21  H   UNL     1       0.711  -2.957  -0.620  0.00  0.00    +0.292 HD
ENDBRANCH  17  20
ENDBRANCH   1  14
BRANCH   2  22
ATOM     22  C   UNL     1       4.756   0.318   3.040  0.00  0.00    +0.098 C 
ATOM     23  N   UNL     1       5.390   0.516   2.119  0.00  0.00    -0.191 NA
ENDBRANCH   2  22
BRANCH   3  24
ATOM     24  S   UNL     1       6.246  -0.747   5.412  0.00  0.00    -0.096 S 
BRANCH  24  25
ATOM     25  C   UNL     1       6.535  -1.365   7.093  0.00  0.00    +0.172 C 
BRANCH  25  26
ATOM     26  C   UNL     1       7.998  -1.685   7.267  0.00  0.00    +0.229 C 
ATOM     27  O   UNL     1       8.769  -1.512   6.347  0.00  0.00    -0.275 OA
ATOM     28  N   UNL     1       8.448  -2.162   8.444  0.00  0.00    -0.264 N 
ATOM     29  C   UNL     1       9.797  -2.456   8.604  0.00  0.00    +0.164 A 
ATOM     30  N   UNL     1      10.771  -2.329   7.729  0.00  0.00    -0.233 NA
ATOM     31  C   UNL     1      12.013  -2.655   8.037  0.00  0.00    +0.120 A 
ATOM     32  C   UNL     1      12.233  -3.124   9.290  0.00  0.00    +0.068 A 
ATOM     33  S   UNL     1      10.582  -3.055   9.967  0.00  0.00    -0.061 S 
ATOM     34  H   UNL     1       7.831  -2.300   9.180  0.00  0.00    +0.157 HD
ENDBRANCH  25  26
ENDBRANCH  24  25
ENDBRANCH   3  24
TORSDOF 7
