REMARK  Name = ZINC01049899
REMARK  8 active torsions:
REMARK  status: ('A' for Active; 'I' for Inactive)
REMARK    1  A    between atoms: C_1  and  C_2
REMARK    2  A    between atoms: C_2  and  C_3
REMARK    3  A    between atoms: C_5  and  C_28
REMARK    4  A    between atoms: C_6  and  N_8
REMARK    5  A    between atoms: C_9  and  C_11
REMARK    6  A    between atoms: C_11  and  C_12
REMARK    7  A    between atoms: C_28  and  O_30
REMARK    8  A    between atoms: O_30  and  C_31
REMARK                            x       y       z     vdW  Elec       q    Type
REMARK                         _______ _______ _______ _____ _____    ______ ____
ROOT
ATOM      1  C   UNL     1      -5.741  -2.352  -0.010  0.00  0.00    +0.166 C 
ATOM      2  C   UNL     1      -5.996  -3.834   0.100  0.00  0.00    +0.238 C 
ATOM      3  O   UNL     1      -6.594  -4.294   1.050  0.00  0.00    -0.273 OA
ATOM      4  N   UNL     1      -5.546  -4.629  -0.878  0.00  0.00    -0.283 N 
ATOM      5  C   UNL     1      -4.838  -4.320  -2.018  0.00  0.00    +0.043 A 
ATOM      6  C   UNL     1      -3.849  -5.245  -2.353  0.00  0.00    +0.024 A 
ATOM      7  C   UNL     1      -3.112  -5.140  -3.519  0.00  0.00    +0.002 A 
ATOM      8  C   UNL     1      -3.353  -4.130  -4.397  0.00  0.00    +0.009 A 
ATOM      9  C   UNL     1      -4.333  -3.167  -4.097  0.00  0.00    -0.014 A 
ATOM     10  C   UNL     1      -5.015  -3.203  -2.848  0.00  0.00    +0.024 A 
ATOM     11  C   UNL     1      -5.789  -2.066  -2.508  0.00  0.00    +0.037 A 
ATOM     12  C   UNL     1      -6.024  -1.083  -3.453  0.00  0.00    +0.023 A 
ATOM     13  C   UNL     1      -5.466  -1.150  -4.722  0.00  0.00    +0.002 A 
ATOM     14  C   UNL     1      -4.631  -2.173  -5.045  0.00  0.00    +0.009 A 
ATOM     15  N   UNL     1      -6.322  -1.910  -1.260  0.00  0.00    -0.332 N 
ATOM     16  H   UNL     1      -5.750  -5.571  -0.766  0.00  0.00    +0.155 HD
ATOM     17  H   UNL     1      -7.178  -1.458  -1.206  0.00  0.00    +0.147 HD
ENDROOT
BRANCH   1  18
ATOM     18  C   UNL     1      -4.235  -2.082  -0.011  0.00  0.00    +0.127 C 
BRANCH  18  20
ATOM     19  N   UNL     1      -2.731  -0.118   0.003  0.00  0.00    -0.279 N 
ATOM     20  C   UNL     1      -3.992  -0.595   0.002  0.00  0.00    +0.220 C 
ATOM     21  O   UNL     1      -4.930   0.173   0.011  0.00  0.00    -0.275 OA
ATOM     22  H   UNL     1      -1.980  -0.732  -0.004  0.00  0.00    +0.155 HD
BRANCH  19  26
ATOM     23  C   UNL     1      -2.575   3.933   0.035  0.00  0.00    -0.008 A 
ATOM     24  C   UNL     1      -1.354   3.370   0.026  0.00  0.00    +0.028 A 
ATOM     25  C   UNL     1      -1.292   1.927   0.019  0.00  0.00    +0.088 A 
ATOM     26  C   UNL     1      -2.507   1.250   0.015  0.00  0.00    +0.086 A 
ATOM     27  S   UNL     1      -3.673   2.531   0.034  0.00  0.00    -0.078 S 
BRANCH  23  29
ATOM     28  C   UNL     1      -3.056   5.900  -1.395  0.00  0.00    +0.009 C 
ATOM     29  C   UNL     1      -2.929   5.397   0.044  0.00  0.00    +0.039 C 
ENDBRANCH  23  29
BRANCH  25  30
ATOM     30  C   UNL     1      -0.014   1.212   0.009  0.00  0.00    +0.341 C 
ATOM     31  O   UNL     1       0.002  -0.004   0.002  0.00  0.00    -0.245 OA
BRANCH  30  32
ATOM     32  O   UNL     1       1.144   1.902   0.001  0.00  0.00    -0.464 OA
ATOM     33  C   UNL     1       2.373   1.128  -0.015  0.00  0.00    +0.280 C 
ENDBRANCH  30  32
ENDBRANCH  25  30
ENDBRANCH  19  26
ENDBRANCH  18  20
ENDBRANCH   1  18
TORSDOF 6
