REMARK  Name = ZINC13055422
REMARK  7 active torsions:
REMARK  status: ('A' for Active; 'I' for Inactive)
REMARK    1  A    between atoms: C_1  and  C_2
REMARK    2  A    between atoms: C_2  and  C_4
REMARK    3  A    between atoms: C_2  and  S_16
REMARK    4  A    between atoms: C_4  and  C_6
REMARK    5  A    between atoms: S_16  and  C_17
REMARK    6  A    between atoms: N_27  and  C_28
REMARK    7  A    between atoms: C_28  and  C_29
REMARK                            x       y       z     vdW  Elec       q    Type
REMARK                         _______ _______ _______ _____ _____    ______ ____
ROOT
ATOM      1  S   UNL     1       0.851  -0.589  -1.490  0.00  0.00    -0.076 S 
ENDROOT
BRANCH   1   2
ATOM      2  C   UNL     1      -0.189  -0.057  -2.809  0.00  0.00    +0.173 A 
ATOM      3  N   UNL     1      -1.280   0.606  -2.515  0.00  0.00    -0.223 NA
ATOM      4  C   UNL     1      -2.122   1.043  -3.474  0.00  0.00    +0.079 A 
ATOM      5  C   UNL     1      -3.286   1.751  -3.160  0.00  0.00    +0.028 A 
ATOM      6  C   UNL     1      -4.110   2.176  -4.163  0.00  0.00    +0.002 A 
ATOM      7  C   UNL     1      -3.810   1.915  -5.494  0.00  0.00    +0.001 A 
ATOM      8  C   UNL     1      -2.678   1.225  -5.833  0.00  0.00    +0.015 A 
ATOM      9  C   UNL     1      -1.819   0.780  -4.829  0.00  0.00    +0.065 A 
ATOM     10  C   UNL     1      -0.590   0.035  -5.133  0.00  0.00    +0.263 A 
ATOM     11  O   UNL     1      -0.275  -0.222  -6.281  0.00  0.00    -0.267 OA
ATOM     12  N   UNL     1       0.182  -0.350  -4.090  0.00  0.00    -0.276 N 
BRANCH  12  13
ATOM     13  C   UNL     1       1.422  -1.090  -4.337  0.00  0.00    +0.252 C 
BRANCH  13  14
ATOM     14  C   UNL     1       1.130  -2.568  -4.350  0.00  0.00    +0.375 C 
ATOM     15  O   UNL     1      -0.008  -2.967  -4.169  0.00  0.00    -0.244 OA
ATOM     16  O   UNL     1       2.032  -3.366  -4.540  0.00  0.00    -0.244 OA
ENDBRANCH  13  14
ENDBRANCH  12  13
ENDBRANCH   1   2
BRANCH   1  18
ATOM     17  C   UNL     1      -0.019   1.526   0.010  0.00  0.00    +0.028 C 
ATOM     18  C   UNL     1       0.002  -0.004   0.002  0.00  0.00    +0.122 C 
BRANCH  18  19
ATOM     19  C   UNL     1       0.731  -0.503   1.223  0.00  0.00    +0.178 C 
ATOM     20  O   UNL     1       1.912  -0.776   1.156  0.00  0.00    -0.291 OA
BRANCH  19  21
ATOM     21  C   UNL     1       0.037  -0.655   2.450  0.00  0.00    +0.043 A 
ATOM     22  C   UNL     1      -1.296  -0.395   2.684  0.00  0.00    +0.095 A 
ATOM     23  N   UNL     1      -1.588  -0.660   3.972  0.00  0.00    -0.360 N 
ATOM     24  H   UNL     1      -2.466  -0.553   4.372  0.00  0.00    +0.165 HD
ATOM     25  C   UNL     1      -0.468  -1.104   4.646  0.00  0.00    +0.047 A 
ATOM     26  C   UNL     1       0.596  -1.128   3.731  0.00  0.00    +0.010 A 
ATOM     27  C   UNL     1       1.859  -1.545   4.140  0.00  0.00    +0.011 A 
ATOM     28  C   UNL     1       2.059  -1.937   5.446  0.00  0.00    +0.001 A 
ATOM     29  C   UNL     1       1.008  -1.917   6.351  0.00  0.00    +0.002 A 
ATOM     30  C   UNL     1      -0.246  -1.499   5.961  0.00  0.00    +0.026 A 
ENDBRANCH  19  21
ENDBRANCH  18  19
ENDBRANCH   1  18
TORSDOF 6
