REMARK  Name = ZINC36027162
REMARK  7 active torsions:
REMARK  status: ('A' for Active; 'I' for Inactive)
REMARK    1  A    between atoms: C_1  and  C_2
REMARK    2  A    between atoms: N_6  and  C_27
REMARK    3  A    between atoms: N_11  and  S_14
REMARK    4  A    between atoms: S_14  and  C_17
REMARK    5  A    between atoms: C_21  and  C_23
REMARK    6  A    between atoms: C_27  and  C_29
REMARK    7  A    between atoms: C_27  and  C_30
REMARK                            x       y       z     vdW  Elec       q    Type
REMARK                         _______ _______ _______ _____ _____    ______ ____
ROOT
ATOM      1  C   UNL     1      -2.412  -0.291   6.481  0.00  0.00    -0.004 C 
ATOM      2  C   UNL     1      -1.369  -0.313   5.361  0.00  0.00    +0.016 C 
ATOM      3  C   UNL     1      -2.036  -0.121   4.016  0.00  0.00    +0.201 C 
ATOM      4  O   UNL     1      -2.423   0.935   3.562  0.00  0.00    -0.277 OA
ATOM      5  N   UNL     1      -2.126  -1.322   3.408  0.00  0.00    -0.307 N 
ATOM      6  C   UNL     1      -1.554  -2.354   4.276  0.00  0.00    +0.006 C 
ATOM      7  N   UNL     1      -0.726  -1.647   5.280  0.00  0.00    +0.401 N 
ATOM      8  C   UNL     1      -2.667  -3.130   4.979  0.00  0.00    +0.023 C 
ATOM      9  C   UNL     1      -3.541  -3.825   3.930  0.00  0.00    +0.109 C 
ATOM     10  N   UNL     1      -2.679  -4.641   3.062  0.00  0.00    -0.177 NA
ATOM     11  C   UNL     1      -1.535  -4.001   2.400  0.00  0.00    +0.109 C 
ATOM     12  C   UNL     1      -0.677  -3.304   3.461  0.00  0.00    +0.023 C 
ATOM     13  H   UNL     1       0.228  -1.564   4.962  0.00  0.00    -0.082 HD
ATOM     14  H   UNL     1      -0.767  -2.117   6.172  0.00  0.00    -0.082 HD
ENDROOT
BRANCH  10  15
ATOM     15  S   UNL     1      -2.994  -6.250   2.835  0.00  0.00    +0.061 S 
ATOM     16  O   UNL     1      -1.764  -6.855   2.458  0.00  0.00    -0.153 OA
ATOM     17  O   UNL     1      -3.740  -6.682   3.964  0.00  0.00    -0.153 OA
BRANCH  15  18
ATOM     18  C   UNL     1      -4.066  -6.380   1.443  0.00  0.00    +0.106 A 
ATOM     19  C   UNL     1      -5.437  -6.343   1.620  0.00  0.00    +0.028 A 
ATOM     20  C   UNL     1      -6.278  -6.445   0.528  0.00  0.00    +0.002 A 
ATOM     21  C   UNL     1      -5.749  -6.584  -0.741  0.00  0.00    +0.012 A 
ATOM     22  C   UNL     1      -4.378  -6.621  -0.919  0.00  0.00    +0.057 A 
ATOM     23  C   UNL     1      -3.537  -6.515   0.173  0.00  0.00    +0.041 A 
BRANCH  22  24
ATOM     24  C   UNL     1      -3.802  -6.773  -2.303  0.00  0.00    +0.417 C 
ATOM     25  F   UNL     1      -4.842  -6.857  -3.235  0.00  0.00    -0.166 F 
ATOM     26  F   UNL     1      -2.999  -5.666  -2.598  0.00  0.00    -0.166 F 
ATOM     27  F   UNL     1      -3.029  -7.938  -2.360  0.00  0.00    -0.166 F 
ENDBRANCH  22  24
ENDBRANCH  15  18
ENDBRANCH  10  15
BRANCH   5  28
ATOM     28  C   UNL     1      -2.707  -1.557   2.083  0.00  0.00    +0.101 C 
ATOM     29  C   UNL     1      -1.651  -1.286   1.009  0.00  0.00    +0.033 C 
BRANCH  28  30
ATOM     30  C   UNL     1      -3.881  -0.635   1.878  0.00  0.00    -0.027 A 
ATOM     31  C   UNL     1      -4.093  -0.051   0.643  0.00  0.00    +0.005 A 
ATOM     32  C   UNL     1      -5.170   0.795   0.455  0.00  0.00    +0.000 A 
ATOM     33  C   UNL     1      -6.035   1.056   1.502  0.00  0.00    +0.000 A 
ATOM     34  C   UNL     1      -5.822   0.472   2.736  0.00  0.00    +0.000 A 
ATOM     35  C   UNL     1      -4.748  -0.377   2.923  0.00  0.00    +0.005 A 
ENDBRANCH  28  30
ENDBRANCH   5  28
TORSDOF 5
