REMARK  Name = ZINC44390719
REMARK  4 active torsions:
REMARK  status: ('A' for Active; 'I' for Inactive)
REMARK    1  A    between atoms: C_1  and  C_2
REMARK    2  A    between atoms: C_2  and  C_4
REMARK    3  A    between atoms: C_2  and  N_16
REMARK    4  A    between atoms: C_21  and  C_23
REMARK                            x       y       z     vdW  Elec       q    Type
REMARK                         _______ _______ _______ _____ _____    ______ ____
ROOT
ATOM      1  C   UNL     1      -0.019   1.526   0.010  0.00  0.00    +0.043 C 
ATOM      2  C   UNL     1       0.002  -0.004   0.002  0.00  0.00    +0.194 C 
ENDROOT
BRANCH   2   3
ATOM      3  C   UNL     1       0.731  -0.503   1.223  0.00  0.00    +0.243 C 
ATOM      4  O   UNL     1       0.159  -1.213   2.023  0.00  0.00    -0.273 OA
ATOM      5  N   UNL     1       2.019  -0.161   1.426  0.00  0.00    -0.263 N 
ATOM      6  C   UNL     1       2.689  -0.620   2.548  0.00  0.00    +0.165 A 
ATOM      7  N   UNL     1       2.246  -1.393   3.513  0.00  0.00    -0.225 NA
ATOM      8  C   UNL     1       3.018  -1.765   4.557  0.00  0.00    +0.080 A 
ATOM      9  C   UNL     1       2.667  -2.586   5.653  0.00  0.00    +0.029 A 
ATOM     10  C   UNL     1       3.578  -2.868   6.637  0.00  0.00    +0.002 A 
ATOM     11  C   UNL     1       4.870  -2.362   6.595  0.00  0.00    +0.001 A 
ATOM     12  C   UNL     1       5.247  -1.556   5.537  0.00  0.00    +0.017 A 
ATOM     13  C   UNL     1       4.341  -1.268   4.548  0.00  0.00    +0.041 A 
ATOM     14  S   UNL     1       4.378  -0.318   3.047  0.00  0.00    -0.052 S 
ATOM     15  H   UNL     1       2.476   0.406   0.786  0.00  0.00    +0.157 HD
ENDBRANCH   2   3
BRANCH   2  16
ATOM     16  N   UNL     1      -1.372  -0.511   0.012  0.00  0.00    -0.217 N 
ATOM     17  C   UNL     1      -1.791  -1.289  -1.004  0.00  0.00    +0.268 A 
ATOM     18  O   UNL     1      -1.033  -1.565  -1.919  0.00  0.00    -0.266 OA
ATOM     19  C   UNL     1      -3.115  -1.782  -1.002  0.00  0.00    +0.074 A 
ATOM     20  C   UNL     1      -3.921  -1.444   0.044  0.00  0.00    +0.035 A 
ATOM     21  C   UNL     1      -3.386  -0.621   1.063  0.00  0.00    +0.092 A 
ATOM     22  N   UNL     1      -2.143  -0.206   0.993  0.00  0.00    -0.168 NA
BRANCH  21  23
ATOM     23  C   UNL     1      -4.231  -0.231   2.218  0.00  0.00    +0.002 A 
ATOM     24  C   UNL     1      -3.711   0.584   3.222  0.00  0.00    +0.010 A 
ATOM     25  C   UNL     1      -4.502   0.943   4.294  0.00  0.00    +0.001 A 
ATOM     26  C   UNL     1      -5.809   0.496   4.374  0.00  0.00    +0.000 A 
ATOM     27  C   UNL     1      -6.330  -0.313   3.380  0.00  0.00    +0.001 A 
ATOM     28  C   UNL     1      -5.550  -0.674   2.300  0.00  0.00    +0.010 A 
ENDBRANCH  21  23
ENDBRANCH   2  16
TORSDOF 3
