REMARK  Name = ZINC20352592
REMARK  9 active torsions:
REMARK  status: ('A' for Active; 'I' for Inactive)
REMARK    1  A    between atoms: C_1  and  C_2
REMARK    2  A    between atoms: C_7  and  N_8
REMARK    3  A    between atoms: N_8  and  C_9
REMARK    4  A    between atoms: C_9  and  C_11
REMARK    5  A    between atoms: C_9  and  C_12
REMARK    6  A    between atoms: N_14  and  N_15
REMARK    7  A    between atoms: C_16  and  C_17
REMARK    8  A    between atoms: C_20  and  O_24
REMARK    9  A    between atoms: C_22  and  O_23
REMARK                            x       y       z     vdW  Elec       q    Type
REMARK                         _______ _______ _______ _____ _____    ______ ____
ROOT
ATOM      1  C   UNL     1       5.930   3.392  -0.035  0.00  0.00    +0.252 C 
ATOM      2  O   UNL     1       5.954   2.179  -0.041  0.00  0.00    -0.272 OA
ATOM      3  N   UNL     1       4.750   4.043  -0.020  0.00  0.00    -0.205 N 
ATOM      4  H   UNL     1       4.729   5.143  -0.014  0.00  0.00    +0.177 HD
ENDROOT
BRANCH   1   5
ATOM      5  C   UNL     1       7.220   4.171  -0.042  0.00  0.00    +0.155 C 
ATOM      6  C   UNL     1       7.296   5.045   1.211  0.00  0.00    +0.038 C 
BRANCH   5   7
ATOM      7  N   UNL     1       8.352   3.241  -0.058  0.00  0.00    -0.333 N 
ATOM      8  H   UNL     1       8.232   2.222   0.341  0.00  0.00    +0.147 HD
BRANCH   7  15
ATOM      9  C   UNL     1      10.496   1.371  -0.048  0.00  0.00    +0.045 C 
ATOM     10  C   UNL     1      10.657   2.766  -0.593  0.00  0.00    -0.029 A 
ATOM     11  C   UNL     1      11.873   3.171  -1.108  0.00  0.00    +0.019 A 
ATOM     12  C   UNL     1      12.022   4.452  -1.609  0.00  0.00    +0.014 A 
ATOM     13  C   UNL     1      10.954   5.331  -1.595  0.00  0.00    +0.016 A 
ATOM     14  C   UNL     1       9.734   4.931  -1.087  0.00  0.00    +0.024 A 
ATOM     15  C   UNL     1       9.583   3.647  -0.578  0.00  0.00    +0.031 A 
ATOM     16  I   UNL     1      13.868   5.061  -2.389  0.00  0.00    -0.044 I 
ENDBRANCH   7  15
ENDBRANCH   5   7
ENDBRANCH   1   5
BRANCH   3  17
ATOM     17  N   UNL     1       3.551   3.319  -0.013  0.00  0.00    -0.188 NA
ATOM     18  C   UNL     1       2.414   3.947   0.001  0.00  0.00    +0.142 C 
BRANCH  18  19
ATOM     19  C   UNL     1       1.153   3.186   0.008  0.00  0.00    +0.036 A 
ATOM     20  C   UNL     1      -0.072   3.858   0.024  0.00  0.00    +0.016 A 
ATOM     21  C   UNL     1      -1.249   3.142   0.031  0.00  0.00    +0.046 A 
ATOM     22  C   UNL     1      -1.224   1.752   0.017  0.00  0.00    +0.120 A 
ATOM     23  C   UNL     1      -0.013   1.076   0.008  0.00  0.00    +0.091 A 
ATOM     24  C   UNL     1       1.177   1.784   0.000  0.00  0.00    +0.129 A 
BRANCH  24  25
ATOM     25  O   UNL     1       2.363   1.122  -0.014  0.00  0.00    -0.506 OA
ATOM     26  H   UNL     1       2.379   0.022  -0.020  0.00  0.00    +0.292 HD
ENDBRANCH  24  25
BRANCH  22  27
ATOM     27  O   UNL     1      -2.389   1.054   0.019  0.00  0.00    -0.507 OA
ATOM     28  H   UNL     1      -2.371  -0.046   0.008  0.00  0.00    +0.292 HD
ENDBRANCH  22  27
ENDBRANCH  18  19
ENDBRANCH   3  17
TORSDOF 7
