REMARK  Name = ZINC12042341
REMARK  11 active torsions:
REMARK  status: ('A' for Active; 'I' for Inactive)
REMARK    1  A    between atoms: C_1  and  N_2
REMARK    2  A    between atoms: C_5  and  C_9
REMARK    3  A    between atoms: C_5  and  C_18
REMARK    4  A    between atoms: C_9  and  C_10
REMARK    5  A    between atoms: C_14  and  O_16
REMARK    6  A    between atoms: O_16  and  C_17
REMARK    7  A    between atoms: C_23  and  C_24
REMARK    8  A    between atoms: C_23  and  N_64
REMARK    9  A    between atoms: C_27  and  O_32
REMARK   10  A    between atoms: C_28  and  O_30
REMARK   11  A    between atoms: O_30  and  C_31
REMARK                            x       y       z     vdW  Elec       q    Type
REMARK                         _______ _______ _______ _____ _____    ______ ____
ROOT
ATOM      1  C   UNL     1      -2.840   9.194  -7.435  0.00  0.00    +0.143 C 
ATOM      2  N   UNL     1      -3.231   8.514  -6.198  0.00  0.00    -0.227 N 
ATOM      3  C   UNL     1      -3.397   9.134  -5.013  0.00  0.00    +0.247 C 
ATOM      4  O   UNL     1      -3.258  10.315  -4.779  0.00  0.00    -0.273 OA
ATOM      5  C   UNL     1      -3.795   8.047  -4.034  0.00  0.00    +0.119 C 
ATOM      6  N   UNL     1      -3.807   6.826  -4.858  0.00  0.00    -0.284 N 
ATOM      7  C   UNL     1      -3.466   7.200  -6.105  0.00  0.00    +0.309 C 
ATOM      8  O   UNL     1      -3.379   6.430  -7.041  0.00  0.00    -0.252 OA
ATOM      9  H   UNL     1      -4.021   5.928  -4.560  0.00  0.00    +0.151 HD
ENDROOT
BRANCH   5  10
ATOM     10  C   UNL     1      -2.761   7.929  -2.912  0.00  0.00    +0.018 C 
ATOM     11  C   UNL     1      -1.391   7.598  -3.512  0.00  0.00    -0.013 C 
ATOM     12  C   UNL     1      -0.374   7.422  -2.382  0.00  0.00    -0.078 C 
ATOM     13  C   UNL     1      -2.103   6.657  -0.867  0.00  0.00    -0.078 C 
ATOM     14  C   UNL     1      -3.172   6.809  -1.952  0.00  0.00    -0.013 C 
ATOM     15  N   UNL     1      -0.815   6.315  -1.507  0.00  0.00    +0.382 N 
ATOM     16  H   UNL     1      -0.940   5.470  -2.077  0.00  0.00    -0.081 HD
BRANCH  15  17
ATOM     17  C   UNL     1       0.207   6.050  -0.474  0.00  0.00    -0.043 C 
BRANCH  17  18
ATOM     18  C   UNL     1      -0.368   5.119   0.562  0.00  0.00    -0.060 A 
ATOM     19  C   UNL     1      -1.003   5.634   1.677  0.00  0.00    +0.005 A 
ATOM     20  C   UNL     1      -1.532   4.784   2.629  0.00  0.00    +0.049 A 
ATOM     21  C   UNL     1      -1.432   3.411   2.465  0.00  0.00    +0.158 A 
ATOM     22  C   UNL     1      -0.787   2.893   1.346  0.00  0.00    +0.161 A 
ATOM     23  C   UNL     1      -0.259   3.751   0.395  0.00  0.00    +0.051 A 
BRANCH  22  24
ATOM     24  O   UNL     1      -0.682   1.547   1.184  0.00  0.00    -0.491 OA
ATOM     25  C   UNL     1      -0.013   1.086   0.008  0.00  0.00    +0.277 C 
ENDBRANCH  22  24
BRANCH  21  26
ATOM     26  O   UNL     1      -1.957   2.573   3.399  0.00  0.00    -0.503 OA
ATOM     27  H   UNL     1      -1.341   2.338   4.107  0.00  0.00    +0.292 HD
ENDBRANCH  21  26
ENDBRANCH  17  18
ENDBRANCH  15  17
ENDBRANCH   5  10
BRANCH   5  28
ATOM     28  C   UNL     1      -5.184   8.325  -3.456  0.00  0.00    +0.070 C 
BRANCH  28  29
ATOM     29  C   UNL     1      -6.201   8.316  -4.568  0.00  0.00    -0.041 A 
ATOM     30  C   UNL     1      -6.505   9.487  -5.237  0.00  0.00    +0.004 A 
ATOM     31  C   UNL     1      -7.433   9.481  -6.261  0.00  0.00    +0.004 A 
ATOM     32  C   UNL     1      -8.069   8.305  -6.611  0.00  0.00    +0.045 A 
ATOM     33  C   UNL     1      -7.771   7.130  -5.937  0.00  0.00    +0.120 A 
ATOM     34  C   UNL     1      -6.834   7.138  -4.914  0.00  0.00    +0.049 A 
BRANCH  33  35
ATOM     35  O   UNL     1      -8.396   5.972  -6.279  0.00  0.00    -0.495 OA
ATOM     36  C   UNL     1      -9.348   6.038  -7.342  0.00  0.00    +0.277 C 
ENDBRANCH  33  35
ENDBRANCH  28  29
ENDBRANCH   5  28
TORSDOF 8
