REMARK  Name = ZINC59170801
REMARK  9 active torsions:
REMARK  status: ('A' for Active; 'I' for Inactive)
REMARK    1  A    between atoms: C_1  and  C_2
REMARK    2  A    between atoms: C_2  and  N_3
REMARK    3  A    between atoms: N_3  and  C_4
REMARK    4  A    between atoms: N_3  and  C_6
REMARK    5  A    between atoms: C_4  and  C_5
REMARK    6  A    between atoms: C_11  and  C_24
REMARK    7  A    between atoms: N_13  and  C_14
REMARK    8  A    between atoms: C_19  and  C_20
REMARK    9  A    between atoms: C_24  and  N_26
REMARK                            x       y       z     vdW  Elec       q    Type
REMARK                         _______ _______ _______ _____ _____    ______ ____
ROOT
ATOM      1  C   UNL     1      -0.753  -2.002   2.322  0.00  0.00    +0.033 A 
ATOM      2  C   UNL     1      -0.423  -1.790   3.662  0.00  0.00    +0.024 A 
ATOM      3  C   UNL     1      -1.397  -1.741   4.614  0.00  0.00    +0.013 A 
ATOM      4  C   UNL     1      -2.741  -1.916   4.250  0.00  0.00    +0.018 A 
ATOM      5  C   UNL     1      -3.759  -1.903   5.236  0.00  0.00    +0.027 A 
ATOM      6  C   UNL     1      -5.042  -2.277   4.860  0.00  0.00    +0.064 A 
ATOM      7  C   UNL     1      -5.243  -2.693   3.458  0.00  0.00    +0.209 A 
ATOM      8  N   UNL     1      -6.223  -3.505   3.122  0.00  0.00    -0.325 N 
ATOM      9  O   UNL     1      -4.381  -2.209   2.527  0.00  0.00    -0.439 OA
ATOM     10  C   UNL     1      -3.081  -2.100   2.894  0.00  0.00    +0.139 A 
ATOM     11  C   UNL     1      -2.080  -2.149   1.940  0.00  0.00    +0.070 A 
ATOM     12  H   UNL     1      -6.771  -3.915   3.810  0.00  0.00    +0.169 HD
ENDROOT
BRANCH   8  13
ATOM     13  C   UNL     1      -6.469  -3.770   1.804  0.00  0.00    +0.045 A 
ATOM     14  C   UNL     1      -6.580  -2.723   0.885  0.00  0.00    +0.026 A 
ATOM     15  C   UNL     1      -6.828  -2.998  -0.443  0.00  0.00    +0.002 A 
ATOM     16  C   UNL     1      -6.968  -4.308  -0.867  0.00  0.00    +0.000 A 
ATOM     17  C   UNL     1      -6.861  -5.350   0.036  0.00  0.00    +0.005 A 
ATOM     18  C   UNL     1      -6.606  -5.090   1.367  0.00  0.00    -0.027 A 
ATOM     19  C   UNL     1      -6.483  -6.227   2.348  0.00  0.00    +0.046 C 
ENDBRANCH   8  13
BRANCH   6  20
ATOM     20  C   UNL     1      -6.155  -2.260   5.819  0.00  0.00    +0.082 C 
ATOM     21  S   UNL     1      -7.747  -2.605   5.290  0.00  0.00    -0.035 S 
BRANCH  20  22
ATOM     22  N   UNL     1      -5.923  -1.973   7.116  0.00  0.00    -0.352 N 
ATOM     23  H   UNL     1      -5.022  -1.778   7.415  0.00  0.00    +0.143 HD
ATOM     24  H   UNL     1      -6.658  -1.962   7.749  0.00  0.00    +0.143 HD
ENDBRANCH  20  22
ENDBRANCH   6  20
BRANCH   1  25
ATOM     25  N   UNL     1       0.253  -2.063   1.364  0.00  0.00    -0.330 N 
BRANCH  25  27
ATOM     26  C   UNL     1       2.041  -0.430   1.705  0.00  0.00    +0.024 C 
ATOM     27  C   UNL     1       1.654  -1.909   1.762  0.00  0.00    +0.102 C 
ENDBRANCH  25  27
BRANCH  25  28
ATOM     28  C   UNL     1      -0.089  -2.280  -0.044  0.00  0.00    +0.102 C 
ATOM     29  C   UNL     1      -0.107  -3.782  -0.338  0.00  0.00    +0.024 C 
ENDBRANCH  25  28
ENDBRANCH   1  25
TORSDOF 6
