REMARK  Name = ZINC35577541
REMARK  7 active torsions:
REMARK  status: ('A' for Active; 'I' for Inactive)
REMARK    1  A    between atoms: C_4  and  O_7
REMARK    2  A    between atoms: O_7  and  C_8
REMARK    3  A    between atoms: C_8  and  C_9
REMARK    4  A    between atoms: C_9  and  N_10
REMARK    5  A    between atoms: C_13  and  C_28
REMARK    6  A    between atoms: C_15  and  N_27
REMARK    7  A    between atoms: N_16  and  C_20
REMARK                            x       y       z     vdW  Elec       q    Type
REMARK                         _______ _______ _______ _____ _____    ______ ____
ROOT
ATOM      1  N   UNL     1       5.943  -1.809   0.925  0.00  0.00    -0.310 N 
ATOM      2  C   UNL     1       7.138  -2.428   1.242  0.00  0.00    +0.218 A 
ATOM      3  N   UNL     1       7.741  -2.084   2.375  0.00  0.00    -0.213 NA
ATOM      4  C   UNL     1       8.893  -2.631   2.756  0.00  0.00    +0.095 A 
ATOM      5  C   UNL     1       9.482  -3.608   1.916  0.00  0.00    +0.087 A 
ATOM      6  C   UNL     1      10.630  -4.386   1.950  0.00  0.00    +0.131 A 
ATOM      7  N   UNL     1      10.640  -5.144   0.835  0.00  0.00    -0.216 N 
ATOM      8  N   UNL     1       9.503  -4.871   0.065  0.00  0.00    -0.144 NA
ATOM      9  C   UNL     1       8.777  -3.957   0.670  0.00  0.00    +0.189 A 
ATOM     10  N   UNL     1       7.613  -3.329   0.407  0.00  0.00    -0.193 NA
ATOM     11  H   UNL     1       5.569  -1.141   1.521  0.00  0.00    +0.149 HD
ENDROOT
BRANCH   7  12
ATOM     12  C   UNL     1      11.638  -6.066   0.497  0.00  0.00    +0.070 A 
ATOM     13  C   UNL     1      12.962  -5.810   0.829  0.00  0.00    +0.028 A 
ATOM     14  C   UNL     1      13.945  -6.721   0.495  0.00  0.00    +0.005 A 
ATOM     15  C   UNL     1      13.613  -7.887  -0.168  0.00  0.00    +0.038 A 
ATOM     16  C   UNL     1      12.294  -8.146  -0.502  0.00  0.00    +0.125 A 
ATOM     17  C   UNL     1      11.305  -7.240  -0.165  0.00  0.00    +0.066 A 
ATOM     18  F   UNL     1      11.973  -9.286  -1.151  0.00  0.00    -0.205 F 
ENDBRANCH   7  12
BRANCH   4  19
ATOM     19  C   UNL     1       9.539  -2.231   4.016  0.00  0.00    +0.038 A 
ATOM     20  C   UNL     1      10.870  -1.938   4.260  0.00  0.00    +0.017 A 
ATOM     21  C   UNL     1      11.177  -1.590   5.556  0.00  0.00    +0.008 A 
ATOM     22  C   UNL     1      10.188  -1.557   6.481  0.00  0.00    +0.046 A 
ATOM     23  S   UNL     1       8.809  -1.988   5.624  0.00  0.00    -0.095 S 
ENDBRANCH   4  19
BRANCH   6  24
ATOM     24  N   UNL     1      11.590  -4.383   2.945  0.00  0.00    -0.342 N 
ATOM     25  H   UNL     1      11.437  -3.890   3.766  0.00  0.00    +0.144 HD
ATOM     26  H   UNL     1      12.418  -4.875   2.822  0.00  0.00    +0.144 HD
ENDBRANCH   6  24
BRANCH   1  27
ATOM     27  C   UNL     1       5.241  -2.161  -0.312  0.00  0.00    +0.145 C 
BRANCH  27  28
ATOM     28  C   UNL     1       3.956  -1.338  -0.421  0.00  0.00    +0.247 C 
BRANCH  28  29
ATOM     29  O   UNL     1       4.286   0.045  -0.556  0.00  0.00    -0.490 OA
BRANCH  29  33
ATOM     30  C   UNL     1       1.145   2.698  -0.890  0.00  0.00    +0.000 A 
ATOM     31  C   UNL     1       2.446   3.164  -0.911  0.00  0.00    +0.004 A 
ATOM     32  C   UNL     1       3.500   2.278  -0.799  0.00  0.00    +0.045 A 
ATOM     33  C   UNL     1       3.252   0.919  -0.665  0.00  0.00    +0.121 A 
ATOM     34  C   UNL     1       1.944   0.455  -0.645  0.00  0.00    +0.045 A 
ATOM     35  C   UNL     1       0.894   1.345  -0.757  0.00  0.00    +0.004 A 
ENDBRANCH  29  33
ENDBRANCH  28  29
ENDBRANCH  27  28
ENDBRANCH   1  27
TORSDOF 7
