REMARK  Name = ZINC39684598
REMARK  10 active torsions:
REMARK  status: ('A' for Active; 'I' for Inactive)
REMARK    1  A    between atoms: C_1  and  C_2
REMARK    2  A    between atoms: C_2  and  C_4
REMARK    3  A    between atoms: C_2  and  N_8
REMARK    4  A    between atoms: C_4  and  C_5
REMARK    5  A    between atoms: C_4  and  C_6
REMARK    6  A    between atoms: C_4  and  C_7
REMARK    7  A    between atoms: C_9  and  C_11
REMARK    8  A    between atoms: C_22  and  C_24
REMARK    9  A    between atoms: C_29  and  O_30
REMARK   10  A    between atoms: O_30  and  C_31
REMARK                            x       y       z     vdW  Elec       q    Type
REMARK                         _______ _______ _______ _____ _____    ______ ____
ROOT
ATOM      1  C   UNL     1       2.730  -1.006   1.837  0.00  0.00    +0.100 C 
ATOM      2  C   UNL     1       2.229  -2.342   2.430  0.00  0.00    +0.121 C 
ATOM      3  N   UNL     1       3.204  -3.352   1.955  0.00  0.00    -0.296 N 
ATOM      4  C   UNL     1       4.516  -2.668   2.046  0.00  0.00    +0.115 C 
ATOM      5  C   UNL     1       4.233  -1.223   1.590  0.00  0.00    -0.004 C 
ATOM      6  C   UNL     1       5.052  -0.238   2.418  0.00  0.00    -0.010 C 
ATOM      7  C   UNL     1       6.539  -0.433   2.111  0.00  0.00    -0.082 C 
ATOM      8  N   UNL     1       6.778  -0.217   0.679  0.00  0.00    +0.379 N 
ATOM      9  C   UNL     1       6.060  -1.228  -0.106  0.00  0.00    -0.082 C 
ATOM     10  C   UNL     1       4.552  -1.066   0.107  0.00  0.00    -0.010 C 
ATOM     11  C   UNL     1       2.954  -4.608   1.535  0.00  0.00    +0.252 C 
ATOM     12  O   UNL     1       3.877  -5.353   1.264  0.00  0.00    -0.270 OA
ATOM     13  H   UNL     1       6.453   0.702   0.420  0.00  0.00    -0.086 HD
ATOM     14  H   UNL     1       7.767  -0.286   0.490  0.00  0.00    -0.086 HD
ENDROOT
BRANCH  11  15
ATOM     15  C   UNL     1       1.563  -5.080   1.406  0.00  0.00    +0.099 A 
ATOM     16  C   UNL     1       0.577  -4.645   2.300  0.00  0.00    +0.020 A 
ATOM     17  C   UNL     1      -0.713  -5.117   2.136  0.00  0.00    +0.021 A 
ATOM     18  C   UNL     1      -0.990  -5.995   1.103  0.00  0.00    +0.114 A 
ATOM     19  N   UNL     1      -0.046  -6.392   0.273  0.00  0.00    -0.220 NA
ATOM     20  C   UNL     1       1.202  -5.968   0.382  0.00  0.00    +0.233 A 
BRANCH  20  21
ATOM     21  O   UNL     1       2.138  -6.397  -0.498  0.00  0.00    -0.437 OA
BRANCH  21  22
ATOM     22  C   UNL     1       1.772  -7.332  -1.414  0.00  0.00    +0.130 A 
ATOM     23  C   UNL     1       1.035  -6.960  -2.529  0.00  0.00    +0.048 A 
ATOM     24  C   UNL     1       0.664  -7.912  -3.459  0.00  0.00    +0.023 A 
ATOM     25  C   UNL     1       1.026  -9.235  -3.279  0.00  0.00    +0.041 A 
ATOM     26  C   UNL     1       1.761  -9.608  -2.167  0.00  0.00    +0.023 A 
ATOM     27  C   UNL     1       2.139  -8.658  -1.238  0.00  0.00    +0.048 A 
ATOM     28 CL   UNL     1       0.559 -10.429  -4.449  0.00  0.00    -0.084 Cl
ENDBRANCH  21  22
ENDBRANCH  20  21
ENDBRANCH  11  15
BRANCH   1  30
ATOM     29  N   UNL     1       1.839   0.568   0.150  0.00  0.00    -0.312 N 
ATOM     30  C   UNL     1       2.023  -0.709   0.540  0.00  0.00    +0.218 C 
ATOM     31  O   UNL     1       1.619  -1.619  -0.152  0.00  0.00    -0.275 OA
ATOM     32  H   UNL     1       2.162   1.296   0.704  0.00  0.00    +0.149 HD
BRANCH  29  34
ATOM     33  C   UNL     1       2.156   0.803  -2.264  0.00  0.00    +0.028 C 
ATOM     34  C   UNL     1       1.151   0.857  -1.111  0.00  0.00    +0.075 C 
BRANCH  34  35
ATOM     35  C   UNL     1       0.527   2.252  -1.043  0.00  0.00    -0.020 C 
ATOM     36  C   UNL     1      -0.192   2.554  -2.360  0.00  0.00    +0.012 C 
ATOM     37  C   UNL     1      -0.478   2.305   0.110  0.00  0.00    +0.012 C 
ATOM     38  C   UNL     1       1.625   3.292  -0.811  0.00  0.00    +0.012 C 
ENDBRANCH  34  35
ENDBRANCH  29  34
ENDBRANCH   1  30
TORSDOF 6
