REMARK  Name = ZINC10219886
REMARK  5 active torsions:
REMARK  status: ('A' for Active; 'I' for Inactive)
REMARK    1  A    between atoms: C_6  and  N_7
REMARK    2  A    between atoms: C_8  and  N_17
REMARK    3  A    between atoms: C_18  and  C_20
REMARK    4  A    between atoms: N_22  and  C_23
REMARK    5  A    between atoms: C_23  and  C_24
REMARK                            x       y       z     vdW  Elec       q    Type
REMARK                         _______ _______ _______ _____ _____    ______ ____
ROOT
ATOM      1  N   UNL     1      -5.012  -0.508   0.223  0.00  0.00    -0.218 N 
ATOM      2  C   UNL     1      -4.856   0.837   0.297  0.00  0.00    +0.134 A 
ATOM      3  C   UNL     1      -6.110   1.405   0.248  0.00  0.00    +0.038 A 
ATOM      4  C   UNL     1      -7.035   0.380   0.147  0.00  0.00    +0.091 A 
ATOM      5  N   UNL     1      -6.380  -0.773   0.135  0.00  0.00    -0.168 NA
ATOM      6  C   UNL     1      -8.506   0.786   0.078  0.00  0.00    +0.223 C 
ATOM      7  S   UNL     1      -8.441   2.536   0.643  0.00  0.00    -0.021 S 
ATOM      8  O   UNL     1      -8.648   2.585   2.048  0.00  0.00    -0.174 OA
ATOM      9  O   UNL     1      -9.237   3.340  -0.216  0.00  0.00    -0.174 OA
ATOM     10  C   UNL     1      -6.661   2.829   0.278  0.00  0.00    +0.206 C 
ENDROOT
BRANCH   1  16
ATOM     11  C   UNL     1      -2.800  -1.215  -0.446  0.00  0.00    +0.029 A 
ATOM     12  C   UNL     1      -1.787  -2.154  -0.429  0.00  0.00    +0.022 A 
ATOM     13  C   UNL     1      -1.957  -3.344   0.257  0.00  0.00    +0.041 A 
ATOM     14  C   UNL     1      -3.139  -3.594   0.931  0.00  0.00    +0.022 A 
ATOM     15  C   UNL     1      -4.152  -2.656   0.921  0.00  0.00    +0.029 A 
ATOM     16  C   UNL     1      -3.985  -1.462   0.234  0.00  0.00    +0.068 A 
ATOM     17 CL   UNL     1      -0.684  -4.525   0.272  0.00  0.00    -0.084 Cl
ENDBRANCH   1  16
BRANCH   2  18
ATOM     18  N   UNL     1      -3.648   1.520   0.400  0.00  0.00    -0.262 N 
ATOM     19  C   UNL     1      -3.542   2.776  -0.077  0.00  0.00    +0.304 C 
ATOM     20  O   UNL     1      -4.474   3.283  -0.667  0.00  0.00    -0.265 OA
ATOM     21  H   UNL     1      -2.882   1.093   0.814  0.00  0.00    +0.157 HD
BRANCH  19  22
ATOM     22  C   UNL     1      -2.277   3.545   0.119  0.00  0.00    +0.299 C 
ATOM     23  O   UNL     1      -1.344   3.039   0.709  0.00  0.00    -0.265 OA
ATOM     24  N   UNL     1      -2.170   4.801  -0.358  0.00  0.00    -0.305 N 
ATOM     25  H   UNL     1      -2.915   5.206  -0.829  0.00  0.00    +0.149 HD
BRANCH  24  26
ATOM     26  C   UNL     1      -0.931   5.557  -0.160  0.00  0.00    +0.136 C 
BRANCH  26  27
ATOM     27  C   UNL     1      -1.075   6.945  -0.787  0.00  0.00    +0.135 C 
ATOM     28  C   UNL     1       0.224   7.749  -0.584  0.00  0.00    +0.035 C 
ATOM     29  C   UNL     1       0.680   8.102  -2.021  0.00  0.00    +0.031 C 
ATOM     30  C   UNL     1      -0.636   7.952  -2.826  0.00  0.00    +0.160 C 
ATOM     31  O   UNL     1      -1.284   6.822  -2.204  0.00  0.00    -0.375 OA
ENDBRANCH  26  27
ENDBRANCH  24  26
ENDBRANCH  19  22
ENDBRANCH   2  18
TORSDOF 5
