REMARK  Name = ZINC03167736
REMARK  6 active torsions:
REMARK  status: ('A' for Active; 'I' for Inactive)
REMARK    1  A    between atoms: C_1  and  C_2
REMARK    2  A    between atoms: N_8  and  N_9
REMARK    3  A    between atoms: C_10  and  C_11
REMARK    4  A    between atoms: C_15  and  O_17
REMARK    5  A    between atoms: O_17  and  S_18
REMARK    6  A    between atoms: S_18  and  C_21
REMARK                            x       y       z     vdW  Elec       q    Type
REMARK                         _______ _______ _______ _____ _____    ______ ____
ROOT
ATOM      1  C   UNL     1      -1.262  -0.757   0.010  0.00  0.00    -0.002 A 
ATOM      2  C   UNL     1      -2.485  -0.077   0.025  0.00  0.00    +0.010 A 
ATOM      3  C   UNL     1      -3.667  -0.787   0.033  0.00  0.00    +0.004 A 
ATOM      4  C   UNL     1      -3.649  -2.171   0.025  0.00  0.00    +0.048 A 
ATOM      5  C   UNL     1      -2.441  -2.855   0.010  0.00  0.00    +0.157 A 
ATOM      6  C   UNL     1      -1.247  -2.155  -0.003  0.00  0.00    +0.058 A 
ENDROOT
BRANCH   1   8
ATOM      7  N   UNL     1      -0.016   1.301   0.009  0.00  0.00    -0.155 NA
ATOM      8  C   UNL     1       0.002  -0.004   0.002  0.00  0.00    +0.143 C 
BRANCH   7  15
ATOM      9  C   UNL     1       0.246   6.776  -1.226  0.00  0.00    +0.029 C 
ATOM     10  C   UNL     1       0.562   5.959   0.029  0.00  0.00    +0.137 C 
ATOM     11  C   UNL     1       1.997   5.457   0.012  0.00  0.00    +0.232 C 
ATOM     12  O   UNL     1       2.944   6.215   0.008  0.00  0.00    -0.274 OA
ATOM     13  N   UNL     1       2.147   4.144   0.004  0.00  0.00    -0.263 N 
ATOM     14  C   UNL     1       1.075   3.278   0.009  0.00  0.00    +0.183 C 
ATOM     15  N   UNL     1       1.093   1.961   0.002  0.00  0.00    -0.127 NA
ATOM     16  S   UNL     1      -0.345   4.362   0.021  0.00  0.00    -0.076 S 
ATOM     17  H   UNL     1       3.045   3.776  -0.006  0.00  0.00    +0.157 HD
ENDBRANCH   7  15
ENDBRANCH   1   8
BRANCH   5  18
ATOM     18  O   UNL     1      -2.430  -4.214   0.002  0.00  0.00    -0.342 OA
BRANCH  18  19
ATOM     19  S   UNL     1      -2.439  -4.825  -1.392  0.00  0.00    +0.152 S 
ATOM     20  O   UNL     1      -2.636  -6.222  -1.222  0.00  0.00    -0.131 OA
ATOM     21  O   UNL     1      -3.307  -4.024  -2.182  0.00  0.00    -0.131 OA
BRANCH  19  22
ATOM     22  C   UNL     1      -0.821  -4.623  -2.059  0.00  0.00    +0.143 A 
ATOM     23  C   UNL     1      -0.510  -3.490  -2.787  0.00  0.00    +0.047 A 
ATOM     24  C   UNL     1       0.762  -3.329  -3.307  0.00  0.00    +0.020 A 
ATOM     25  C   UNL     1       1.720  -4.307  -3.107  0.00  0.00    +0.016 A 
ATOM     26  C   UNL     1       1.407  -5.442  -2.383  0.00  0.00    +0.018 A 
ATOM     27  C   UNL     1       0.137  -5.601  -1.859  0.00  0.00    +0.046 A 
ATOM     28 BR   UNL     1      -0.291  -7.155  -0.870  0.00  0.00    -0.048 Br
ATOM     29 BR   UNL     1       1.189  -1.775  -4.296  0.00  0.00    -0.050 Br
ENDBRANCH  19  22
ENDBRANCH  18  19
ENDBRANCH   5  18
TORSDOF 5
