REMARK  Name = ZINC00805258
REMARK  9 active torsions:
REMARK  status: ('A' for Active; 'I' for Inactive)
REMARK    1  A    between atoms: C_1  and  C_2
REMARK    2  A    between atoms: C_2  and  N_3
REMARK    3  A    between atoms: N_3  and  C_4
REMARK    4  A    between atoms: N_3  and  S_6
REMARK    5  A    between atoms: C_4  and  C_5
REMARK    6  A    between atoms: S_6  and  C_9
REMARK    7  A    between atoms: C_12  and  N_15
REMARK    8  A    between atoms: N_15  and  C_16
REMARK    9  A    between atoms: N_23  and  C_26
REMARK                            x       y       z     vdW  Elec       q    Type
REMARK                         _______ _______ _______ _____ _____    ______ ____
ROOT
ATOM      1  C   UNL     1       0.206   4.291  -6.800  0.00  0.00    +0.090 C 
ATOM      2  C   UNL     1       0.051   5.395  -7.618  0.00  0.00    +0.113 C 
ATOM      3  C   UNL     1       1.000   5.686  -8.707  0.00  0.00    +0.258 C 
ATOM      4  O   UNL     1       1.952   4.957  -8.917  0.00  0.00    -0.270 OA
ATOM      5  N   UNL     1       0.785   6.781  -9.465  0.00  0.00    -0.235 N 
ATOM      6  C   UNL     1      -0.259   7.592  -9.244  0.00  0.00    +0.320 C 
ATOM      7  O   UNL     1      -0.395   8.562  -9.963  0.00  0.00    -0.251 OA
ATOM      8  N   UNL     1      -1.160   7.389  -8.273  0.00  0.00    -0.190 N 
ATOM      9  C   UNL     1      -1.075   6.330  -7.442  0.00  0.00    +0.265 C 
ATOM     10  O   UNL     1      -1.903   6.154  -6.568  0.00  0.00    -0.269 OA
ATOM     11  H   UNL     1       1.401   6.986 -10.186  0.00  0.00    +0.159 HD
ENDROOT
BRANCH   8  12
ATOM     12  C   UNL     1      -2.219   8.296  -8.121  0.00  0.00    +0.046 A 
ATOM     13  C   UNL     1      -2.297   9.089  -6.985  0.00  0.00    +0.025 A 
ATOM     14  C   UNL     1      -3.341   9.981  -6.837  0.00  0.00    +0.022 A 
ATOM     15  C   UNL     1      -4.308  10.085  -7.821  0.00  0.00    +0.041 A 
ATOM     16  C   UNL     1      -4.232   9.295  -8.955  0.00  0.00    +0.022 A 
ATOM     17  C   UNL     1      -3.187   8.405  -9.109  0.00  0.00    +0.025 A 
ATOM     18 CL   UNL     1      -5.619  11.207  -7.633  0.00  0.00    -0.084 Cl
ENDBRANCH   8  12
BRANCH   1  19
ATOM     19  N   UNL     1      -0.751   3.976  -5.903  0.00  0.00    -0.320 N 
ATOM     20  H   UNL     1      -1.510   4.566  -5.776  0.00  0.00    +0.152 HD
BRANCH  19  24
ATOM     21  C   UNL     1      -0.444   0.470  -3.676  0.00  0.00    +0.106 A 
ATOM     22  C   UNL     1      -1.528   1.310  -3.494  0.00  0.00    +0.030 A 
ATOM     23  C   UNL     1      -1.632   2.473  -4.231  0.00  0.00    +0.025 A 
ATOM     24  C   UNL     1      -0.648   2.799  -5.155  0.00  0.00    +0.031 A 
ATOM     25  C   UNL     1       0.439   1.953  -5.335  0.00  0.00    +0.025 A 
ATOM     26  C   UNL     1       0.540   0.794  -4.591  0.00  0.00    +0.030 A 
BRANCH  21  27
ATOM     27  S   UNL     1      -0.315  -1.014  -2.735  0.00  0.00    +0.061 S 
ATOM     28  O   UNL     1       0.516  -1.895  -3.477  0.00  0.00    -0.153 OA
ATOM     29  O   UNL     1      -1.635  -1.362  -2.342  0.00  0.00    -0.153 OA
BRANCH  27  30
ATOM     30  N   UNL     1       0.509  -0.642  -1.347  0.00  0.00    -0.177 NA
BRANCH  30  32
ATOM     31  C   UNL     1      -0.257   1.322  -0.109  0.00  0.00    +0.022 C 
ATOM     32  C   UNL     1      -0.222  -0.207  -0.155  0.00  0.00    +0.106 C 
ENDBRANCH  30  32
BRANCH  30  33
ATOM     33  C   UNL     1       1.970  -0.750  -1.312  0.00  0.00    +0.106 C 
ATOM     34  C   UNL     1       2.368  -2.115  -0.748  0.00  0.00    +0.022 C 
ENDBRANCH  30  33
ENDBRANCH  27  30
ENDBRANCH  21  27
ENDBRANCH  19  24
ENDBRANCH   1  19
TORSDOF 7
