REMARK  Name = ZINC15866454
REMARK  6 active torsions:
REMARK  status: ('A' for Active; 'I' for Inactive)
REMARK    1  A    between atoms: C_1  and  O_2
REMARK    2  A    between atoms: O_2  and  C_3
REMARK    3  A    between atoms: C_6  and  C_11
REMARK    4  A    between atoms: C_8  and  O_9
REMARK    5  A    between atoms: O_9  and  C_10
REMARK    6  A    between atoms: C_14  and  C_22
REMARK                            x       y       z     vdW  Elec       q    Type
REMARK                         _______ _______ _______ _____ _____    ______ ____
ROOT
ATOM      1  C   UNL     1       4.386   0.212   1.399  0.00  0.00    +0.144 C 
ATOM      2  C   UNL     1       3.075   1.008   1.401  0.00  0.00    +0.059 C 
ATOM      3  C   UNL     1       2.490   1.047  -0.016  0.00  0.00    +0.106 C 
ATOM      4  N   UNL     1       3.440   1.750  -0.900  0.00  0.00    -0.305 N 
ATOM      5  C   UNL     1       4.779   1.416  -0.748  0.00  0.00    +0.236 A 
ATOM      6  N   UNL     1       5.231   0.701   0.313  0.00  0.00    -0.206 N 
ATOM      7  N   UNL     1       6.604   0.564   0.112  0.00  0.00    -0.042 NA
ATOM      8  N   UNL     1       6.878   1.175  -0.995  0.00  0.00    -0.021 NA
ATOM      9  N   UNL     1       5.807   1.679  -1.505  0.00  0.00    -0.092 NA
ATOM     10  H   UNL     1       3.146   2.408  -1.550  0.00  0.00    +0.150 HD
ENDROOT
BRANCH   3  11
ATOM     11  C   UNL     1       1.175   1.783   0.000  0.00  0.00    -0.027 A 
ATOM     12  C   UNL     1      -0.013   1.076   0.008  0.00  0.00    +0.006 A 
ATOM     13  C   UNL     1      -1.219   1.750   0.017  0.00  0.00    +0.015 A 
ATOM     14  C   UNL     1      -1.238   3.134   0.029  0.00  0.00    +0.018 A 
ATOM     15  C   UNL     1      -0.049   3.841   0.022  0.00  0.00    +0.015 A 
ATOM     16  C   UNL     1       1.157   3.165   0.008  0.00  0.00    +0.006 A 
ATOM     17 BR   UNL     1      -2.888   4.057   0.049  0.00  0.00    -0.050 Br
ENDBRANCH   3  11
BRANCH   1  21
ATOM     18  C   UNL     1       6.398   0.762   5.133  0.00  0.00    +0.162 A 
ATOM     19  C   UNL     1       6.125   1.852   4.322  0.00  0.00    +0.050 A 
ATOM     20  C   UNL     1       5.480   1.671   3.113  0.00  0.00    +0.009 A 
ATOM     21  C   UNL     1       5.095   0.404   2.715  0.00  0.00    -0.019 A 
ATOM     22  C   UNL     1       5.365  -0.688   3.519  0.00  0.00    +0.055 A 
ATOM     23  C   UNL     1       6.016  -0.514   4.729  0.00  0.00    +0.162 A 
BRANCH  18  25
ATOM     24  C   UNL     1       7.400   2.276   6.669  0.00  0.00    +0.277 C 
ATOM     25  O   UNL     1       7.038   0.939   6.320  0.00  0.00    -0.491 OA
ENDBRANCH  18  25
BRANCH  23  26
ATOM     26  O   UNL     1       6.282  -1.587   5.521  0.00  0.00    -0.491 OA
ATOM     27  C   UNL     1       5.860  -2.866   5.044  0.00  0.00    +0.277 C 
ENDBRANCH  23  26
ENDBRANCH   1  21
TORSDOF 4
