REMARK  Name = ZINC39681935
REMARK  7 active torsions:
REMARK  status: ('A' for Active; 'I' for Inactive)
REMARK    1  A    between atoms: C_1  and  C_2
REMARK    2  A    between atoms: C_2  and  C_3
REMARK    3  A    between atoms: C_3  and  C_4
REMARK    4  A    between atoms: C_4  and  C_6
REMARK    5  A    between atoms: C_4  and  C_7
REMARK    6  A    between atoms: C_11  and  C_20
REMARK    7  A    between atoms: N_22  and  C_23
REMARK                            x       y       z     vdW  Elec       q    Type
REMARK                         _______ _______ _______ _____ _____    ______ ____
ROOT
ATOM      1  C   UNL     1       1.744  -2.436  -2.210  0.00  0.00    +0.218 C 
ATOM      2  O   UNL     1       2.405  -1.685  -2.894  0.00  0.00    -0.275 OA
ATOM      3  N   UNL     1       1.715  -3.754  -2.490  0.00  0.00    -0.300 N 
ATOM      4  C   UNL     1       0.886  -4.801  -1.849  0.00  0.00    +0.121 C 
ATOM      5  C   UNL     1       0.455  -5.724  -3.011  0.00  0.00    +0.100 C 
ATOM      6  C   UNL     1       1.524  -5.512  -4.097  0.00  0.00    -0.004 C 
ATOM      7  C   UNL     1       2.502  -4.482  -3.514  0.00  0.00    +0.115 C 
ATOM      8  C   UNL     1       2.247  -6.823  -4.389  0.00  0.00    -0.010 C 
ATOM      9  C   UNL     1       3.264  -6.600  -5.513  0.00  0.00    -0.082 C 
ATOM     10  N   UNL     1       2.571  -6.122  -6.715  0.00  0.00    +0.379 N 
ATOM     11  C   UNL     1       1.956  -4.816  -6.452  0.00  0.00    -0.082 C 
ATOM     12  C   UNL     1       0.883  -4.963  -5.368  0.00  0.00    -0.010 C 
ATOM     13  H   UNL     1       3.233  -6.034  -7.471  0.00  0.00    -0.086 HD
ATOM     14  H   UNL     1       1.855  -6.784  -6.974  0.00  0.00    -0.086 HD
ENDROOT
BRANCH   5  15
ATOM     15  C   UNL     1      -0.904  -5.323  -3.524  0.00  0.00    +0.218 C 
ATOM     16  O   UNL     1      -1.288  -4.180  -3.393  0.00  0.00    -0.275 OA
ATOM     17  N   UNL     1      -1.692  -6.234  -4.128  0.00  0.00    -0.314 N 
ATOM     18  H   UNL     1      -1.385  -7.147  -4.233  0.00  0.00    +0.149 HD
BRANCH  17  19
ATOM     19  C   UNL     1      -3.014  -5.843  -4.627  0.00  0.00    +0.059 C 
ATOM     20  C   UNL     1      -2.878  -5.255  -6.033  0.00  0.00    -0.056 C 
ATOM     21  N   UNL     1      -3.655  -6.050  -6.987  0.00  0.00    +0.381 N 
ATOM     22  C   UNL     1      -3.155  -7.426  -7.037  0.00  0.00    -0.078 C 
ATOM     23  C   UNL     1      -3.300  -8.087  -5.664  0.00  0.00    -0.014 C 
ATOM     24  C   UNL     1      -3.925  -7.076  -4.689  0.00  0.00    +0.004 C 
ATOM     25  C   UNL     1      -5.286  -6.644  -5.248  0.00  0.00    -0.014 C 
ATOM     26  C   UNL     1      -5.077  -6.030  -6.638  0.00  0.00    -0.078 C 
ATOM     27  H   UNL     1      -3.545  -5.645  -7.904  0.00  0.00    -0.082 HD
ENDBRANCH  17  19
ENDBRANCH   5  15
BRANCH   1  28
ATOM     28  C   UNL     1       0.954  -1.896  -1.045  0.00  0.00    +0.072 C 
ATOM     29  C   UNL     1       0.434  -0.498  -1.386  0.00  0.00    +0.017 C 
BRANCH  28  30
ATOM     30  C   UNL     1       1.853  -1.819   0.190  0.00  0.00    +0.012 C 
BRANCH  30  32
ATOM     31  C   UNL     1       1.922  -1.314   2.635  0.00  0.00    +0.004 C 
ATOM     32  C   UNL     1       1.022  -1.391   1.400  0.00  0.00    -0.003 C 
ENDBRANCH  30  32
ENDBRANCH  28  30
ENDBRANCH   1  28
TORSDOF 5
