REMARK  Name = ZINC16958710
REMARK  11 active torsions:
REMARK  status: ('A' for Active; 'I' for Inactive)
REMARK    1  A    between atoms: C_1  and  C_2
REMARK    2  A    between atoms: C_4  and  C_22
REMARK    3  A    between atoms: C_13  and  N_15
REMARK    4  A    between atoms: N_15  and  C_16
REMARK    5  A    between atoms: C_16  and  C_17
REMARK    6  A    between atoms: C_17  and  O_18
REMARK    7  A    between atoms: C_24  and  O_31
REMARK    8  A    between atoms: C_25  and  O_30
REMARK    9  A    between atoms: C_26  and  O_28
REMARK   10  A    between atoms: O_28  and  C_29
REMARK   11  A    between atoms: O_31  and  C_32
REMARK                            x       y       z     vdW  Elec       q    Type
REMARK                         _______ _______ _______ _____ _____    ______ ____
ROOT
ATOM      1  C   UNL     1      -0.019   1.526   0.010  0.00  0.00    +0.013 C 
ATOM      2  C   UNL     1       0.002  -0.004   0.002  0.00  0.00    +0.054 C 
ATOM      3  C   UNL     1      -1.432  -0.540   0.027  0.00  0.00    +0.060 C 
ATOM      4  C   UNL     1      -1.417  -2.019   0.316  0.00  0.00    +0.006 A 
ATOM      5  C   UNL     1      -2.546  -2.767   0.020  0.00  0.00    +0.057 A 
ATOM      6  C   UNL     1      -2.573  -4.126   0.274  0.00  0.00    +0.167 A 
ATOM      7  C   UNL     1      -1.457  -4.748   0.831  0.00  0.00    +0.170 A 
ATOM      8  C   UNL     1      -0.330  -4.002   1.124  0.00  0.00    +0.095 A 
ATOM      9  C   UNL     1      -0.307  -2.635   0.867  0.00  0.00    +0.130 A 
ATOM     10  O   UNL     1       0.824  -1.940   1.163  0.00  0.00    -0.473 OA
ATOM     11  C   UNL     1       0.731  -0.518   1.250  0.00  0.00    +0.246 C 
ATOM     12  O   UNL     1      -1.730  -6.077   0.984  0.00  0.00    -0.452 OA
ATOM     13  C   UNL     1      -3.163  -6.188   0.897  0.00  0.00    +0.466 C 
ATOM     14  O   UNL     1      -3.544  -5.067   0.079  0.00  0.00    -0.453 OA
ENDROOT
BRANCH   3  15
ATOM     15  C   UNL     1      -2.080  -0.298  -1.312  0.00  0.00    -0.032 A 
ATOM     16  C   UNL     1      -1.537  -0.859  -2.452  0.00  0.00    +0.054 A 
ATOM     17  C   UNL     1      -2.131  -0.639  -3.686  0.00  0.00    +0.165 A 
ATOM     18  C   UNL     1      -3.274   0.147  -3.775  0.00  0.00    +0.201 A 
ATOM     19  C   UNL     1      -3.817   0.709  -2.625  0.00  0.00    +0.165 A 
ATOM     20  C   UNL     1      -3.220   0.480  -1.395  0.00  0.00    +0.054 A 
BRANCH  19  21
ATOM     21  O   UNL     1      -4.935   1.479  -2.707  0.00  0.00    -0.491 OA
ATOM     22  C   UNL     1      -5.438   2.024  -1.485  0.00  0.00    +0.277 C 
ENDBRANCH  19  21
BRANCH  18  23
ATOM     23  O   UNL     1      -3.859   0.366  -4.984  0.00  0.00    -0.501 OA
ATOM     24  H   UNL     1      -4.530  -0.288  -5.220  0.00  0.00    +0.292 HD
ENDBRANCH  18  23
BRANCH  17  25
ATOM     25  O   UNL     1      -1.595  -1.190  -4.808  0.00  0.00    -0.491 OA
ATOM     26  C   UNL     1      -0.420  -1.986  -4.641  0.00  0.00    +0.277 C 
ENDBRANCH  17  25
ENDBRANCH   3  15
BRANCH  11  27
ATOM     27  N   UNL     1       2.078   0.064   1.311  0.00  0.00    -0.279 NA
ATOM     28  H   UNL     1       2.749  -0.528   0.845  0.00  0.00    +0.125 HD
BRANCH  27  29
ATOM     29  C   UNL     1       2.478   0.320   2.701  0.00  0.00    +0.112 C 
BRANCH  29  30
ATOM     30  C   UNL     1       3.884   0.925   2.724  0.00  0.00    +0.171 C 
BRANCH  30  31
ATOM     31  O   UNL     1       3.861   2.208   2.095  0.00  0.00    -0.394 OA
ATOM     32  H   UNL     1       4.720   2.651   2.074  0.00  0.00    +0.209 HD
ENDBRANCH  30  31
ENDBRANCH  29  30
ENDBRANCH  27  29
ENDBRANCH  11  27
TORSDOF 8
