REMARK  Name = ZINC38975643
REMARK  7 active torsions:
REMARK  status: ('A' for Active; 'I' for Inactive)
REMARK    1  A    between atoms: C_1  and  C_2
REMARK    2  A    between atoms: C_4  and  C_8
REMARK    3  A    between atoms: N_14  and  N_15
REMARK    4  A    between atoms: C_16  and  C_17
REMARK    5  A    between atoms: C_19  and  O_25
REMARK    6  A    between atoms: C_20  and  O_24
REMARK    7  A    between atoms: O_25  and  C_26
REMARK                            x       y       z     vdW  Elec       q    Type
REMARK                         _______ _______ _______ _____ _____    ______ ____
ROOT
ATOM      1  N   UNL     1       0.712  -4.886  -1.106  0.00  0.00    -0.184 NA
ATOM      2  C   UNL     1       0.882  -6.165  -0.953  0.00  0.00    +0.138 C 
ENDROOT
BRANCH   2   3
ATOM      3  C   UNL     1       2.236  -6.709  -0.750  0.00  0.00    -0.001 A 
ATOM      4  C   UNL     1       2.421  -8.086  -0.591  0.00  0.00    +0.059 A 
ATOM      5  C   UNL     1       3.694  -8.591  -0.401  0.00  0.00    +0.163 A 
ATOM      6  C   UNL     1       4.788  -7.730  -0.367  0.00  0.00    +0.173 A 
ATOM      7  C   UNL     1       4.605  -6.363  -0.524  0.00  0.00    +0.063 A 
ATOM      8  C   UNL     1       3.339  -5.852  -0.721  0.00  0.00    +0.028 A 
ATOM      9 BR   UNL     1       6.096  -5.200  -0.477  0.00  0.00    -0.046 Br
BRANCH   6  10
ATOM     10  O   UNL     1       6.039  -8.230  -0.180  0.00  0.00    -0.503 OA
ATOM     11  H   UNL     1       6.496  -8.462  -0.999  0.00  0.00    +0.292 HD
ENDBRANCH   6  10
BRANCH   5  12
ATOM     12  O   UNL     1       3.877  -9.930  -0.246  0.00  0.00    -0.491 OA
ATOM     13  C   UNL     1       2.710 -10.754  -0.291  0.00  0.00    +0.277 C 
ENDBRANCH   5  12
ENDBRANCH   2   3
BRANCH   1  19
ATOM     14  C   UNL     1      -0.971  -2.964  -1.490  0.00  0.00    +0.265 C 
ATOM     15  N   UNL     1      -2.442  -3.004  -1.464  0.00  0.00    -0.169 NA
ATOM     16  N   UNL     1      -2.786  -4.162  -1.214  0.00  0.00    -0.096 NA
ATOM     17  C   UNL     1      -1.761  -5.006  -1.046  0.00  0.00    +0.198 C 
ATOM     18  S   UNL     1      -1.918  -6.673  -0.690  0.00  0.00    -0.013 S 
ATOM     19  N   UNL     1      -0.582  -4.358  -1.200  0.00  0.00    -0.173 N 
BRANCH  14  23
ATOM     20  C   UNL     1       0.096   1.611  -1.065  0.00  0.00    +0.067 C 
ATOM     21  C   UNL     1       0.107   0.125  -0.814  0.00  0.00    +0.058 C 
ATOM     22  C   UNL     1      -0.983  -0.617  -0.609  0.00  0.00    +0.030 C 
ATOM     23  C   UNL     1      -0.439  -2.020  -0.411  0.00  0.00    +0.198 C 
ATOM     24  N   UNL     1       1.016  -1.833  -0.549  0.00  0.00    -0.176 NA
ATOM     25  N   UNL     1       1.222  -0.638  -0.772  0.00  0.00    -0.159 NA
ENDBRANCH  14  23
ENDBRANCH   1  19
TORSDOF 5
