REMARK  Name = ZINC03484314
REMARK  5 active torsions:
REMARK  status: ('A' for Active; 'I' for Inactive)
REMARK    1  A    between atoms: C_11  and  C_16
REMARK    2  A    between atoms: C_16  and  S_17
REMARK    3  A    between atoms: S_17  and  C_18
REMARK    4  A    between atoms: C_21  and  C_24
REMARK    5  A    between atoms: N_22  and  N_23
REMARK                            x       y       z     vdW  Elec       q    Type
REMARK                         _______ _______ _______ _____ _____    ______ ____
ROOT
ATOM      1  C   UNL     1      -1.097   1.771   1.131  0.00  0.00    +0.001 A 
ATOM      2  C   UNL     1       0.092   1.095   0.902  0.00  0.00    +0.001 A 
ATOM      3  C   UNL     1       1.251   1.768   0.617  0.00  0.00    +0.009 A 
ATOM      4  C   UNL     1       1.289   3.160   0.536  0.00  0.00    -0.007 A 
ATOM      5  C   UNL     1       0.059   3.838   0.769  0.00  0.00    -0.017 A 
ATOM      6  C   UNL     1      -1.117   3.128   1.062  0.00  0.00    +0.008 A 
ATOM      7  C   UNL     1      -0.013   5.244   0.714  0.00  0.00    +0.012 A 
ATOM      8  C   UNL     1       1.087   5.972   0.437  0.00  0.00    +0.047 A 
ATOM      9  C   UNL     1       2.323   5.363   0.196  0.00  0.00    +0.140 A 
ATOM     10  C   UNL     1       2.479   3.961   0.234  0.00  0.00    +0.029 A 
ATOM     11  C   UNL     1       3.771   3.461  -0.028  0.00  0.00    -0.019 A 
ATOM     12  C   UNL     1       4.800   4.328  -0.297  0.00  0.00    +0.097 A 
ATOM     13  C   UNL     1       4.584   5.713  -0.319  0.00  0.00    +0.338 A 
ATOM     14  O   UNL     1       5.502   6.476  -0.558  0.00  0.00    -0.245 OA
ATOM     15  O   UNL     1       3.358   6.189  -0.073  0.00  0.00    -0.422 OA
ENDROOT
BRANCH  11  16
ATOM     16  C   UNL     1       4.165   2.007  -0.045  0.00  0.00    +0.113 C 
BRANCH  16  17
ATOM     17  S   UNL     1       4.488   1.450   1.647  0.00  0.00    -0.080 S 
BRANCH  17  18
ATOM     18  C   UNL     1       4.914  -0.232   1.339  0.00  0.00    +0.209 A 
ATOM     19  N   UNL     1       4.956  -0.825   0.168  0.00  0.00    -0.121 NA
ATOM     20  N   UNL     1       5.305  -2.053   0.314  0.00  0.00    -0.132 NA
ATOM     21  C   UNL     1       5.504  -2.316   1.574  0.00  0.00    +0.154 A 
ATOM     22  N   UNL     1       5.268  -1.163   2.272  0.00  0.00    -0.228 N 
BRANCH  22  23
ATOM     23  N   UNL     1       5.363  -0.983   3.623  0.00  0.00    -0.295 N 
ATOM     24  H   UNL     1       4.485  -1.182   4.077  0.00  0.00    +0.163 HD
ATOM     25  H   UNL     1       6.106  -1.544   4.011  0.00  0.00    +0.163 HD
ENDBRANCH  22  23
BRANCH  21  26
ATOM     26  C   UNL     1       5.923  -3.642   2.155  0.00  0.00    +0.059 C 
ATOM     27  C   UNL     1       6.337  -4.742   1.176  0.00  0.00    +0.012 C 
ATOM     28  C   UNL     1       5.002  -4.840   1.918  0.00  0.00    +0.012 C 
ENDBRANCH  21  26
ENDBRANCH  17  18
ENDBRANCH  16  17
ENDBRANCH  11  16
TORSDOF 5
