REMARK  Name = ZINC39530287
REMARK  7 active torsions:
REMARK  status: ('A' for Active; 'I' for Inactive)
REMARK    1  A    between atoms: C_1  and  C_2
REMARK    2  A    between atoms: C_2  and  C_3
REMARK    3  A    between atoms: C_2  and  S_4
REMARK    4  A    between atoms: S_4  and  C_7
REMARK    5  A    between atoms: C_10  and  N_20
REMARK    6  A    between atoms: C_11  and  C_13
REMARK    7  A    between atoms: C_18  and  O_19
REMARK                            x       y       z     vdW  Elec       q    Type
REMARK                         _______ _______ _______ _____ _____    ______ ____
ROOT
ATOM      1  C   UNL     1       2.463   0.138  -1.470  0.00  0.00    +0.089 A 
ATOM      2  C   UNL     1       2.795   1.409  -1.905  0.00  0.00    +0.029 A 
ATOM      3  C   UNL     1       4.077   1.893  -1.734  0.00  0.00    +0.025 A 
ATOM      4  C   UNL     1       5.042   1.104  -1.125  0.00  0.00    +0.038 A 
ATOM      5  C   UNL     1       4.709  -0.183  -0.684  0.00  0.00    +0.008 A 
ATOM      6  C   UNL     1       3.411  -0.657  -0.857  0.00  0.00    +0.037 A 
ENDROOT
BRANCH   4   7
ATOM      7  N   UNL     1       6.338   1.590  -0.952  0.00  0.00    -0.331 N 
ATOM      8  C   UNL     1       6.677   2.449   0.194  0.00  0.00    +0.086 C 
ATOM      9  C   UNL     1       7.405   3.692  -0.330  0.00  0.00    -0.060 C 
ATOM     10  N   UNL     1       8.558   3.278  -1.139  0.00  0.00    +0.400 N 
ATOM     11  C   UNL     1       8.098   2.557  -2.333  0.00  0.00    +0.119 C 
ATOM     12  C   UNL     1       7.406   1.254  -1.906  0.00  0.00    +0.120 C 
ATOM     13  O   UNL     1       9.218   2.250  -3.166  0.00  0.00    -0.250 OA
ATOM     14  H   UNL     1       9.080   4.094  -1.421  0.00  0.00    -0.082 HD
ATOM     15  H   UNL     1       9.153   2.674  -0.592  0.00  0.00    -0.082 HD
ENDBRANCH   4   7
BRANCH   5  16
ATOM     16  C   UNL     1       5.733  -1.034  -0.032  0.00  0.00    +0.025 A 
ATOM     17  C   UNL     1       6.199  -2.181  -0.671  0.00  0.00    +0.012 A 
ATOM     18  C   UNL     1       7.152  -2.971  -0.059  0.00  0.00    +0.001 A 
ATOM     19  C   UNL     1       7.646  -2.627   1.187  0.00  0.00    +0.004 A 
ATOM     20  C   UNL     1       7.191  -1.492   1.829  0.00  0.00    +0.046 A 
ATOM     21  C   UNL     1       6.238  -0.688   1.225  0.00  0.00    +0.125 A 
BRANCH  21  22
ATOM     22  O   UNL     1       5.793   0.432   1.853  0.00  0.00    -0.506 OA
ATOM     23  H   UNL     1       5.025   0.285   2.422  0.00  0.00    +0.292 HD
ENDBRANCH  21  22
ENDBRANCH   5  16
BRANCH   1  24
ATOM     24  S   UNL     1       0.824  -0.467  -1.694  0.00  0.00    -0.001 S 
ATOM     25  O   UNL     1       0.961  -1.880  -1.734  0.00  0.00    -0.169 OA
ATOM     26  O   UNL     1       0.325   0.245  -2.819  0.00  0.00    -0.169 OA
BRANCH  24  28
ATOM     27  C   UNL     1      -0.037   1.558  -0.068  0.00  0.00    +0.032 C 
ATOM     28  C   UNL     1      -0.066   0.033  -0.194  0.00  0.00    +0.130 C 
ATOM     29  C   UNL     1      -1.517  -0.444  -0.280  0.00  0.00    +0.032 C 
ENDBRANCH  24  28
ENDBRANCH   1  24
TORSDOF 5
