REMARK  Name = ZINC39664565
REMARK  8 active torsions:
REMARK  status: ('A' for Active; 'I' for Inactive)
REMARK    1  A    between atoms: C_1  and  N_2
REMARK    2  A    between atoms: N_2  and  C_3
REMARK    3  A    between atoms: N_2  and  C_4
REMARK    4  A    between atoms: C_4  and  C_5
REMARK    5  A    between atoms: C_5  and  C_7
REMARK    6  A    between atoms: C_5  and  N_13
REMARK    7  A    between atoms: C_14  and  C_16
REMARK    8  A    between atoms: C_27  and  C_29
REMARK                            x       y       z     vdW  Elec       q    Type
REMARK                         _______ _______ _______ _____ _____    ______ ____
ROOT
ATOM      1  C   UNL     1       1.454  -2.859  -2.807  0.00  0.00    +0.100 C 
ATOM      2  C   UNL     1       1.369  -1.699  -3.824  0.00  0.00    +0.121 C 
ATOM      3  N   UNL     1       2.641  -0.958  -3.653  0.00  0.00    -0.296 N 
ATOM      4  C   UNL     1       3.660  -2.016  -3.453  0.00  0.00    +0.115 C 
ATOM      5  C   UNL     1       2.959  -3.067  -2.569  0.00  0.00    -0.004 C 
ATOM      6  C   UNL     1       3.372  -4.473  -2.992  0.00  0.00    -0.010 C 
ATOM      7  C   UNL     1       4.860  -4.675  -2.692  0.00  0.00    -0.082 C 
ATOM      8  N   UNL     1       5.102  -4.483  -1.257  0.00  0.00    +0.379 N 
ATOM      9  C   UNL     1       4.790  -3.100  -0.877  0.00  0.00    -0.082 C 
ATOM     10  C   UNL     1       3.299  -2.831  -1.101  0.00  0.00    -0.010 C 
ATOM     11  C   UNL     1       2.829   0.377  -3.676  0.00  0.00    +0.249 C 
ATOM     12  O   UNL     1       3.954   0.833  -3.616  0.00  0.00    -0.270 OA
ATOM     13  H   UNL     1       4.518  -5.115  -0.731  0.00  0.00    -0.086 HD
ATOM     14  H   UNL     1       6.071  -4.676  -1.052  0.00  0.00    -0.086 HD
ENDROOT
BRANCH  11  15
ATOM     15  C   UNL     1       1.667   1.284  -3.773  0.00  0.00    +0.073 A 
ATOM     16  C   UNL     1       1.141   1.877  -2.622  0.00  0.00    +0.054 A 
ATOM     17  C   UNL     1       0.056   2.725  -2.721  0.00  0.00    +0.021 A 
ATOM     18  C   UNL     1      -0.511   2.988  -3.955  0.00  0.00    +0.003 A 
ATOM     19  C   UNL     1       0.004   2.404  -5.099  0.00  0.00    +0.021 A 
ATOM     20  C   UNL     1       1.093   1.559  -5.017  0.00  0.00    +0.054 A 
ATOM     21 CL   UNL     1       1.742   0.834  -6.454  0.00  0.00    -0.083 Cl
ATOM     22 CL   UNL     1       1.850   1.548  -1.072  0.00  0.00    -0.083 Cl
ENDBRANCH  11  15
BRANCH   1  24
ATOM     23  N   UNL     1       0.266  -3.439  -0.716  0.00  0.00    -0.310 N 
ATOM     24  C   UNL     1       0.767  -2.481  -1.520  0.00  0.00    +0.219 C 
ATOM     25  O   UNL     1       0.665  -1.313  -1.208  0.00  0.00    -0.275 OA
ATOM     26  H   UNL     1       0.407  -4.375  -0.931  0.00  0.00    +0.149 HD
BRANCH  23  27
ATOM     27  C   UNL     1      -0.493  -3.069   0.481  0.00  0.00    +0.087 C 
BRANCH  27  28
ATOM     28  C   UNL     1       0.155  -3.682   1.696  0.00  0.00    -0.029 A 
ATOM     29  C   UNL     1       0.663  -4.966   1.635  0.00  0.00    +0.005 A 
ATOM     30  C   UNL     1       1.258  -5.528   2.749  0.00  0.00    +0.000 A 
ATOM     31  C   UNL     1       1.345  -4.805   3.924  0.00  0.00    +0.000 A 
ATOM     32  C   UNL     1       0.838  -3.521   3.985  0.00  0.00    +0.000 A 
ATOM     33  C   UNL     1       0.247  -2.957   2.870  0.00  0.00    +0.005 A 
ENDBRANCH  27  28
BRANCH  27  34
ATOM     34  C   UNL     1      -1.928  -3.583   0.355  0.00  0.00    -0.052 C 
BRANCH  34  36
ATOM     35  C   UNL     1      -3.826  -3.732  -1.105  0.00  0.00    -0.097 C 
ATOM     36  N   UNL     1      -2.507  -3.114  -0.911  0.00  0.00    +0.377 N 
ATOM     37  C   UNL     1      -2.652  -1.653  -0.871  0.00  0.00    -0.097 C 
ATOM     38  H   UNL     1      -1.899  -3.371  -1.674  0.00  0.00    -0.083 HD
ENDBRANCH  34  36
ENDBRANCH  27  34
ENDBRANCH  23  27
ENDBRANCH   1  24
TORSDOF 6
