REMARK  Name = ZINC13098616
REMARK  7 active torsions:
REMARK  status: ('A' for Active; 'I' for Inactive)
REMARK    1  A    between atoms: C_1  and  C_2
REMARK    2  A    between atoms: C_6  and  C_7
REMARK    3  A    between atoms: N_8  and  N_9
REMARK    4  A    between atoms: C_10  and  C_18
REMARK    5  A    between atoms: N_14  and  C_15
REMARK    6  A    between atoms: C_21  and  O_27
REMARK    7  A    between atoms: C_22  and  C_24
REMARK                            x       y       z     vdW  Elec       q    Type
REMARK                         _______ _______ _______ _____ _____    ______ ____
ROOT
ATOM      1  N   UNL     1       0.617   3.215  -0.112  0.00  0.00    -0.208 N 
ATOM      2  C   UNL     1       0.978   1.899  -0.217  0.00  0.00    +0.082 A 
ATOM      3  C   UNL     1       0.034   0.939  -0.139  0.00  0.00    +0.077 A 
ATOM      4  S   UNL     1      -1.457   1.894   0.088  0.00  0.00    -0.056 S 
ATOM      5  C   UNL     1      -0.717   3.519   0.073  0.00  0.00    +0.190 A 
ATOM      6  N   UNL     1      -1.289   4.690   0.199  0.00  0.00    -0.256 NA
ENDROOT
BRANCH   2   7
ATOM      7  C   UNL     1       2.397   1.531  -0.415  0.00  0.00    +0.002 A 
ATOM      8  C   UNL     1       3.253   2.394  -1.106  0.00  0.00    +0.013 A 
ATOM      9  C   UNL     1       4.577   2.060  -1.289  0.00  0.00    +0.047 A 
ATOM     10  C   UNL     1       5.069   0.858  -0.798  0.00  0.00    +0.129 A 
ATOM     11  C   UNL     1       4.218  -0.017  -0.108  0.00  0.00    +0.078 A 
ATOM     12  C   UNL     1       2.879   0.324   0.081  0.00  0.00    +0.026 A 
BRANCH  11  13
ATOM     13  C   UNL     1       4.738  -1.296   0.415  0.00  0.00    +0.245 C 
ATOM     14  O   UNL     1       5.905  -1.591   0.248  0.00  0.00    -0.270 OA
ATOM     15  N   UNL     1       3.918  -2.136   1.077  0.00  0.00    -0.325 N 
ATOM     16  H   UNL     1       2.986  -1.900   1.210  0.00  0.00    +0.145 HD
ATOM     17  H   UNL     1       4.259  -2.976   1.420  0.00  0.00    +0.145 HD
ENDBRANCH  11  13
BRANCH  10  18
ATOM     18  O   UNL     1       6.372   0.531  -0.985  0.00  0.00    -0.506 OA
ATOM     19  H   UNL     1       6.541   0.040  -1.801  0.00  0.00    +0.292 HD
ENDBRANCH  10  18
ENDBRANCH   2   7
BRANCH   6  20
ATOM     20  C   UNL     1      -2.739   4.781   0.389  0.00  0.00    +0.108 C 
ATOM     21  C   UNL     1      -3.375   6.171   0.325  0.00  0.00    +0.029 C 
ATOM     22  C   UNL     1      -3.243   5.450   1.669  0.00  0.00    +0.029 C 
ENDBRANCH   6  20
BRANCH   1  24
ATOM     23  C   UNL     1       1.352   5.386   0.363  0.00  0.00    +0.148 C 
ATOM     24  N   UNL     1       1.579   4.231  -0.191  0.00  0.00    -0.171 NA
BRANCH  23  30
ATOM     25  C   UNL     1       1.093   8.231   1.528  0.00  0.00    +0.045 C 
ATOM     26  C   UNL     1       2.247   7.780   0.671  0.00  0.00    -0.035 A 
ATOM     27  C   UNL     1       3.274   8.641   0.362  0.00  0.00    +0.011 A 
ATOM     28  C   UNL     1       4.296   8.204  -0.419  0.00  0.00    +0.046 A 
ATOM     29  S   UNL     1       3.831   6.512  -0.744  0.00  0.00    -0.095 S 
ATOM     30  C   UNL     1       2.303   6.487   0.179  0.00  0.00    +0.035 A 
ENDBRANCH  23  30
ENDBRANCH   1  24
TORSDOF 6
