REMARK  Name = ZINC03672470
REMARK  9 active torsions:
REMARK  status: ('A' for Active; 'I' for Inactive)
REMARK    1  A    between atoms: C_1  and  C_2
REMARK    2  A    between atoms: C_2  and  C_27
REMARK    3  A    between atoms: C_6  and  O_25
REMARK    4  A    between atoms: C_7  and  O_23
REMARK    5  A    between atoms: N_11  and  N_12
REMARK    6  A    between atoms: C_15  and  C_20
REMARK    7  A    between atoms: C_15  and  C_21
REMARK    8  A    between atoms: O_23  and  C_24
REMARK    9  A    between atoms: O_25  and  C_26
REMARK                            x       y       z     vdW  Elec       q    Type
REMARK                         _______ _______ _______ _____ _____    ______ ____
ROOT
ATOM      1  C   UNL     1      -0.019   1.526   0.010  0.00  0.00    +0.031 C 
ATOM      2  C   UNL     1       0.002  -0.004   0.002  0.00  0.00    +0.032 C 
ATOM      3  C   UNL     1      -1.430  -0.535   0.027  0.00  0.00    +0.061 C 
ATOM      4  C   UNL     1      -2.073  -0.293   1.366  0.00  0.00    -0.031 A 
ATOM      5  C   UNL     1      -3.452  -0.253   1.456  0.00  0.00    +0.053 A 
ATOM      6  C   UNL     1      -4.068  -0.039   2.679  0.00  0.00    +0.162 A 
ATOM      7  C   UNL     1      -3.304   0.138   3.831  0.00  0.00    +0.162 A 
ATOM      8  C   UNL     1      -1.925   0.101   3.752  0.00  0.00    +0.061 A 
ATOM      9  C   UNL     1      -1.306  -0.111   2.518  0.00  0.00    +0.021 A 
ATOM     10  C   UNL     1       0.171  -0.131   2.427  0.00  0.00    +0.121 C 
ATOM     11  N   UNL     1       0.932   0.178   3.455  0.00  0.00    -0.264 N 
ATOM     12  N   UNL     1       0.714  -0.494   1.195  0.00  0.00    -0.324 N 
ATOM     13  C   UNL     1       0.713  -0.500  -1.259  0.00  0.00    +0.031 C 
ATOM     14  H   UNL     1       1.514  -1.038   1.127  0.00  0.00    +0.148 HD
ATOM     15  H   UNL     1       0.527   0.427   4.301  0.00  0.00    +0.190 HD
ENDROOT
BRANCH  11  16
ATOM     16  N   UNL     1       2.216   0.149   3.338  0.00  0.00    -0.177 NA
ATOM     17  C   UNL     1       2.974   0.457   4.362  0.00  0.00    +0.065 C 
ATOM     18  C   UNL     1       2.340   0.837   5.676  0.00  0.00    +0.064 C 
ATOM     19  C   UNL     1       3.291   0.458   6.816  0.00  0.00    -0.022 C 
ATOM     20  C   UNL     1       4.638   1.148   6.587  0.00  0.00    +0.085 C 
ATOM     21  C   UNL     1       5.189   0.745   5.246  0.00  0.00    +0.158 C 
ATOM     22  C   UNL     1       4.379   0.424   4.229  0.00  0.00    +0.071 C 
ATOM     23  O   UNL     1       6.529   0.700   5.066  0.00  0.00    -0.293 OA
ATOM     24  C   UNL     1       3.488  -1.059   6.836  0.00  0.00    +0.011 C 
ATOM     25  C   UNL     1       2.699   0.918   8.150  0.00  0.00    +0.011 C 
ENDBRANCH  11  16
BRANCH   7  26
ATOM     26  O   UNL     1      -3.913   0.344   5.029  0.00  0.00    -0.491 OA
ATOM     27  C   UNL     1      -3.066   0.517   6.167  0.00  0.00    +0.277 C 
ENDBRANCH   7  26
BRANCH   6  28
ATOM     28  O   UNL     1      -5.424   0.001   2.754  0.00  0.00    -0.491 OA
ATOM     29  C   UNL     1      -6.148  -0.187   1.536  0.00  0.00    +0.277 C 
ENDBRANCH   6  28
TORSDOF 3
