REMARK  Name = ZINC58404672
REMARK  7 active torsions:
REMARK  status: ('A' for Active; 'I' for Inactive)
REMARK    1  A    between atoms: C_1  and  C_2
REMARK    2  A    between atoms: C_3  and  C_21
REMARK    3  A    between atoms: C_5  and  C_20
REMARK    4  A    between atoms: C_6  and  C_7
REMARK    5  A    between atoms: C_7  and  O_9
REMARK    6  A    between atoms: O_9  and  C_10
REMARK    7  A    between atoms: C_10  and  C_11
REMARK                            x       y       z     vdW  Elec       q    Type
REMARK                         _______ _______ _______ _____ _____    ______ ____
ROOT
ATOM      1  O   UNL     1       1.203  -0.307   3.229  0.00  0.00    -0.455 OA
ENDROOT
BRANCH   1   2
ATOM      2  C   UNL     1       0.033  -0.503   2.590  0.00  0.00    +0.343 C 
ATOM      3  O   UNL     1      -1.017  -0.356   3.185  0.00  0.00    -0.245 OA
BRANCH   2   9
ATOM      4  C   UNL     1      -0.018   1.503   0.010  0.00  0.00    +0.048 C 
ATOM      5  C   UNL     1       0.002  -0.004   0.002  0.00  0.00    +0.004 A 
ATOM      6  C   UNL     1       0.009  -0.806  -1.073  0.00  0.00    +0.106 A 
ATOM      7  O   UNL     1       0.029  -2.086  -0.668  0.00  0.00    -0.464 OA
ATOM      8  C   UNL     1       0.035  -2.164   0.665  0.00  0.00    +0.116 A 
ATOM      9  C   UNL     1       0.025  -0.896   1.171  0.00  0.00    +0.103 A 
ATOM     10  C   UNL     1       0.056  -3.435   1.474  0.00  0.00    +0.087 C 
ATOM     11  C   UNL     1      -0.004  -0.344  -2.508  0.00  0.00    +0.086 C 
ENDBRANCH   2   9
ENDBRANCH   1   2
BRANCH   1  12
ATOM     12  C   UNL     1       1.135   0.072   4.605  0.00  0.00    +0.289 C 
BRANCH  12  13
ATOM     13  C   UNL     1       2.530   0.246   5.148  0.00  0.00    +0.100 A 
ATOM     14  C   UNL     1       3.284  -0.711   5.717  0.00  0.00    +0.155 A 
ATOM     15  N   UNL     1       4.460  -0.168   6.070  0.00  0.00    -0.209 NA
ATOM     16  C   UNL     1       4.461   1.091   5.739  0.00  0.00    +0.179 A 
ATOM     17  N   UNL     1       3.274   1.424   5.144  0.00  0.00    -0.293 N 
ATOM     18  C   UNL     1       3.127   2.731   4.731  0.00  0.00    +0.101 A 
ATOM     19  C   UNL     1       4.108   3.616   4.907  0.00  0.00    +0.067 A 
ATOM     20  S   UNL     1       5.357   2.626   5.712  0.00  0.00    -0.058 S 
ATOM     21 CL   UNL     1       2.816  -2.365   5.956  0.00  0.00    -0.060 Cl
ENDBRANCH  12  13
ENDBRANCH   1  12
TORSDOF 4
