REMARK  Name = ZINC33937230
REMARK  13 active torsions:
REMARK  status: ('A' for Active; 'I' for Inactive)
REMARK    1  A    between atoms: C_1  and  C_2
REMARK    2  A    between atoms: C_2  and  C_3
REMARK    3  A    between atoms: C_2  and  C_4
REMARK    4  A    between atoms: C_4  and  C_6
REMARK    5  A    between atoms: C_4  and  N_18
REMARK    6  A    between atoms: N_10  and  C_11
REMARK    7  A    between atoms: C_11  and  C_12
REMARK    8  A    between atoms: N_18  and  C_19
REMARK    9  A    between atoms: N_18  and  C_25
REMARK   10  A    between atoms: C_19  and  C_20
REMARK   11  A    between atoms: C_25  and  C_26
REMARK   12  A    between atoms: C_30  and  O_38
REMARK   13  A    between atoms: O_38  and  C_39
REMARK                            x       y       z     vdW  Elec       q    Type
REMARK                         _______ _______ _______ _____ _____    ______ ____
ROOT
ATOM      1  N   UNL     1      -1.193  -1.939  -0.607  0.00  0.00    +0.394 N 
ATOM      2  H   UNL     1      -0.986  -2.241  -1.548  0.00  0.00    -0.080 HD
ENDROOT
BRANCH   1   3
ATOM      3  C   UNL     1      -0.493  -0.677  -0.333  0.00  0.00    +0.006 C 
BRANCH   3   4
ATOM      4  C   UNL     1      -0.807   0.318  -1.420  0.00  0.00    +0.138 A 
ATOM      5  N   UNL     1      -0.556   0.185  -2.700  0.00  0.00    -0.115 NA
ATOM      6  N   UNL     1      -0.973   1.246  -3.300  0.00  0.00    -0.023 NA
ATOM      7  N   UNL     1      -1.485   2.052  -2.436  0.00  0.00    -0.044 NA
ATOM      8  N   UNL     1      -1.407   1.514  -1.266  0.00  0.00    -0.228 N 
BRANCH   8   9
ATOM      9  C   UNL     1      -1.877   2.096  -0.007  0.00  0.00    +0.178 C 
BRANCH   9  10
ATOM     10  C   UNL     1      -0.847   3.104   0.505  0.00  0.00    +0.140 C 
ATOM     11  C   UNL     1      -1.347   3.764   1.815  0.00  0.00    +0.035 C 
ATOM     12  C   UNL     1      -0.000   4.187   2.464  0.00  0.00    +0.031 C 
ATOM     13  C   UNL     1       0.948   3.052   2.020  0.00  0.00    +0.160 C 
ATOM     14  O   UNL     1       0.372   2.434   0.861  0.00  0.00    -0.375 OA
ENDBRANCH   9  10
ENDBRANCH   8   9
ENDBRANCH   3   4
BRANCH   3  16
ATOM     15  C   UNL     1       1.474  -1.493  -1.639  0.00  0.00    +0.006 C 
ATOM     16  C   UNL     1       1.015  -0.929  -0.292  0.00  0.00    -0.024 C 
ATOM     17  C   UNL     1       1.745   0.387  -0.016  0.00  0.00    +0.006 C 
ENDBRANCH   3  16
ENDBRANCH   1   3
BRANCH   1  18
ATOM     18  C   UNL     1      -2.641  -1.737  -0.466  0.00  0.00    -0.002 C 
BRANCH  18  19
ATOM     19  C   UNL     1      -3.164  -0.989  -1.665  0.00  0.00    +0.089 A 
ATOM     20  C   UNL     1      -3.457  -1.528  -2.862  0.00  0.00    +0.042 A 
ATOM     21  C   UNL     1      -3.912  -0.473  -3.686  0.00  0.00    +0.041 A 
ATOM     22  C   UNL     1      -3.869   0.648  -2.943  0.00  0.00    +0.195 A 
ATOM     23  O   UNL     1      -3.421   0.328  -1.718  0.00  0.00    -0.470 OA
ENDBRANCH  18  19
ENDBRANCH   1  18
BRANCH   1  24
ATOM     24  C   UNL     1      -0.746  -2.964   0.346  0.00  0.00    -0.036 C 
BRANCH  24  25
ATOM     25  C   UNL     1      -1.412  -4.276   0.021  0.00  0.00    +0.001 A 
ATOM     26  C   UNL     1      -0.771  -5.186  -0.754  0.00  0.00    +0.017 A 
ATOM     27  C   UNL     1      -1.444  -6.451  -1.051  0.00  0.00    +0.002 A 
ATOM     28  C   UNL     1      -0.831  -7.427  -1.845  0.00  0.00    +0.055 A 
ATOM     29  C   UNL     1      -1.494  -8.609  -2.105  0.00  0.00    +0.121 A 
ATOM     30  C   UNL     1      -2.766  -8.831  -1.582  0.00  0.00    +0.047 A 
ATOM     31  C   UNL     1      -3.380  -7.879  -0.800  0.00  0.00    +0.030 A 
ATOM     32  C   UNL     1      -2.729  -6.680  -0.525  0.00  0.00    +0.049 A 
ATOM     33  N   UNL     1      -3.328  -5.713   0.257  0.00  0.00    -0.322 N 
ATOM     34  H   UNL     1      -4.214  -5.872   0.619  0.00  0.00    +0.169 HD
ATOM     35  C   UNL     1      -2.699  -4.557   0.529  0.00  0.00    +0.251 A 
ATOM     36  O   UNL     1      -3.255  -3.728   1.227  0.00  0.00    -0.268 OA
BRANCH  29  37
ATOM     37  O   UNL     1      -0.903  -9.560  -2.876  0.00  0.00    -0.495 OA
ATOM     38  C   UNL     1      -1.644 -10.761  -3.106  0.00  0.00    +0.277 C 
ENDBRANCH  29  37
ENDBRANCH  24  25
ENDBRANCH   1  24
TORSDOF 10
