REMARK  Name = ZINC12983995
REMARK  6 active torsions:
REMARK  status: ('A' for Active; 'I' for Inactive)
REMARK    1  A    between atoms: C_1  and  C_2
REMARK    2  A    between atoms: C_7  and  C_26
REMARK    3  A    between atoms: N_12  and  C_16
REMARK    4  A    between atoms: C_16  and  N_17
REMARK    5  A    between atoms: N_17  and  C_18
REMARK    6  A    between atoms: N_17  and  C_19
REMARK                            x       y       z     vdW  Elec       q    Type
REMARK                         _______ _______ _______ _____ _____    ______ ____
ROOT
ATOM      1  C   UNL     1      -0.019   1.526   0.010  0.00  0.00    +0.010 C 
ATOM      2  C   UNL     1       0.002  -0.004   0.002  0.00  0.00    +0.019 C 
ATOM      3  C   UNL     1       0.718  -0.498  -1.258  0.00  0.00    +0.006 C 
ATOM      4  C   UNL     1       2.160   0.015  -1.257  0.00  0.00    +0.001 C 
ATOM      5  C   UNL     1       2.892  -0.516  -0.024  0.00  0.00    +0.006 C 
ATOM      6  C   UNL     1       2.184  -0.023   1.241  0.00  0.00    +0.019 C 
ATOM      7  C   UNL     1       0.739  -0.509   1.238  0.00  0.00    +0.118 C 
ATOM      8  C   UNL     1       0.029  -0.062   2.495  0.00  0.00    +0.248 C 
ATOM      9  O   UNL     1      -0.169   1.076   2.861  0.00  0.00    -0.273 OA
ATOM     10  N   UNL     1      -0.337  -1.198   3.124  0.00  0.00    -0.211 N 
ATOM     11  C   UNL     1       0.041  -2.285   2.441  0.00  0.00    +0.310 C 
ATOM     12  O   UNL     1      -0.176  -3.423   2.807  0.00  0.00    -0.252 OA
ATOM     13  N   UNL     1       0.690  -1.975   1.302  0.00  0.00    -0.284 N 
ATOM     14  C   UNL     1       2.904  -0.570   2.475  0.00  0.00    +0.010 C 
ATOM     15  H   UNL     1       1.053  -2.598   0.653  0.00  0.00    +0.151 HD
ENDROOT
BRANCH  10  16
ATOM     16  C   UNL     1      -1.060  -1.237   4.398  0.00  0.00    +0.205 C 
BRANCH  16  17
ATOM     17  N   UNL     1      -2.506  -1.239   4.141  0.00  0.00    -0.287 NA
ATOM     18  C   UNL     1      -2.979  -2.588   3.802  0.00  0.00    +0.106 C 
BRANCH  17  19
ATOM     19  C   UNL     1      -3.246  -0.695   5.287  0.00  0.00    +0.058 C 
ATOM     20  C   UNL     1      -2.998  -1.595   6.515  0.00  0.00    +0.019 C 
ATOM     21  C   UNL     1      -3.303  -0.803   7.757  0.00  0.00    +0.002 C 
ATOM     22  C   UNL     1      -4.747  -1.016   8.252  0.00  0.00    +0.000 C 
ATOM     23  C   UNL     1      -5.774  -1.038   7.104  0.00  0.00    +0.000 C 
ATOM     24  C   UNL     1      -5.502   0.019   6.067  0.00  0.00    +0.002 C 
ATOM     25  C   UNL     1      -4.657  -0.607   4.939  0.00  0.00    +0.019 C 
ENDBRANCH  17  19
ENDBRANCH  16  17
ENDBRANCH  10  16
TORSDOF 3
