REMARK  Name = ZINC40124943
REMARK  7 active torsions:
REMARK  status: ('A' for Active; 'I' for Inactive)
REMARK    1  A    between atoms: C_1  and  O_2
REMARK    2  A    between atoms: O_2  and  C_3
REMARK    3  A    between atoms: C_10  and  C_12
REMARK    4  A    between atoms: C_12  and  C_14
REMARK    5  A    between atoms: C_19  and  C_21
REMARK    6  A    between atoms: C_26  and  O_27
REMARK    7  A    between atoms: O_27  and  C_28
REMARK                            x       y       z     vdW  Elec       q    Type
REMARK                         _______ _______ _______ _____ _____    ______ ____
ROOT
ATOM      1  C   UNL     1      -0.443  -5.250   1.273  0.00  0.00    +0.079 C 
ATOM      2  C   UNL     1      -0.718  -6.288   2.098  0.00  0.00    +0.249 C 
ATOM      3  C   UNL     1      -1.569  -5.814   3.208  0.00  0.00    +0.285 C 
ATOM      4  O   UNL     1      -1.985  -6.510   4.113  0.00  0.00    -0.267 OA
ATOM      5  N   UNL     1      -1.817  -4.499   3.068  0.00  0.00    -0.297 N 
ATOM      6  C   UNL     1      -1.132  -4.038   1.855  0.00  0.00    +0.145 C 
ATOM      7  O   UNL     1      -0.281  -7.558   1.931  0.00  0.00    -0.282 OA
ATOM      8  H   UNL     1      -2.351  -3.952   3.665  0.00  0.00    +0.150 HD
ENDROOT
BRANCH   6   9
ATOM      9  C   UNL     1      -0.115  -2.981   2.201  0.00  0.00    +0.020 A 
ATOM     10  C   UNL     1       0.403  -2.912   3.480  0.00  0.00    +0.024 A 
ATOM     11  C   UNL     1       1.336  -1.943   3.799  0.00  0.00    +0.018 A 
ATOM     12  C   UNL     1       1.754  -1.039   2.837  0.00  0.00    +0.019 A 
ATOM     13  C   UNL     1       1.239  -1.104   1.557  0.00  0.00    +0.047 A 
ATOM     14  C   UNL     1       0.306  -2.080   1.234  0.00  0.00    +0.125 A 
ATOM     15 BR   UNL     1       2.043  -1.851   5.551  0.00  0.00    -0.050 Br
BRANCH  14  16
ATOM     16  O   UNL     1      -0.198  -2.149  -0.026  0.00  0.00    -0.495 OA
ATOM     17  C   UNL     1       0.346  -1.247  -0.992  0.00  0.00    +0.277 C 
ENDBRANCH  14  16
ENDBRANCH   6   9
BRANCH   1  18
ATOM     18  C   UNL     1       0.370  -5.293   0.054  0.00  0.00    +0.230 C 
ATOM     19  O   UNL     1       1.562  -5.533   0.125  0.00  0.00    -0.283 OA
BRANCH  18  27
ATOM     20  C   UNL     1      -2.965  -4.245  -3.473  0.00  0.00    +0.163 A 
ATOM     21  C   UNL     1      -2.917  -4.143  -4.851  0.00  0.00    +0.049 A 
ATOM     22  C   UNL     1      -1.732  -4.366  -5.537  0.00  0.00    +0.004 A 
ATOM     23  C   UNL     1      -0.590  -4.690  -4.861  0.00  0.00    +0.012 A 
ATOM     24  C   UNL     1      -0.614  -4.798  -3.467  0.00  0.00    +0.025 A 
ATOM     25  C   UNL     1      -1.810  -4.569  -2.762  0.00  0.00    +0.177 A 
ATOM     26  O   UNL     1      -1.549  -4.731  -1.450  0.00  0.00    -0.448 OA
ATOM     27  C   UNL     1      -0.252  -5.047  -1.254  0.00  0.00    +0.176 A 
ATOM     28  C   UNL     1       0.389  -5.117  -2.453  0.00  0.00    +0.062 A 
BRANCH  20  30
ATOM     29  C   UNL     1      -5.245  -3.581  -3.592  0.00  0.00    +0.277 C 
ATOM     30  O   UNL     1      -4.133  -4.025  -2.813  0.00  0.00    -0.491 OA
ENDBRANCH  20  30
ENDBRANCH  18  27
ENDBRANCH   1  18
TORSDOF 5
