REMARK  Name = ZINC06768575
REMARK  4 active torsions:
REMARK  status: ('A' for Active; 'I' for Inactive)
REMARK    1  A    between atoms: C_6  and  C_7
REMARK    2  A    between atoms: C_8  and  N_18
REMARK    3  A    between atoms: C_13  and  C_16
REMARK    4  A    between atoms: N_18  and  C_19
REMARK                            x       y       z     vdW  Elec       q    Type
REMARK                         _______ _______ _______ _____ _____    ______ ____
ROOT
ATOM      1  C   UNL     1      -1.266  -0.791   0.204  0.00  0.00    +0.088 A 
ATOM      2  C   UNL     1      -1.391  -2.106  -0.085  0.00  0.00    +0.147 A 
ATOM      3  N   UNL     1      -2.735  -2.391  -0.235  0.00  0.00    -0.199 N 
ATOM      4  C   UNL     1      -3.436  -1.246  -0.038  0.00  0.00    +0.154 A 
ATOM      5  N   UNL     1      -2.547  -0.241   0.241  0.00  0.00    -0.336 N 
ATOM      6  H   UNL     1      -2.769   0.684   0.429  0.00  0.00    +0.167 HD
ATOM      7  C   UNL     1      -4.789  -1.559  -0.195  0.00  0.00    +0.114 A 
ATOM      8  C   UNL     1      -4.859  -2.937  -0.494  0.00  0.00    +0.156 A 
ATOM      9  N   UNL     1      -3.646  -3.417  -0.515  0.00  0.00    -0.170 NA
ENDROOT
BRANCH   1  15
ATOM     10  C   UNL     1       0.968  -0.610   1.290  0.00  0.00    +0.011 A 
ATOM     11  C   UNL     1       2.148   0.070   1.508  0.00  0.00    +0.016 A 
ATOM     12  C   UNL     1       2.373   1.288   0.890  0.00  0.00    +0.018 A 
ATOM     13  C   UNL     1       1.416   1.832   0.050  0.00  0.00    +0.016 A 
ATOM     14  C   UNL     1       0.233   1.162  -0.178  0.00  0.00    +0.011 A 
ATOM     15  C   UNL     1      -0.001  -0.068   0.443  0.00  0.00    +0.002 A 
ATOM     16 BR   UNL     1       3.993   2.215   1.197  0.00  0.00    -0.050 Br
ENDBRANCH   1  15
BRANCH   7  17
ATOM     17  C   UNL     1      -5.893  -0.655  -0.076  0.00  0.00    +0.104 C 
ATOM     18  N   UNL     1      -6.769   0.062   0.018  0.00  0.00    -0.191 NA
ENDBRANCH   7  17
BRANCH   2  19
ATOM     19  N   UNL     1      -0.344  -3.018  -0.210  0.00  0.00    -0.324 N 
ATOM     20  H   UNL     1       0.575  -2.711  -0.162  0.00  0.00    +0.148 HD
BRANCH  19  21
ATOM     21  C   UNL     1      -0.632  -4.440  -0.414  0.00  0.00    +0.072 C 
ATOM     22  C   UNL     1      -0.796  -5.147   0.947  0.00  0.00    +0.022 C 
ATOM     23  C   UNL     1      -0.152  -6.539   0.732  0.00  0.00    +0.002 C 
ATOM     24  C   UNL     1       1.067  -6.217  -0.168  0.00  0.00    +0.002 C 
ATOM     25  C   UNL     1       0.553  -5.121  -1.123  0.00  0.00    +0.022 C 
ENDBRANCH  19  21
ENDBRANCH   2  19
TORSDOF 4
