REMARK  Name = ZINC44861207
REMARK  7 active torsions:
REMARK  status: ('A' for Active; 'I' for Inactive)
REMARK    1  A    between atoms: C_1  and  C_2
REMARK    2  A    between atoms: C_2  and  C_3
REMARK    3  A    between atoms: C_3  and  C_4
REMARK    4  A    between atoms: C_4  and  C_6
REMARK    5  A    between atoms: C_4  and  C_10
REMARK    6  A    between atoms: N_7  and  O_8
REMARK    7  A    between atoms: N_12  and  C_13
REMARK                            x       y       z     vdW  Elec       q    Type
REMARK                         _______ _______ _______ _____ _____    ______ ____
ROOT
ATOM      1  C   UNL     1       2.450  -2.954  -1.530  0.00  0.00    +0.228 C 
ATOM      2  O   UNL     1       2.690  -4.143  -1.551  0.00  0.00    -0.275 OA
ATOM      3  N   UNL     1       2.848  -2.168  -2.550  0.00  0.00    -0.283 N 
ATOM      4  H   UNL     1       2.594  -1.232  -2.569  0.00  0.00    +0.155 HD
ENDROOT
BRANCH   3   5
ATOM      5  C   UNL     1       3.628  -2.703  -3.583  0.00  0.00    +0.070 A 
ATOM      6  C   UNL     1       3.019  -3.230  -4.715  0.00  0.00    +0.065 A 
ATOM      7  C   UNL     1       3.792  -3.757  -5.732  0.00  0.00    +0.037 A 
ATOM      8  C   UNL     1       5.171  -3.760  -5.625  0.00  0.00    +0.021 A 
ATOM      9  C   UNL     1       5.781  -3.236  -4.498  0.00  0.00    +0.037 A 
ATOM     10  C   UNL     1       5.014  -2.703  -3.480  0.00  0.00    +0.065 A 
ATOM     11 CL   UNL     1       5.780  -2.039  -2.071  0.00  0.00    -0.082 Cl
ATOM     12 BR   UNL     1       6.225  -4.482  -7.019  0.00  0.00    -0.050 Br
ATOM     13 CL   UNL     1       1.288  -3.227  -4.851  0.00  0.00    -0.082 Cl
ENDBRANCH   3   5
BRANCH   1  14
ATOM     14  C   UNL     1       1.707  -2.356  -0.363  0.00  0.00    +0.141 C 
BRANCH  14  15
ATOM     15  C   UNL     1       1.379  -3.439   0.632  0.00  0.00    +0.144 C 
ATOM     16  N   UNL     1       0.228  -4.024   0.595  0.00  0.00    -0.076 NA
ATOM     17  N   UNL     1       2.308  -3.806   1.581  0.00  0.00    -0.343 N 
ATOM     18  H   UNL     1       3.172  -3.368   1.609  0.00  0.00    +0.144 HD
ATOM     19  H   UNL     1       2.097  -4.503   2.221  0.00  0.00    +0.144 HD
BRANCH  16  20
ATOM     20  O   UNL     1      -0.080  -5.041   1.530  0.00  0.00    -0.408 OA
ATOM     21  H   UNL     1      -0.964  -5.419   1.424  0.00  0.00    +0.328 HD
ENDBRANCH  16  20
ENDBRANCH  14  15
BRANCH  14  22
ATOM     22  C   UNL     1       0.412  -1.711  -0.860  0.00  0.00    +0.020 C 
BRANCH  22  24
ATOM     23  C   UNL     1      -1.576  -0.351  -0.194  0.00  0.00    +0.004 C 
ATOM     24  C   UNL     1      -0.281  -0.997   0.302  0.00  0.00    -0.002 C 
ENDBRANCH  22  24
ENDBRANCH  14  22
ENDBRANCH   1  14
TORSDOF 6
