REMARK  Name = ZINC08974931
REMARK  5 active torsions:
REMARK  status: ('A' for Active; 'I' for Inactive)
REMARK    1  A    between atoms: C_1  and  N_57
REMARK    2  A    between atoms: C_16  and  O_31
REMARK    3  A    between atoms: N_20  and  C_23
REMARK    4  A    between atoms: C_23  and  C_24
REMARK    5  A    between atoms: C_24  and  C_25
REMARK                            x       y       z     vdW  Elec       q    Type
REMARK                         _______ _______ _______ _____ _____    ______ ____
ROOT
ATOM      1  C   UNL     1      -1.690  -0.968  -4.889  0.00  0.00    -0.096 C 
ATOM      2  C   UNL     1      -2.351   1.036  -3.700  0.00  0.00    -0.060 C 
ATOM      3  C   UNL     1      -3.013   1.554  -2.420  0.00  0.00    +0.087 C 
ATOM      4  N   UNL     1      -2.226   1.116  -1.260  0.00  0.00    -0.329 N 
ATOM      5  C   UNL     1      -2.689   1.685  -0.077  0.00  0.00    +0.033 A 
ATOM      6  C   UNL     1      -3.226   2.973  -0.140  0.00  0.00    +0.023 A 
ATOM      7  C   UNL     1      -3.691   3.591   1.000  0.00  0.00    +0.002 A 
ATOM      8  C   UNL     1      -3.629   2.935   2.216  0.00  0.00    +0.000 A 
ATOM      9  C   UNL     1      -3.103   1.660   2.284  0.00  0.00    +0.005 A 
ATOM     10  C   UNL     1      -2.636   1.030   1.141  0.00  0.00    -0.025 A 
ATOM     11  C   UNL     1      -2.094  -0.371   1.273  0.00  0.00    +0.064 C 
ATOM     12  C   UNL     1      -1.304  -0.745   0.017  0.00  0.00    +0.141 C 
ATOM     13  C   UNL     1      -2.138  -0.344  -1.204  0.00  0.00    +0.081 C 
ATOM     14  C   UNL     1      -1.470  -0.863  -2.479  0.00  0.00    -0.055 C 
ATOM     15  C   UNL     1       0.002  -0.004   0.002  0.00  0.00    +0.198 C 
ATOM     16  N   UNL     1       1.148  -0.614  -0.012  0.00  0.00    -0.131 NA
ATOM     17  C   UNL     1       1.254  -1.951  -0.022  0.00  0.00    +0.335 C 
ATOM     18  O   UNL     1       2.360  -2.458  -0.030  0.00  0.00    -0.250 OA
ATOM     19  N   UNL     1       0.170  -2.743  -0.022  0.00  0.00    -0.223 N 
ATOM     20  C   UNL     1      -1.070  -2.230  -0.008  0.00  0.00    +0.240 C 
ATOM     21  O   UNL     1      -2.022  -2.981  -0.011  0.00  0.00    -0.274 OA
ATOM     22  N   UNL     1      -2.281  -0.440  -3.642  0.00  0.00    +0.380 N 
ATOM     23  H   UNL     1      -3.232  -0.815  -3.539  0.00  0.00    -0.082 HD
ENDROOT
BRANCH  15  24
ATOM     24  O   UNL     1      -0.016   1.338   0.009  0.00  0.00    -0.496 OA
ATOM     25  H   UNL     1       0.839   1.789   0.004  0.00  0.00    +0.293 HD
ENDBRANCH  15  24
BRANCH  19  26
ATOM     26  C   UNL     1       0.345  -4.197  -0.036  0.00  0.00    +0.122 C 
BRANCH  26  27
ATOM     27  C   UNL     1       0.416  -4.717   1.401  0.00  0.00    +0.054 C 
BRANCH  27  28
ATOM     28  C   UNL     1       0.595  -6.213   1.386  0.00  0.00    -0.046 A 
ATOM     29  C   UNL     1      -0.511  -7.042   1.392  0.00  0.00    +0.004 A 
ATOM     30  C   UNL     1      -0.346  -8.415   1.374  0.00  0.00    +0.000 A 
ATOM     31  C   UNL     1       0.925  -8.958   1.360  0.00  0.00    +0.000 A 
ATOM     32  C   UNL     1       2.031  -8.129   1.359  0.00  0.00    +0.000 A 
ATOM     33  C   UNL     1       1.867  -6.756   1.373  0.00  0.00    +0.004 A 
ENDBRANCH  27  28
ENDBRANCH  26  27
ENDBRANCH  19  26
TORSDOF 4
