REMARK  Name = ZINC40103597
REMARK  5 active torsions:
REMARK  status: ('A' for Active; 'I' for Inactive)
REMARK    1  A    between atoms: C_12  and  N_14
REMARK    2  A    between atoms: N_17  and  C_18
REMARK    3  A    between atoms: C_18  and  C_19
REMARK    4  A    between atoms: C_19  and  C_20
REMARK    5  A    between atoms: C_20  and  N_21
REMARK                            x       y       z     vdW  Elec       q    Type
REMARK                         _______ _______ _______ _____ _____    ______ ____
ROOT
ATOM      1  N   UNL     1       6.169  -4.171  -0.083  0.00  0.00    -0.269 N 
ATOM      2  C   UNL     1       7.495  -3.961  -0.198  0.00  0.00    +0.304 C 
ATOM      3  O   UNL     1       7.934  -2.827  -0.196  0.00  0.00    -0.253 OA
ATOM      4  N   UNL     1       8.335  -5.009  -0.315  0.00  0.00    -0.299 N 
ATOM      5  H   UNL     1       5.824  -5.075  -0.018  0.00  0.00    +0.156 HD
ATOM      6  H   UNL     1       7.985  -5.913  -0.317  0.00  0.00    +0.150 HD
ENDROOT
BRANCH   1  18
ATOM      7  C   UNL     1       1.891   2.909   0.721  0.00  0.00    +0.000 A 
ATOM      8  C   UNL     1       1.086   2.021   0.032  0.00  0.00    +0.001 A 
ATOM      9  C   UNL     1       1.539   0.749  -0.252  0.00  0.00    +0.009 A 
ATOM     10  C   UNL     1       2.814   0.355   0.158  0.00  0.00    -0.014 A 
ATOM     11  C   UNL     1       3.617   1.257   0.851  0.00  0.00    -0.035 A 
ATOM     12  C   UNL     1       3.156   2.526   1.130  0.00  0.00    +0.004 A 
ATOM     13  C   UNL     1       4.921   0.562   1.159  0.00  0.00    +0.071 C 
ATOM     14  C   UNL     1       4.800  -0.827   0.580  0.00  0.00    -0.034 A 
ATOM     15  C   UNL     1       3.542  -0.927  -0.009  0.00  0.00    -0.014 A 
ATOM     16  C   UNL     1       3.166  -2.122  -0.626  0.00  0.00    +0.010 A 
ATOM     17  C   UNL     1       4.035  -3.191  -0.649  0.00  0.00    +0.024 A 
ATOM     18  C   UNL     1       5.289  -3.084  -0.059  0.00  0.00    +0.035 A 
ATOM     19  C   UNL     1       5.667  -1.896   0.556  0.00  0.00    +0.028 A 
ENDBRANCH   1  18
BRANCH   4  20
ATOM     20  C   UNL     1       9.777  -4.781  -0.440  0.00  0.00    +0.107 C 
BRANCH  20  21
ATOM     21  C   UNL     1      10.497  -6.126  -0.557  0.00  0.00    +0.038 C 
BRANCH  21  22
ATOM     22  C   UNL     1      12.003  -5.888  -0.687  0.00  0.00    +0.119 C 
BRANCH  22  23
ATOM     23  N   UNL     1      12.693  -7.176  -0.799  0.00  0.00    -0.224 N 
ATOM     24  C   UNL     1      13.148  -7.888   0.254  0.00  0.00    +0.246 C 
ATOM     25  O   UNL     1      13.069  -7.596   1.428  0.00  0.00    -0.273 OA
ATOM     26  C   UNL     1      13.776  -9.122  -0.341  0.00  0.00    +0.113 C 
ATOM     27  C   UNL     1      13.085 -10.393   0.170  0.00  0.00    +0.035 C 
ATOM     28  C   UNL     1      14.235 -11.428   0.275  0.00  0.00    +0.003 C 
ATOM     29  C   UNL     1      15.428 -10.570   0.767  0.00  0.00    +0.003 C 
ATOM     30  C   UNL     1      15.258  -9.225   0.028  0.00  0.00    +0.035 C 
ATOM     31  N   UNL     1      13.595  -8.965  -1.786  0.00  0.00    -0.285 N 
ATOM     32  C   UNL     1      12.945  -7.797  -1.959  0.00  0.00    +0.309 C 
ATOM     33  O   UNL     1      12.627  -7.355  -3.046  0.00  0.00    -0.252 OA
ATOM     34  H   UNL     1      13.882  -9.580  -2.479  0.00  0.00    +0.151 HD
ENDBRANCH  22  23
ENDBRANCH  21  22
ENDBRANCH  20  21
ENDBRANCH   4  20
TORSDOF 5
