REMARK  Name = ZINC08502995
REMARK  4 active torsions:
REMARK  status: ('A' for Active; 'I' for Inactive)
REMARK    1  A    between atoms: C_1  and  C_2
REMARK    2  A    between atoms: C_2  and  C_20
REMARK    3  A    between atoms: N_5  and  C_9
REMARK    4  A    between atoms: C_9  and  C_10
REMARK                            x       y       z     vdW  Elec       q    Type
REMARK                         _______ _______ _______ _____ _____    ______ ____
ROOT
ATOM      1  C   UNL     1      -0.045   1.517  -0.161  0.00  0.00    +0.047 C 
ATOM      2  C   UNL     1      -0.012  -0.007  -0.030  0.00  0.00    +0.136 C 
ATOM      3  C   UNL     1       0.743  -0.625  -1.190  0.00  0.00    +0.251 C 
ATOM      4  O   UNL     1       0.461  -0.556  -2.368  0.00  0.00    -0.272 OA
ATOM      5  N   UNL     1       1.794  -1.266  -0.641  0.00  0.00    -0.215 N 
ATOM      6  C   UNL     1       1.807  -1.141   0.691  0.00  0.00    +0.310 C 
ATOM      7  O   UNL     1       2.657  -1.632   1.407  0.00  0.00    -0.252 OA
ATOM      8  N   UNL     1       0.774  -0.410   1.148  0.00  0.00    -0.281 N 
ATOM      9  H   UNL     1       0.585  -0.190   2.074  0.00  0.00    +0.152 HD
ENDROOT
BRANCH   2  10
ATOM     10  C   UNL     1      -1.411  -0.562   0.051  0.00  0.00    -0.008 A 
ATOM     11  C   UNL     1      -1.804  -1.268   1.146  0.00  0.00    +0.007 A 
ATOM     12  C   UNL     1      -3.094  -1.788   1.240  0.00  0.00    +0.001 A 
ATOM     13  C   UNL     1      -3.997  -1.606   0.238  0.00  0.00    +0.008 A 
ATOM     14  C   UNL     1      -3.628  -0.882  -0.908  0.00  0.00    -0.018 A 
ATOM     15  C   UNL     1      -2.318  -0.347  -1.000  0.00  0.00    -0.012 A 
ATOM     16  C   UNL     1      -1.950   0.382  -2.144  0.00  0.00    +0.009 A 
ATOM     17  C   UNL     1      -2.856   0.569  -3.143  0.00  0.00    +0.001 A 
ATOM     18  C   UNL     1      -4.145   0.049  -3.050  0.00  0.00    +0.001 A 
ATOM     19  C   UNL     1      -4.533  -0.673  -1.963  0.00  0.00    +0.008 A 
ENDBRANCH   2  10
BRANCH   5  20
ATOM     20  C   UNL     1       2.797  -2.010  -1.408  0.00  0.00    +0.213 C 
BRANCH  20  21
ATOM     21  C   UNL     1       3.923  -1.085  -1.791  0.00  0.00    +0.234 C 
ATOM     22  O   UNL     1       3.943   0.053  -1.371  0.00  0.00    -0.274 OA
ATOM     23  N   UNL     1       4.909  -1.522  -2.599  0.00  0.00    -0.300 N 
ATOM     24  C   UNL     1       5.958  -0.600  -3.056  0.00  0.00    +0.108 C 
ATOM     25  C   UNL     1       6.826  -0.205  -1.868  0.00  0.00    +0.019 C 
ATOM     26  C   UNL     1       7.708  -1.399  -1.468  0.00  0.00    +0.002 C 
ATOM     27  C   UNL     1       6.876  -2.403  -0.678  0.00  0.00    +0.000 C 
ATOM     28  C   UNL     1       6.720  -3.719  -1.463  0.00  0.00    +0.002 C 
ATOM     29  C   UNL     1       6.392  -3.412  -2.924  0.00  0.00    +0.019 C 
ATOM     30  C   UNL     1       4.949  -2.911  -3.023  0.00  0.00    +0.108 C 
ENDBRANCH  20  21
ENDBRANCH   5  20
TORSDOF 3
