REMARK  Name = ZINC39675946
REMARK  10 active torsions:
REMARK  status: ('A' for Active; 'I' for Inactive)
REMARK    1  A    between atoms: C_1  and  C_2
REMARK    2  A    between atoms: C_4  and  C_8
REMARK    3  A    between atoms: N_6  and  C_7
REMARK    4  A    between atoms: C_12  and  C_21
REMARK    5  A    between atoms: N_23  and  C_24
REMARK    6  A    between atoms: C_24  and  C_25
REMARK    7  A    between atoms: C_25  and  C_27
REMARK    8  A    between atoms: C_25  and  N_33
REMARK    9  A    between atoms: N_33  and  C_34
REMARK   10  A    between atoms: N_33  and  C_35
REMARK                            x       y       z     vdW  Elec       q    Type
REMARK                         _______ _______ _______ _____ _____    ______ ____
ROOT
ATOM      1  C   UNL     1      -1.508  -3.475  -1.660  0.00  0.00    +0.267 C 
ATOM      2  O   UNL     1      -1.738  -3.483  -2.854  0.00  0.00    -0.268 OA
ATOM      3  N   UNL     1      -1.331  -4.637  -1.001  0.00  0.00    -0.295 N 
ATOM      4  C   UNL     1      -1.052  -4.829   0.442  0.00  0.00    +0.121 C 
ATOM      5  C   UNL     1      -1.885  -6.069   0.839  0.00  0.00    +0.100 C 
ATOM      6  C   UNL     1      -2.089  -6.841  -0.475  0.00  0.00    -0.004 C 
ATOM      7  C   UNL     1      -1.377  -6.012  -1.554  0.00  0.00    +0.115 C 
ATOM      8  C   UNL     1      -1.463  -8.229  -0.375  0.00  0.00    -0.010 C 
ATOM      9  C   UNL     1      -1.730  -8.999  -1.671  0.00  0.00    -0.082 C 
ATOM     10  N   UNL     1      -3.177  -9.108  -1.889  0.00  0.00    +0.379 N 
ATOM     11  C   UNL     1      -3.757  -7.773  -2.077  0.00  0.00    -0.082 C 
ATOM     12  C   UNL     1      -3.576  -6.951  -0.797  0.00  0.00    -0.010 C 
ATOM     13  H   UNL     1      -3.351  -9.667  -2.710  0.00  0.00    -0.086 HD
ATOM     14  H   UNL     1      -3.604  -9.549  -1.088  0.00  0.00    -0.086 HD
ENDROOT
BRANCH   1  18
ATOM     15  C   UNL     1      -1.503   1.462  -0.512  0.00  0.00    +0.065 C 
ATOM     16  C   UNL     1      -1.426  -0.042  -0.448  0.00  0.00    +0.037 A 
ATOM     17  C   UNL     1      -1.587  -0.899  -1.483  0.00  0.00    +0.057 A 
ATOM     18  C   UNL     1      -1.424  -2.193  -0.932  0.00  0.00    +0.147 A 
ATOM     19  N   UNL     1      -1.185  -2.035   0.354  0.00  0.00    -0.167 NA
ATOM     20  N   UNL     1      -1.177  -0.785   0.652  0.00  0.00    -0.271 N 
ATOM     21  C   UNL     1      -0.937  -0.244   1.992  0.00  0.00    +0.172 C 
ENDBRANCH   1  18
BRANCH   5  22
ATOM     22  C   UNL     1      -1.129  -6.912   1.834  0.00  0.00    +0.218 C 
ATOM     23  O   UNL     1       0.083  -6.945   1.805  0.00  0.00    -0.275 OA
ATOM     24  N   UNL     1      -1.801  -7.628   2.757  0.00  0.00    -0.316 N 
ATOM     25  H   UNL     1      -2.770  -7.602   2.781  0.00  0.00    +0.149 HD
BRANCH  24  26
ATOM     26  C   UNL     1      -1.067  -8.448   3.724  0.00  0.00    +0.093 C 
BRANCH  26  27
ATOM     27  C   UNL     1      -2.058  -9.248   4.571  0.00  0.00    -0.021 C 
BRANCH  27  28
ATOM     28  C   UNL     1      -2.804 -10.217   3.690  0.00  0.00    -0.059 A 
ATOM     29  C   UNL     1      -2.214 -11.412   3.322  0.00  0.00    +0.002 A 
ATOM     30  C   UNL     1      -2.898 -12.301   2.514  0.00  0.00    +0.000 A 
ATOM     31  C   UNL     1      -4.172 -11.994   2.073  0.00  0.00    +0.000 A 
ATOM     32  C   UNL     1      -4.762 -10.800   2.441  0.00  0.00    +0.000 A 
ATOM     33  C   UNL     1      -4.080  -9.913   3.253  0.00  0.00    +0.002 A 
ENDBRANCH  27  28
BRANCH  27  34
ATOM     34  N   UNL     1      -1.329  -9.991   5.608  0.00  0.00    +0.382 N 
ATOM     35  C   UNL     1      -0.636  -9.045   6.492  0.00  0.00    -0.096 C 
ATOM     36  C   UNL     1      -2.276 -10.793   6.394  0.00  0.00    -0.096 C 
ATOM     37  H   UNL     1      -0.653 -10.601   5.172  0.00  0.00    -0.082 HD
ENDBRANCH  27  34
ENDBRANCH  26  27
ENDBRANCH  24  26
ENDBRANCH   5  22
TORSDOF 6
