REMARK  Name = ZINC05555209
REMARK  3 active torsions:
REMARK  status: ('A' for Active; 'I' for Inactive)
REMARK    1  A    between atoms: C_10  and  C_23
REMARK    2  A    between atoms: C_13  and  C_16
REMARK    3  A    between atoms: C_19  and  O_22
REMARK                            x       y       z     vdW  Elec       q    Type
REMARK                         _______ _______ _______ _____ _____    ______ ____
ROOT
ATOM      1  C   UNL     1       2.785   4.255  -2.567  0.00  0.00    +0.001 A 
ATOM      2  C   UNL     1       1.635   4.819  -3.088  0.00  0.00    +0.004 A 
ATOM      3  C   UNL     1       0.399   4.426  -2.623  0.00  0.00    +0.046 A 
ATOM      4  C   UNL     1       0.292   3.456  -1.625  0.00  0.00    +0.129 A 
ATOM      5  C   UNL     1       1.451   2.908  -1.099  0.00  0.00    +0.017 A 
ATOM      6  C   UNL     1       2.689   3.301  -1.572  0.00  0.00    +0.009 A 
ATOM      7  C   UNL     1       1.376   1.878  -0.001  0.00  0.00    +0.136 C 
ATOM      8  C   UNL     1       2.186   0.619  -0.340  0.00  0.00    +0.086 C 
ATOM      9  C   UNL     1       1.177  -0.503  -0.204  0.00  0.00    +0.068 C 
ATOM     10  N   UNL     1       0.002  -0.004   0.002  0.00  0.00    -0.185 NA
ATOM     11  N   UNL     1      -0.017   1.379   0.010  0.00  0.00    -0.205 N 
ATOM     12  C   UNL     1      -1.151   2.309  -0.061  0.00  0.00    +0.310 C 
ATOM     13  O   UNL     1      -0.958   3.085  -1.249  0.00  0.00    -0.465 OA
ENDROOT
BRANCH   9  14
ATOM     14  C   UNL     1       1.488  -1.942  -0.293  0.00  0.00    -0.002 A 
ATOM     15  C   UNL     1       2.799  -2.363  -0.526  0.00  0.00    +0.012 A 
ATOM     16  C   UNL     1       3.084  -3.710  -0.603  0.00  0.00    +0.039 A 
ATOM     17  C   UNL     1       2.070  -4.645  -0.461  0.00  0.00    +0.123 A 
ATOM     18  C   UNL     1       0.766  -4.233  -0.236  0.00  0.00    +0.039 A 
ATOM     19  C   UNL     1       0.470  -2.889  -0.151  0.00  0.00    +0.012 A 
ATOM     20  F   UNL     1       2.354  -5.963  -0.543  0.00  0.00    -0.205 F 
ENDBRANCH   9  14
BRANCH  12  21
ATOM     21  C   UNL     1      -2.445   1.542  -0.148  0.00  0.00    +0.013 A 
ATOM     22  C   UNL     1      -2.473   0.302  -0.759  0.00  0.00    +0.012 A 
ATOM     23  C   UNL     1      -3.657  -0.405  -0.834  0.00  0.00    +0.046 A 
ATOM     24  C   UNL     1      -4.821   0.135  -0.307  0.00  0.00    +0.117 A 
ATOM     25  C   UNL     1      -4.792   1.381   0.301  0.00  0.00    +0.046 A 
ATOM     26  C   UNL     1      -3.604   2.082   0.379  0.00  0.00    +0.012 A 
BRANCH  24  27
ATOM     27  O   UNL     1      -5.989  -0.557  -0.386  0.00  0.00    -0.507 OA
ATOM     28  H   UNL     1      -6.501  -0.374  -1.185  0.00  0.00    +0.292 HD
ENDBRANCH  24  27
ENDBRANCH  12  21
TORSDOF 3
