REMARK  Name = ZINC39600463
REMARK  3 active torsions:
REMARK  status: ('A' for Active; 'I' for Inactive)
REMARK    1  A    between atoms: C_9  and  N_11
REMARK    2  A    between atoms: C_12  and  C_17
REMARK    3  A    between atoms: C_19  and  C_23
REMARK                            x       y       z     vdW  Elec       q    Type
REMARK                         _______ _______ _______ _____ _____    ______ ____
ROOT
ATOM      1  N   UNL     1       1.209  -2.087  -0.022  0.00  0.00    -0.270 N 
ATOM      2  C   UNL     1       1.221  -2.904   1.094  0.00  0.00    +0.187 A 
ATOM      3  N   UNL     1       1.229  -4.146   0.697  0.00  0.00    -0.151 NA
ATOM      4  N   UNL     1       1.222  -4.154  -0.704  0.00  0.00    -0.254 N 
ATOM      5  C   UNL     1       1.204  -2.871  -1.118  0.00  0.00    +0.180 A 
ATOM      6  S   UNL     1       1.183  -2.334  -2.744  0.00  0.00    -0.011 S 
ATOM      7  H   UNL     1       1.225  -4.940  -1.273  0.00  0.00    +0.191 HD
ENDROOT
BRANCH   1  16
ATOM      8  C   UNL     1      -0.017   1.387   0.010  0.00  0.00    +0.004 A 
ATOM      9  C   UNL     1       1.139   2.107   0.003  0.00  0.00    +0.028 A 
ATOM     10  C   UNL     1       2.379   1.448  -0.013  0.00  0.00    +0.073 A 
ATOM     11  C   UNL     1       2.409   0.031  -0.021  0.00  0.00    +0.024 A 
ATOM     12  C   UNL     1       3.652  -0.625  -0.037  0.00  0.00    +0.013 A 
ATOM     13  C   UNL     1       4.785   0.138  -0.044  0.00  0.00    +0.020 A 
ATOM     14  C   UNL     1       4.687   1.528  -0.036  0.00  0.00    +0.111 A 
ATOM     15  N   UNL     1       3.526   2.136  -0.021  0.00  0.00    -0.255 NA
ATOM     16  C   UNL     1       1.198  -0.691  -0.014  0.00  0.00    +0.060 A 
ATOM     17  C   UNL     1       0.002  -0.004   0.002  0.00  0.00    +0.027 A 
ENDBRANCH   1  16
BRANCH   2  18
ATOM     18  C   UNL     1       1.225  -2.446   2.501  0.00  0.00    +0.126 C 
ATOM     19  C   UNL     1       1.242  -3.260   3.576  0.00  0.00    +0.037 C 
ATOM     20  C   UNL     1       1.239  -2.304   4.756  0.00  0.00    +0.154 C 
ATOM     21  N   UNL     1       1.219  -0.979   4.115  0.00  0.00    -0.297 N 
ATOM     22  N   UNL     1       1.218  -1.144   2.893  0.00  0.00    -0.174 NA
ATOM     23  H   UNL     1       1.212  -0.125   4.574  0.00  0.00    +0.183 HD
BRANCH  20  24
ATOM     24  C   UNL     1       2.485  -2.479   5.585  0.00  0.00    -0.020 A 
ATOM     25  C   UNL     1       3.670  -1.893   5.184  0.00  0.00    +0.007 A 
ATOM     26  C   UNL     1       4.813  -2.053   5.944  0.00  0.00    +0.020 A 
ATOM     27  C   UNL     1       4.771  -2.800   7.108  0.00  0.00    +0.041 A 
ATOM     28  C   UNL     1       3.584  -3.387   7.509  0.00  0.00    +0.020 A 
ATOM     29  C   UNL     1       2.440  -3.221   6.751  0.00  0.00    +0.007 A 
ATOM     30 CL   UNL     1       6.206  -3.002   8.063  0.00  0.00    -0.084 Cl
ENDBRANCH  20  24
ENDBRANCH   2  18
TORSDOF 3
