REMARK  Name = ZINC63557464
REMARK  6 active torsions:
REMARK  status: ('A' for Active; 'I' for Inactive)
REMARK    1  A    between atoms: C_6  and  C_11
REMARK    2  A    between atoms: C_11  and  C_12
REMARK    3  A    between atoms: C_12  and  N_13
REMARK    4  A    between atoms: C_15  and  C_20
REMARK    5  A    between atoms: N_22  and  C_23
REMARK    6  A    between atoms: C_27  and  C_30
REMARK                            x       y       z     vdW  Elec       q    Type
REMARK                         _______ _______ _______ _____ _____    ______ ____
ROOT
ATOM      1  N   UNL     1       5.000  -3.595  -1.503  0.00  0.00    -0.300 N 
ATOM      2  C   UNL     1       6.416  -3.969  -1.407  0.00  0.00    +0.121 C 
ATOM      3  C   UNL     1       6.421  -5.466  -1.024  0.00  0.00    +0.101 C 
ATOM      4  C   UNL     1       5.055  -5.937  -1.574  0.00  0.00    +0.110 C 
ATOM      5  C   UNL     1       4.213  -4.681  -1.598  0.00  0.00    +0.216 C 
ATOM      6  O   UNL     1       3.004  -4.656  -1.691  0.00  0.00    -0.276 OA
ENDROOT
BRANCH   3   7
ATOM      7  C   UNL     1       7.556  -6.192  -1.701  0.00  0.00    +0.220 C 
ATOM      8  O   UNL     1       8.311  -5.588  -2.433  0.00  0.00    -0.275 OA
ATOM      9  N   UNL     1       7.730  -7.512  -1.493  0.00  0.00    -0.290 N 
ATOM     10  H   UNL     1       7.126  -7.995  -0.907  0.00  0.00    +0.151 HD
BRANCH   9  11
ATOM     11  C   UNL     1       8.833  -8.217  -2.151  0.00  0.00    +0.217 C 
ATOM     12  N   UNL     1       8.674  -9.686  -2.020  0.00  0.00    -0.226 NA
ATOM     13  N   UNL     1       9.653 -10.349  -1.184  0.00  0.00    -0.233 NA
ATOM     14  C   UNL     1      10.991  -9.684  -1.241  0.00  0.00    +0.234 C 
ATOM     15  S   UNL     1      10.424  -7.923  -1.267  0.00  0.00    -0.093 S 
ATOM     16  H   UNL     1       7.736  -9.925  -1.738  0.00  0.00    +0.143 HD
ATOM     17  H   UNL     1       9.325 -10.421  -0.232  0.00  0.00    +0.142 HD
BRANCH  14  18
ATOM     18  C   UNL     1      11.824  -9.989   0.006  0.00  0.00    +0.415 C 
ATOM     19  F   UNL     1      12.021 -11.370   0.107  0.00  0.00    -0.168 F 
ATOM     20  F   UNL     1      13.063  -9.347  -0.093  0.00  0.00    -0.168 F 
ATOM     21  F   UNL     1      11.150  -9.529   1.142  0.00  0.00    -0.168 F 
ENDBRANCH  14  18
ENDBRANCH   9  11
ENDBRANCH   3   7
BRANCH   1  22
ATOM     22  C   UNL     1       4.508  -2.215  -1.491  0.00  0.00    +0.112 C 
BRANCH  22  23
ATOM     23  C   UNL     1       4.231  -1.785  -0.049  0.00  0.00    +0.052 C 
BRANCH  23  29
ATOM     24  C   UNL     1      -0.017   1.399   0.010  0.00  0.00    +0.022 A 
ATOM     25  C   UNL     1       1.109   2.143   0.003  0.00  0.00    +0.027 A 
ATOM     26  C   UNL     1       2.385   1.516  -0.013  0.00  0.00    +0.043 A 
ATOM     27  N   UNL     1       3.600   2.009  -0.022  0.00  0.00    -0.380 N 
ATOM     28  C   UNL     1       4.557   0.897  -0.038  0.00  0.00    +0.144 C 
ATOM     29  C   UNL     1       3.724  -0.366  -0.036  0.00  0.00    -0.040 C 
ATOM     30  C   UNL     1       2.433   0.036  -0.021  0.00  0.00    +0.000 A 
ATOM     31  C   UNL     1       1.163  -0.699  -0.013  0.00  0.00    +0.030 A 
ATOM     32  C   UNL     1       0.002  -0.004   0.002  0.00  0.00    +0.042 A 
ATOM     33 CL   UNL     1      -1.502  -0.870   0.012  0.00  0.00    -0.084 Cl
ATOM     34  H   UNL     1       3.828   2.952  -0.020  0.00  0.00    +0.160 HD
ENDBRANCH  23  29
ENDBRANCH  22  23
ENDBRANCH   1  22
TORSDOF 6
