REMARK  Name = ZINC14977445
REMARK  12 active torsions:
REMARK  status: ('A' for Active; 'I' for Inactive)
REMARK    1  A    between atoms: C_1  and  N_65
REMARK    2  A    between atoms: C_2  and  C_3
REMARK    3  A    between atoms: C_2  and  N_65
REMARK    4  A    between atoms: C_3  and  C_5
REMARK    5  A    between atoms: C_3  and  O_21
REMARK    6  A    between atoms: C_5  and  O_6
REMARK    7  A    between atoms: O_6  and  C_7
REMARK    8  A    between atoms: C_11  and  C_13
REMARK    9  A    between atoms: C_13  and  N_67
REMARK   10  A    between atoms: C_16  and  C_19
REMARK   11  A    between atoms: C_19  and  O_20
REMARK   12  A    between atoms: C_22  and  N_65
REMARK                            x       y       z     vdW  Elec       q    Type
REMARK                         _______ _______ _______ _____ _____    ______ ____
ROOT
ATOM      1  C   UNL     1       0.025   3.860   0.572  0.00  0.00    +0.121 A 
ATOM      2  C   UNL     1       1.215   3.175   0.368  0.00  0.00    +0.045 A 
ATOM      3  C   UNL     1       1.234   1.795   0.417  0.00  0.00    +0.004 A 
ATOM      4  C   UNL     1       0.068   1.095   0.669  0.00  0.00    +0.002 A 
ATOM      5  C   UNL     1      -1.120   1.775   0.867  0.00  0.00    -0.060 A 
ATOM      6  C   UNL     1      -1.143   3.155   0.825  0.00  0.00    +0.047 A 
ENDROOT
BRANCH   1   7
ATOM      7  O   UNL     1       0.005   5.218   0.524  0.00  0.00    -0.489 OA
BRANCH   7   8
ATOM      8  C   UNL     1       1.244   5.877   0.259  0.00  0.00    +0.258 C 
BRANCH   8   9
ATOM      9  C   UNL     1       1.024   7.391   0.244  0.00  0.00    +0.135 C 
BRANCH   9  10
ATOM     10  O   UNL     1       0.635   7.829   1.547  0.00  0.00    -0.390 OA
ATOM     11  H   UNL     1       1.287   7.642   2.236  0.00  0.00    +0.210 HD
ENDBRANCH   9  10
BRANCH   9  12
ATOM     12  C   UNL     1       2.323   8.091  -0.163  0.00  0.00    -0.044 C 
BRANCH  12  14
ATOM     13  C   UNL     1       3.376  10.270  -0.231  0.00  0.00    -0.096 C 
ATOM     14  N   UNL     1       2.086   9.549  -0.194  0.00  0.00    +0.381 N 
ATOM     15  H   UNL     1       1.575   9.823   0.653  0.00  0.00    -0.082 HD
BRANCH  14  16
ATOM     16  C   UNL     1       1.276   9.904  -1.378  0.00  0.00    -0.069 C 
ATOM     17  C   UNL     1       2.036   9.580  -2.666  0.00  0.00    -0.015 C 
ATOM     18  C   UNL     1       1.177   9.958  -3.874  0.00  0.00    -0.002 C 
ATOM     19  C   UNL     1       0.864  11.454  -3.830  0.00  0.00    -0.000 C 
ATOM     20  C   UNL     1       0.103  11.778  -2.542  0.00  0.00    -0.002 C 
ATOM     21  C   UNL     1       0.962  11.401  -1.334  0.00  0.00    -0.015 C 
ENDBRANCH  14  16
ENDBRANCH  12  14
ENDBRANCH   9  12
ENDBRANCH   8   9
ENDBRANCH   7   8
ENDBRANCH   1   7
BRANCH   5  22
ATOM     22  C   UNL     1      -2.390   1.009   1.134  0.00  0.00    -0.043 C 
BRANCH  22  28
ATOM     23  C   UNL     1      -2.282   2.055   3.315  0.00  0.00    -0.078 C 
ATOM     24  C   UNL     1      -2.312   1.778   4.819  0.00  0.00    -0.013 C 
ATOM     25  C   UNL     1      -3.684   1.219   5.204  0.00  0.00    +0.011 C 
ATOM     26  C   UNL     1      -3.957  -0.049   4.391  0.00  0.00    -0.013 C 
ATOM     27  C   UNL     1      -3.879   0.281   2.898  0.00  0.00    -0.078 C 
ATOM     28  N   UNL     1      -2.526   0.790   2.589  0.00  0.00    +0.382 N 
ATOM     29  H   UNL     1      -1.832   0.095   2.888  0.00  0.00    -0.081 HD
BRANCH  25  30
ATOM     30  C   UNL     1      -3.700   0.883   6.696  0.00  0.00    +0.159 C 
BRANCH  30  31
ATOM     31  O   UNL     1      -3.562   2.085   7.457  0.00  0.00    -0.395 OA
ATOM     32  H   UNL     1      -3.564   1.948   8.414  0.00  0.00    +0.209 HD
ENDBRANCH  30  31
ENDBRANCH  25  30
ENDBRANCH  22  28
ENDBRANCH   5  22
TORSDOF 11
