REMARK  Name = ZINC45215517
REMARK  8 active torsions:
REMARK  status: ('A' for Active; 'I' for Inactive)
REMARK    1  A    between atoms: C_1  and  C_2
REMARK    2  A    between atoms: C_2  and  C_3
REMARK    3  A    between atoms: C_2  and  C_17
REMARK    4  A    between atoms: C_2  and  N_19
REMARK    5  A    between atoms: C_3  and  O_4
REMARK    6  A    between atoms: O_4  and  C_5
REMARK    7  A    between atoms: C_6  and  N_14
REMARK    8  A    between atoms: C_8  and  C_12
REMARK                            x       y       z     vdW  Elec       q    Type
REMARK                         _______ _______ _______ _____ _____    ______ ____
ROOT
ATOM      1  C   UNL     1       0.534  -0.526   3.609  0.00  0.00    +0.164 A 
ATOM      2  C   UNL     1       0.197  -1.759   4.155  0.00  0.00    +0.170 A 
ATOM      3  C   UNL     1       0.725  -2.145   5.367  0.00  0.00    +0.055 A 
ATOM      4  C   UNL     1       1.603  -1.296   6.047  0.00  0.00    +0.055 A 
ATOM      5  C   UNL     1       1.940  -0.058   5.494  0.00  0.00    +0.037 A 
ATOM      6  C   UNL     1       1.411   0.319   4.279  0.00  0.00    +0.058 A 
ATOM      7  I   UNL     1       1.922   2.171   3.444  0.00  0.00    -0.040 I 
ENDROOT
BRANCH   2   8
ATOM      8  N   UNL     1      -0.733  -2.657   3.434  0.00  0.00    +0.060 N 
ATOM      9  O   UNL     1      -1.028  -3.729   3.909  0.00  0.00    -0.126 OA
ATOM     10  O   UNL     1      -1.198  -2.318   2.371  0.00  0.00    -0.126 OA
ENDBRANCH   2   8
BRANCH   4  11
ATOM     11  C   UNL     1       2.155  -1.694   7.307  0.00  0.00    +0.099 C 
ATOM     12  N   UNL     1       2.592  -2.010   8.307  0.00  0.00    -0.191 NA
ENDBRANCH   4  11
BRANCH   1  13
ATOM     13  O   UNL     1       0.010  -0.149   2.414  0.00  0.00    -0.486 OA
BRANCH  13  14
ATOM     14  C   UNL     1       0.742  -0.511   1.242  0.00  0.00    +0.266 C 
BRANCH  14  16
ATOM     15  C   UNL     1      -0.019   1.526   0.010  0.00  0.00    +0.047 C 
ATOM     16  C   UNL     1       0.002  -0.004   0.002  0.00  0.00    +0.136 C 
BRANCH  16  17
ATOM     17  N   UNL     1      -1.376  -0.512   0.012  0.00  0.00    -0.311 NA
ATOM     18  H   UNL     1      -1.905  -0.140  -0.762  0.00  0.00    +0.120 HD
ATOM     19  H   UNL     1      -1.389  -1.521   0.007  0.00  0.00    +0.120 HD
ENDBRANCH  16  17
BRANCH  16  20
ATOM     20  C   UNL     1       0.691  -0.479  -1.209  0.00  0.00    +0.088 C 
ATOM     21  N   UNL     1       1.223  -0.845  -2.144  0.00  0.00    -0.195 NA
ENDBRANCH  16  20
ENDBRANCH  14  16
ENDBRANCH  13  14
ENDBRANCH   1  13
TORSDOF 7
