REMARK  Name = ZINC37870382
REMARK  4 active torsions:
REMARK  status: ('A' for Active; 'I' for Inactive)
REMARK    1  A    between atoms: C_2  and  C_13
REMARK    2  A    between atoms: C_13  and  C_15
REMARK    3  A    between atoms: C_13  and  N_18
REMARK    4  A    between atoms: N_18  and  C_19
REMARK                            x       y       z     vdW  Elec       q    Type
REMARK                         _______ _______ _______ _____ _____    ______ ____
ROOT
ATOM      1  C   UNL     1      -0.017   1.380   0.010  0.00  0.00    +0.052 A 
ATOM      2  C   UNL     1       1.175   2.083   0.002  0.00  0.00    -0.048 A 
ATOM      3  C   UNL     1       2.381   1.407  -0.013  0.00  0.00    +0.021 A 
ATOM      4  C   UNL     1       2.404   0.023  -0.022  0.00  0.00    +0.063 A 
ATOM      5  C   UNL     1       1.212  -0.683  -0.014  0.00  0.00    +0.176 A 
ATOM      6  C   UNL     1       0.002  -0.004   0.002  0.00  0.00    +0.163 A 
ATOM      7  O   UNL     1      -1.167  -0.709   0.010  0.00  0.00    -0.488 OA
ATOM      8  C   UNL     1      -1.468  -1.433  -1.184  0.00  0.00    +0.232 C 
ATOM      9  C   UNL     1      -0.780  -2.789  -1.181  0.00  0.00    +0.082 C 
ATOM     10  C   UNL     1       0.736  -2.670  -1.212  0.00  0.00    +0.232 C 
ATOM     11  O   UNL     1       1.220  -2.048  -0.021  0.00  0.00    -0.487 OA
ATOM     12 BR   UNL     1       4.054  -0.900  -0.044  0.00  0.00    -0.046 Br
ENDROOT
BRANCH   2  13
ATOM     13  C   UNL     1       1.159   3.590   0.010  0.00  0.00    +0.047 C 
BRANCH  13  14
ATOM     14  C   UNL     1       1.387   4.102  -1.389  0.00  0.00    +0.201 C 
ATOM     15  O   UNL     1       2.342   4.811  -1.627  0.00  0.00    -0.277 OA
ATOM     16  N   UNL     1       0.530   3.772  -2.375  0.00  0.00    -0.330 N 
ATOM     17  H   UNL     1      -0.234   3.205  -2.185  0.00  0.00    +0.145 HD
ATOM     18  H   UNL     1       0.677   4.102  -3.276  0.00  0.00    +0.145 HD
ENDBRANCH  13  14
BRANCH  13  19
ATOM     19  N   UNL     1       2.223   4.086   0.893  0.00  0.00    +0.391 N 
ATOM     20  H   UNL     1       2.118   3.678   1.810  0.00  0.00    -0.084 HD
ATOM     21  H   UNL     1       3.122   3.831   0.512  0.00  0.00    -0.084 HD
BRANCH  19  22
ATOM     22  C   UNL     1       2.132   5.549   0.995  0.00  0.00    -0.070 C 
ATOM     23  C   UNL     1       3.306   6.369   0.457  0.00  0.00    -0.017 C 
ATOM     24  C   UNL     1       3.084   6.250   1.966  0.00  0.00    -0.017 C 
ENDBRANCH  19  22
ENDBRANCH  13  19
ENDBRANCH   2  13
TORSDOF 4
