REMARK  Name = ZINC32930458
REMARK  6 active torsions:
REMARK  status: ('A' for Active; 'I' for Inactive)
REMARK    1  A    between atoms: C_1  and  C_2
REMARK    2  A    between atoms: C_7  and  C_10
REMARK    3  A    between atoms: C_14  and  C_17
REMARK    4  A    between atoms: C_17  and  N_18
REMARK    5  A    between atoms: C_19  and  C_21
REMARK    6  A    between atoms: C_21  and  C_22
REMARK                            x       y       z     vdW  Elec       q    Type
REMARK                         _______ _______ _______ _____ _____    ______ ____
ROOT
ATOM      1  C   UNL     1      12.652  -9.624  -3.264  0.00  0.00    +0.039 C 
ATOM      2  C   UNL     1      12.197  -9.397  -1.821  0.00  0.00    +0.133 C 
ATOM      3  C   UNL     1      11.251  -8.194  -1.766  0.00  0.00    +0.137 C 
ATOM      4  N   UNL     1      10.046  -8.490  -2.555  0.00  0.00    -0.312 N 
ATOM      5  C   UNL     1       9.368  -9.689  -2.041  0.00  0.00    +0.137 C 
ATOM      6  C   UNL     1      10.333 -10.876  -2.093  0.00  0.00    +0.133 C 
ATOM      7  O   UNL     1      11.511 -10.559  -1.347  0.00  0.00    -0.371 OA
ATOM      8  C   UNL     1       9.660 -12.108  -1.485  0.00  0.00    +0.039 C 
ATOM      9  C   UNL     1       9.183  -7.400  -2.575  0.00  0.00    +0.099 A 
ATOM     10  C   UNL     1       7.983  -7.483  -3.273  0.00  0.00    +0.042 A 
ATOM     11  C   UNL     1       7.134  -6.391  -3.284  0.00  0.00    +0.010 A 
ATOM     12  C   UNL     1       7.516  -5.248  -2.594  0.00  0.00    -0.014 A 
ATOM     13  C   UNL     1       8.724  -5.233  -1.927  0.00  0.00    +0.089 A 
ATOM     14  N   UNL     1       9.512  -6.292  -1.929  0.00  0.00    -0.349 N 
ATOM     15  H   UNL     1      10.461  -6.238  -1.376  0.00  0.00    +0.167 HD
ENDROOT
BRANCH  12  16
ATOM     16  C   UNL     1       6.623  -4.034  -2.579  0.00  0.00    +0.141 C 
BRANCH  16  17
ATOM     17  N   UNL     1       5.707  -4.116  -1.440  0.00  0.00    -0.311 N 
ATOM     18  C   UNL     1       4.810  -3.133  -1.224  0.00  0.00    +0.219 C 
ATOM     19  O   UNL     1       4.761  -2.181  -1.974  0.00  0.00    -0.275 OA
ATOM     20  H   UNL     1       5.750  -4.979  -0.759  0.00  0.00    +0.149 HD
BRANCH  18  21
ATOM     21  C   UNL     1       3.867  -3.217  -0.052  0.00  0.00    +0.152 C 
BRANCH  21  22
ATOM     22  C   UNL     1       2.974  -2.003  -0.037  0.00  0.00    +0.069 A 
ATOM     23  C   UNL     1       1.631  -2.016  -0.024  0.00  0.00    +0.117 A 
ATOM     24  N   UNL     1       1.195  -0.694  -0.013  0.00  0.00    -0.300 N 
ATOM     25  C   UNL     1       0.002  -0.004   0.002  0.00  0.00    +0.100 A 
ATOM     26  C   UNL     1      -0.016   1.328   0.009  0.00  0.00    +0.067 A 
ATOM     27  S   UNL     1       1.726   1.720  -0.005  0.00  0.00    -0.058 S 
ATOM     28  C   UNL     1       2.343   0.054  -0.020  0.00  0.00    +0.178 A 
ATOM     29  N   UNL     1       3.386  -0.726  -0.034  0.00  0.00    -0.226 NA
ENDBRANCH  21  22
ENDBRANCH  18  21
ENDBRANCH  16  17
ENDBRANCH  12  16
TORSDOF 4
