REMARK  Name = ZINC59619524
REMARK  2 active torsions:
REMARK  status: ('A' for Active; 'I' for Inactive)
REMARK    1  A    between atoms: C_12  and  C_14
REMARK    2  A    between atoms: C_24  and  N_27
REMARK                            x       y       z     vdW  Elec       q    Type
REMARK                         _______ _______ _______ _____ _____    ______ ____
ROOT
ATOM      1  C   UNL     1       0.221   1.329  -0.316  0.00  0.00    +0.033 C 
ATOM      2  C   UNL     1       0.165  -0.008  -0.220  0.00  0.00    +0.031 C 
ATOM      3  C   UNL     1      -1.126  -0.713  -0.122  0.00  0.00    +0.090 C 
ATOM      4  C   UNL     1      -1.128  -2.029   0.182  0.00  0.00    +0.249 C 
ATOM      5  O   UNL     1      -2.303  -2.690   0.308  0.00  0.00    -0.270 OA
ATOM      6  N   UNL     1       0.062  -2.703   0.363  0.00  0.00    -0.219 N 
ATOM      7  C   UNL     1       1.260  -2.036   0.349  0.00  0.00    +0.198 C 
ATOM      8  N   UNL     1       1.334  -0.787  -0.215  0.00  0.00    -0.287 N 
ATOM      9  N   UNL     1       2.318  -2.582   0.911  0.00  0.00    -0.186 NA
ATOM     10  C   UNL     1       2.231  -3.771   1.532  0.00  0.00    +0.196 C 
ATOM     11  N   UNL     1       1.178  -4.534   1.419  0.00  0.00    -0.338 N 
ATOM     12  C   UNL     1       0.069  -4.160   0.538  0.00  0.00    +0.183 C 
ATOM     13  N   UNL     1       3.287  -4.197   2.313  0.00  0.00    -0.301 N 
ATOM     14  C   UNL     1       3.653  -5.619   2.364  0.00  0.00    +0.106 C 
ATOM     15  C   UNL     1       5.142  -5.757   2.030  0.00  0.00    +0.004 C 
ATOM     16  C   UNL     1       5.956  -4.864   2.968  0.00  0.00    -0.066 C 
ATOM     17  C   UNL     1       5.549  -3.403   2.766  0.00  0.00    +0.004 C 
ATOM     18  C   UNL     1       4.069  -3.237   3.104  0.00  0.00    +0.106 C 
ATOM     19  H   UNL     1       1.130  -5.360   1.925  0.00  0.00    +0.164 HD
ATOM     20  H   UNL     1       2.162  -0.454  -0.594  0.00  0.00    +0.155 HD
ENDROOT
BRANCH  16  21
ATOM     21  N   UNL     1       7.387  -5.019   2.672  0.00  0.00    +0.382 N 
ATOM     22  C   UNL     1       7.774  -6.422   2.860  0.00  0.00    -0.078 C 
ATOM     23  C   UNL     1       9.244  -6.604   2.475  0.00  0.00    -0.019 C 
ATOM     24  C   UNL     1      10.114  -5.710   3.363  0.00  0.00    -0.004 C 
ATOM     25  C   UNL     1       9.651  -4.257   3.216  0.00  0.00    -0.019 C 
ATOM     26  C   UNL     1       8.167  -4.162   3.573  0.00  0.00    -0.078 C 
ATOM     27  H   UNL     1       7.562  -4.748   1.716  0.00  0.00    -0.081 HD
ENDBRANCH  16  21
BRANCH  12  28
ATOM     28  C   UNL     1       0.246  -4.838  -0.822  0.00  0.00    +0.034 C 
ATOM     29  C   UNL     1      -0.915  -4.450  -1.747  0.00  0.00    +0.011 C 
ATOM     30  C   UNL     1      -0.621  -4.993  -3.147  0.00  0.00    +0.027 C 
ATOM     31  C   UNL     1      -0.233  -6.441  -3.069  0.00  0.00    -0.031 C 
ATOM     32  C   UNL     1       0.144  -7.033  -1.982  0.00  0.00    -0.031 C 
ATOM     33  C   UNL     1       0.243  -6.358  -0.645  0.00  0.00    +0.034 C 
ENDBRANCH  12  28
TORSDOF 2
