REMARK  Name = ZINC20572272
REMARK  7 active torsions:
REMARK  status: ('A' for Active; 'I' for Inactive)
REMARK    1  A    between atoms: C_1  and  C_2
REMARK    2  A    between atoms: N_12  and  S_13
REMARK    3  A    between atoms: S_13  and  C_16
REMARK    4  A    between atoms: C_19  and  N_22
REMARK    5  A    between atoms: N_22  and  C_23
REMARK    6  A    between atoms: C_23  and  N_25
REMARK    7  A    between atoms: N_25  and  C_26
REMARK                            x       y       z     vdW  Elec       q    Type
REMARK                         _______ _______ _______ _____ _____    ______ ____
ROOT
ATOM      1  C   UNL     1       5.567   1.420  -1.994  0.00  0.00    +0.109 A 
ATOM      2  C   UNL     1       5.554   0.260  -2.746  0.00  0.00    +0.030 A 
ATOM      3  C   UNL     1       5.432   0.327  -4.120  0.00  0.00    +0.025 A 
ATOM      4  C   UNL     1       5.333   1.563  -4.747  0.00  0.00    +0.033 A 
ATOM      5  C   UNL     1       5.352   2.726  -3.989  0.00  0.00    +0.025 A 
ATOM      6  C   UNL     1       5.468   2.652  -2.615  0.00  0.00    +0.030 A 
ENDROOT
BRANCH   1   7
ATOM      7  S   UNL     1       5.715   1.330  -0.240  0.00  0.00    +0.075 S 
ATOM      8  O   UNL     1       6.256   2.573   0.186  0.00  0.00    -0.150 OA
ATOM      9  O   UNL     1       6.340   0.087   0.051  0.00  0.00    -0.150 OA
BRANCH   7  20
ATOM     10  C   UNL     1       2.424   2.862  -0.190  0.00  0.00    +0.030 C 
ATOM     11  C   UNL     1       3.490   2.459   0.831  0.00  0.00    +0.095 C 
ATOM     12  C   UNL     1       2.827   2.145   2.179  0.00  0.00    +0.029 C 
ATOM     13  C   UNL     1       1.774   1.056   1.969  0.00  0.00    +0.039 C 
ATOM     14  C   UNL     1       2.367  -0.116   1.233  0.00  0.00    -0.022 A 
ATOM     15  C   UNL     1       1.736  -1.346   1.314  0.00  0.00    +0.043 A 
ATOM     16  C   UNL     1       2.257  -2.442   0.650  0.00  0.00    +0.124 A 
ATOM     17  C   UNL     1       3.408  -2.313  -0.108  0.00  0.00    +0.040 A 
ATOM     18  C   UNL     1       4.040  -1.089  -0.195  0.00  0.00    +0.028 A 
ATOM     19  C   UNL     1       3.521   0.013   0.476  0.00  0.00    +0.055 A 
ATOM     20  N   UNL     1       4.181   1.244   0.377  0.00  0.00    -0.200 N 
ATOM     21  F   UNL     1       1.638  -3.640   0.737  0.00  0.00    -0.205 F 
ENDBRANCH   7  20
ENDBRANCH   1   7
BRANCH   4  22
ATOM     22  N   UNL     1       5.216   1.635  -6.139  0.00  0.00    -0.297 N 
ATOM     23  H   UNL     1       4.564   0.928  -6.673  0.00  0.00    +0.154 HD
BRANCH  22  24
ATOM     24  C   UNL     1       5.903   2.569  -6.826  0.00  0.00    +0.139 C 
ATOM     25  S   UNL     1       7.028   3.573  -6.015  0.00  0.00    -0.018 S 
BRANCH  24  26
ATOM     26  N   UNL     1       5.704   2.713  -8.151  0.00  0.00    -0.297 N 
ATOM     27  H   UNL     1       5.035   2.023  -8.685  0.00  0.00    +0.154 HD
BRANCH  26  28
ATOM     28  C   UNL     1       6.349   3.742  -8.848  0.00  0.00    +0.033 A 
ATOM     29  C   UNL     1       5.648   4.498  -9.777  0.00  0.00    +0.026 A 
ATOM     30  C   UNL     1       6.284   5.517 -10.459  0.00  0.00    +0.040 A 
ATOM     31  C   UNL     1       7.624   5.777 -10.225  0.00  0.00    +0.124 A 
ATOM     32  C   UNL     1       8.327   5.020  -9.302  0.00  0.00    +0.040 A 
ATOM     33  C   UNL     1       7.692   4.005  -8.614  0.00  0.00    +0.026 A 
ATOM     34  F   UNL     1       8.247   6.769 -10.897  0.00  0.00    -0.205 F 
ENDBRANCH  26  28
ENDBRANCH  24  26
ENDBRANCH  22  24
ENDBRANCH   4  22
TORSDOF 6
