REMARK  Name = ZINC00709669
REMARK  6 active torsions:
REMARK  status: ('A' for Active; 'I' for Inactive)
REMARK    1  A    between atoms: C_1  and  C_2
REMARK    2  A    between atoms: C_2  and  O_3
REMARK    3  A    between atoms: O_3  and  C_4
REMARK    4  A    between atoms: C_6  and  C_11
REMARK    5  A    between atoms: C_9  and  O_10
REMARK    6  A    between atoms: C_16  and  C_21
REMARK                            x       y       z     vdW  Elec       q    Type
REMARK                         _______ _______ _______ _____ _____    ______ ____
ROOT
ATOM      1  C   UNL     1      -2.624   2.371   2.564  0.00  0.00    +0.136 C 
ATOM      2  C   UNL     1      -1.948   1.766   1.357  0.00  0.00    +0.036 C 
ATOM      3  C   UNL     1      -2.528   1.519   0.170  0.00  0.00    +0.017 C 
ATOM      4  C   UNL     1      -1.728   0.900  -0.964  0.00  0.00    +0.059 C 
ATOM      5  C   UNL     1      -0.273   1.356  -0.884  0.00  0.00    +0.032 C 
ATOM      6  C   UNL     1       0.285   0.902   0.470  0.00  0.00    +0.088 C 
ATOM      7  C   UNL     1      -0.576   1.468   1.559  0.00  0.00    +0.163 C 
ATOM      8  O   UNL     1      -0.079   1.679   2.648  0.00  0.00    -0.292 OA
ATOM      9  N   UNL     1      -3.829   1.771  -0.122  0.00  0.00    -0.316 N 
ATOM     10  C   UNL     1      -4.496   2.954   0.174  0.00  0.00    +0.052 A 
ATOM     11  C   UNL     1      -5.027   3.769  -0.810  0.00  0.00    +0.025 A 
ATOM     12  C   UNL     1      -5.779   4.872  -0.444  0.00  0.00    +0.002 A 
ATOM     13  C   UNL     1      -5.995   5.157   0.892  0.00  0.00    +0.002 A 
ATOM     14  C   UNL     1      -5.446   4.355   1.877  0.00  0.00    +0.025 A 
ATOM     15  C   UNL     1      -4.678   3.260   1.514  0.00  0.00    +0.049 A 
ATOM     16  N   UNL     1      -4.066   2.451   2.469  0.00  0.00    -0.331 N 
ATOM     17  H   UNL     1      -4.331   1.074  -0.572  0.00  0.00    +0.152 HD
ATOM     18  H   UNL     1      -4.614   1.933   3.079  0.00  0.00    +0.147 HD
ENDROOT
BRANCH   1  21
ATOM     19  C   UNL     1      -0.873   5.342   4.106  0.00  0.00    +0.162 A 
ATOM     20  C   UNL     1      -1.373   4.064   3.917  0.00  0.00    +0.055 A 
ATOM     21  C   UNL     1      -2.081   3.761   2.769  0.00  0.00    -0.019 A 
ATOM     22  C   UNL     1      -2.287   4.731   1.805  0.00  0.00    +0.009 A 
ATOM     23  C   UNL     1      -1.796   6.010   1.991  0.00  0.00    +0.049 A 
ATOM     24  C   UNL     1      -1.085   6.319   3.139  0.00  0.00    +0.158 A 
BRANCH  24  25
ATOM     25  O   UNL     1      -0.597   7.576   3.321  0.00  0.00    -0.503 OA
ATOM     26  H   UNL     1       0.295   7.705   2.972  0.00  0.00    +0.292 HD
ENDBRANCH  24  25
BRANCH  19  27
ATOM     27  O   UNL     1      -0.176   5.641   5.236  0.00  0.00    -0.489 OA
BRANCH  27  29
ATOM     28  C   UNL     1       0.804   5.110   7.380  0.00  0.00    +0.048 C 
ATOM     29  C   UNL     1       0.003   4.588   6.185  0.00  0.00    +0.226 C 
ENDBRANCH  27  29
ENDBRANCH  19  27
ENDBRANCH   1  21
BRANCH   5  30
ATOM     30  C   UNL     1       0.522   0.727  -2.000  0.00  0.00    -0.044 A 
ATOM     31  C   UNL     1       0.588  -0.649  -2.111  0.00  0.00    +0.004 A 
ATOM     32  C   UNL     1       1.312  -1.226  -3.138  0.00  0.00    +0.000 A 
ATOM     33  C   UNL     1       1.978  -0.426  -4.047  0.00  0.00    +0.000 A 
ATOM     34  C   UNL     1       1.917   0.950  -3.933  0.00  0.00    +0.000 A 
ATOM     35  C   UNL     1       1.189   1.527  -2.909  0.00  0.00    +0.004 A 
ENDBRANCH   5  30
TORSDOF 5
