REMARK  Name = ZINC36347394
REMARK  8 active torsions:
REMARK  status: ('A' for Active; 'I' for Inactive)
REMARK    1  A    between atoms: C_1  and  O_2
REMARK    2  A    between atoms: O_2  and  C_3
REMARK    3  A    between atoms: C_5  and  N_32
REMARK    4  A    between atoms: C_7  and  C_10
REMARK    5  A    between atoms: C_8  and  O_9
REMARK    6  A    between atoms: C_10  and  N_11
REMARK    7  A    between atoms: C_20  and  C_22
REMARK    8  A    between atoms: C_25  and  C_28
REMARK                            x       y       z     vdW  Elec       q    Type
REMARK                         _______ _______ _______ _____ _____    ______ ____
ROOT
ATOM      1  N   UNL     1       2.446  -4.627   1.186  0.00  0.00    +0.391 N 
ATOM      2  C   UNL     1       3.688  -3.978   1.610  0.00  0.00    -0.075 C 
ATOM      3  C   UNL     1       4.870  -4.461   0.779  0.00  0.00    +0.003 C 
ATOM      4  C   UNL     1       4.413  -4.752  -0.653  0.00  0.00    +0.119 C 
ATOM      5  N   UNL     1       3.945  -6.140  -0.731  0.00  0.00    -0.352 N 
ATOM      6  C   UNL     1       4.262  -7.047  -1.696  0.00  0.00    +0.086 A 
ATOM      7  C   UNL     1       3.618  -8.200  -1.420  0.00  0.00    +0.019 A 
ATOM      8  C   UNL     1       2.880  -7.998  -0.237  0.00  0.00    +0.021 A 
ATOM      9  C   UNL     1       3.103  -6.732   0.167  0.00  0.00    +0.009 A 
ATOM     10  C   UNL     1       2.536  -6.077   1.403  0.00  0.00    +0.011 C 
ATOM     11  H   UNL     1       2.292  -4.444   0.206  0.00  0.00    -0.080 HD
ENDROOT
BRANCH  10  12
ATOM     12  C   UNL     1       1.162  -6.631   1.680  0.00  0.00    -0.055 A 
ATOM     13  C   UNL     1       0.911  -7.297   2.865  0.00  0.00    +0.003 A 
ATOM     14  C   UNL     1      -0.349  -7.804   3.119  0.00  0.00    +0.012 A 
ATOM     15  C   UNL     1      -1.359  -7.646   2.188  0.00  0.00    +0.055 A 
ATOM     16  C   UNL     1      -1.108  -6.980   1.004  0.00  0.00    +0.012 A 
ATOM     17  C   UNL     1       0.151  -6.468   0.751  0.00  0.00    +0.003 A 
BRANCH  15  18
ATOM     18  C   UNL     1      -2.733  -8.201   2.465  0.00  0.00    +0.417 C 
ATOM     19  F   UNL     1      -3.503  -7.233   3.119  0.00  0.00    -0.166 F 
ATOM     20  F   UNL     1      -3.347  -8.548   1.257  0.00  0.00    -0.166 F 
ATOM     21  F   UNL     1      -2.623  -9.335   3.276  0.00  0.00    -0.166 F 
ENDBRANCH  15  18
ENDBRANCH  10  12
BRANCH   1  22
ATOM     22  C   UNL     1       1.323  -4.087   1.964  0.00  0.00    -0.038 C 
BRANCH  22  27
ATOM     23  C   UNL     1       0.401  -0.833   0.263  0.00  0.00    +0.164 A 
ATOM     24  C   UNL     1       0.910   0.094   1.157  0.00  0.00    +0.082 A 
ATOM     25  C   UNL     1       1.549  -0.332   2.306  0.00  0.00    +0.130 A 
ATOM     26  C   UNL     1       1.682  -1.683   2.566  0.00  0.00    +0.038 A 
ATOM     27  C   UNL     1       1.176  -2.614   1.678  0.00  0.00    -0.017 A 
ATOM     28  C   UNL     1       0.529  -2.193   0.527  0.00  0.00    +0.160 A 
BRANCH  25  29
ATOM     29  N   UNL     1       2.092   0.660   3.261  0.00  0.00    +0.057 N 
ATOM     30  O   UNL     1       1.977   1.842   3.035  0.00  0.00    -0.126 OA
ATOM     31  O   UNL     1       2.651   0.289   4.266  0.00  0.00    -0.126 OA
ENDBRANCH  25  29
BRANCH  23  33
ATOM     32  C   UNL     1      -0.324   0.996  -1.074  0.00  0.00    +0.277 C 
ATOM     33  O   UNL     1      -0.229  -0.415  -0.868  0.00  0.00    -0.491 OA
ENDBRANCH  23  33
BRANCH  28  34
ATOM     34  O   UNL     1       0.026  -3.108  -0.345  0.00  0.00    -0.503 OA
ATOM     35  H   UNL     1       0.651  -3.383  -1.030  0.00  0.00    +0.292 HD
ENDBRANCH  28  34
ENDBRANCH  22  27
ENDBRANCH   1  22
TORSDOF 7
