REMARK  Name = ZINC39674505
REMARK  9 active torsions:
REMARK  status: ('A' for Active; 'I' for Inactive)
REMARK    1  A    between atoms: C_1  and  C_2
REMARK    2  A    between atoms: C_4  and  C_9
REMARK    3  A    between atoms: C_5  and  C_8
REMARK    4  A    between atoms: C_9  and  C_11
REMARK    5  A    between atoms: C_9  and  N_12
REMARK    6  A    between atoms: C_13  and  C_15
REMARK    7  A    between atoms: C_26  and  C_28
REMARK    8  A    between atoms: C_31  and  O_35
REMARK    9  A    between atoms: O_35  and  C_36
REMARK                            x       y       z     vdW  Elec       q    Type
REMARK                         _______ _______ _______ _____ _____    ______ ____
ROOT
ATOM      1  C   UNL     1      -0.248   2.640  -4.308  0.00  0.00    +0.100 C 
ATOM      2  C   UNL     1      -1.458   3.469  -3.823  0.00  0.00    +0.121 C 
ATOM      3  N   UNL     1      -1.750   4.395  -4.943  0.00  0.00    -0.296 N 
ATOM      4  C   UNL     1      -1.546   3.576  -6.161  0.00  0.00    +0.115 C 
ATOM      5  C   UNL     1      -0.309   2.712  -5.843  0.00  0.00    -0.004 C 
ATOM      6  C   UNL     1      -0.478   1.314  -6.431  0.00  0.00    -0.010 C 
ATOM      7  C   UNL     1      -0.478   1.405  -7.960  0.00  0.00    -0.082 C 
ATOM      8  N   UNL     1       0.783   2.001  -8.417  0.00  0.00    +0.379 N 
ATOM      9  C   UNL     1       0.893   3.379  -7.923  0.00  0.00    -0.082 C 
ATOM     10  C   UNL     1       0.952   3.372  -6.393  0.00  0.00    -0.010 C 
ATOM     11  C   UNL     1      -2.118   5.690  -4.869  0.00  0.00    +0.247 C 
ATOM     12  O   UNL     1      -2.139   6.256  -3.794  0.00  0.00    -0.270 OA
ATOM     13  H   UNL     1       1.557   1.457  -8.067  0.00  0.00    -0.086 HD
ATOM     14  H   UNL     1       0.806   2.004  -9.425  0.00  0.00    -0.086 HD
ENDROOT
BRANCH  11  15
ATOM     15  C   UNL     1      -2.497   6.420  -6.095  0.00  0.00    +0.040 A 
ATOM     16  C   UNL     1      -2.887   5.716  -7.237  0.00  0.00    +0.036 A 
ATOM     17  C   UNL     1      -3.239   6.401  -8.380  0.00  0.00    +0.085 A 
ATOM     18  C   UNL     1      -3.208   7.791  -8.397  0.00  0.00    +0.157 A 
ATOM     19  C   UNL     1      -2.821   8.495  -7.262  0.00  0.00    +0.085 A 
ATOM     20  C   UNL     1      -2.472   7.817  -6.114  0.00  0.00    +0.036 A 
ATOM     21 CL   UNL     1      -2.782  10.230  -7.290  0.00  0.00    -0.080 Cl
ATOM     22 CL   UNL     1      -3.724   5.527  -9.800  0.00  0.00    -0.080 Cl
BRANCH  18  23
ATOM     23  O   UNL     1      -3.555   8.462  -9.525  0.00  0.00    -0.492 OA
ATOM     24  C   UNL     1      -4.932   8.816  -9.671  0.00  0.00    +0.277 C 
ENDBRANCH  18  23
ENDBRANCH  11  15
BRANCH   1  26
ATOM     25  N   UNL     1       0.731   0.445  -3.724  0.00  0.00    -0.309 N 
ATOM     26  C   UNL     1      -0.371   1.212  -3.844  0.00  0.00    +0.219 C 
ATOM     27  O   UNL     1      -1.461   0.752  -3.580  0.00  0.00    -0.275 OA
ATOM     28  H   UNL     1       1.604   0.813  -3.935  0.00  0.00    +0.149 HD
BRANCH  25  29
ATOM     29  C   UNL     1       0.612  -0.944  -3.273  0.00  0.00    +0.100 C 
ATOM     30  C   UNL     1       0.472  -0.975  -1.750  0.00  0.00    +0.033 C 
BRANCH  29  33
ATOM     31  C   UNL     1       3.713  -0.051  -3.874  0.00  0.00    +0.039 C 
ATOM     32  C   UNL     1       3.290  -1.416  -3.326  0.00  0.00    +0.154 C 
ATOM     33  C   UNL     1       1.843  -1.712  -3.680  0.00  0.00    -0.001 C 
ATOM     34  C   UNL     1       1.915  -2.810  -4.435  0.00  0.00    +0.063 C 
ATOM     35  N   UNL     1       3.198  -3.210  -4.580  0.00  0.00    -0.159 NA
ATOM     36  N   UNL     1       4.027  -2.499  -3.999  0.00  0.00    -0.180 NA
ATOM     37  C   UNL     1       0.727  -3.510  -5.042  0.00  0.00    +0.067 C 
ENDBRANCH  29  33
ENDBRANCH  25  29
ENDBRANCH   1  26
TORSDOF 5
