REMARK  Name = ZINC63557354
REMARK  8 active torsions:
REMARK  status: ('A' for Active; 'I' for Inactive)
REMARK    1  A    between atoms: C_1  and  C_2
REMARK    2  A    between atoms: C_8  and  C_11
REMARK    3  A    between atoms: C_11  and  C_12
REMARK    4  A    between atoms: C_12  and  N_13
REMARK    5  A    between atoms: C_15  and  C_20
REMARK    6  A    between atoms: N_22  and  C_23
REMARK    7  A    between atoms: C_29  and  O_33
REMARK    8  A    between atoms: O_33  and  C_34
REMARK                            x       y       z     vdW  Elec       q    Type
REMARK                         _______ _______ _______ _____ _____    ______ ____
ROOT
ATOM      1  N   UNL     1      -1.377  -2.600   5.613  0.00  0.00    -0.300 N 
ATOM      2  C   UNL     1      -1.248  -3.644   6.637  0.00  0.00    +0.121 C 
ATOM      3  C   UNL     1      -0.861  -2.901   7.936  0.00  0.00    +0.101 C 
ATOM      4  C   UNL     1      -1.441  -1.492   7.677  0.00  0.00    +0.110 C 
ATOM      5  C   UNL     1      -1.487  -1.381   6.169  0.00  0.00    +0.216 C 
ATOM      6  O   UNL     1      -1.608  -0.345   5.552  0.00  0.00    -0.276 OA
ENDROOT
BRANCH   3   7
ATOM      7  C   UNL     1      -1.510  -3.541   9.136  0.00  0.00    +0.220 C 
ATOM      8  O   UNL     1      -2.226  -4.509   8.994  0.00  0.00    -0.275 OA
ATOM      9  N   UNL     1      -1.294  -3.036  10.367  0.00  0.00    -0.288 N 
ATOM     10  H   UNL     1      -0.722  -2.262  10.480  0.00  0.00    +0.151 HD
BRANCH   9  11
ATOM     11  C   UNL     1      -1.925  -3.658  11.534  0.00  0.00    +0.224 C 
ATOM     12  N   UNL     1      -1.790  -2.807  12.724  0.00  0.00    -0.316 N 
ATOM     13  C   UNL     1      -1.075  -3.323  13.808  0.00  0.00    +0.043 A 
ATOM     14  C   UNL     1      -0.842  -2.658  15.024  0.00  0.00    +0.027 A 
ATOM     15  C   UNL     1      -0.124  -3.251  16.036  0.00  0.00    +0.047 A 
ATOM     16  C   UNL     1       0.397  -4.528  15.890  0.00  0.00    +0.121 A 
ATOM     17  C   UNL     1       0.181  -5.207  14.697  0.00  0.00    +0.062 A 
ATOM     18  C   UNL     1      -0.539  -4.608  13.688  0.00  0.00    +0.035 A 
ATOM     19  S   UNL     1      -1.006  -5.159  12.062  0.00  0.00    -0.082 S 
ATOM     20  H   UNL     1      -2.182  -1.920  12.756  0.00  0.00    +0.149 HD
BRANCH  16  21
ATOM     21  O   UNL     1       1.106  -5.106  16.896  0.00  0.00    -0.495 OA
ATOM     22  C   UNL     1       1.281  -4.338  18.089  0.00  0.00    +0.277 C 
ENDBRANCH  16  21
ENDBRANCH   9  11
ENDBRANCH   3   7
BRANCH   1  23
ATOM     23  C   UNL     1      -1.379  -2.854   4.170  0.00  0.00    +0.112 C 
BRANCH  23  24
ATOM     24  C   UNL     1       0.055  -2.799   3.641  0.00  0.00    +0.052 C 
BRANCH  24  32
ATOM     25  C   UNL     1      -0.018   1.503   0.010  0.00  0.00    +0.044 C 
ATOM     26  C   UNL     1       0.002  -0.004   0.002  0.00  0.00    -0.050 A 
ATOM     27  C   UNL     1       0.005  -0.680  -1.226  0.00  0.00    +0.005 A 
ATOM     28  C   UNL     1       0.023  -2.026  -1.317  0.00  0.00    +0.026 A 
ATOM     29  C   UNL     1       0.039  -2.826  -0.141  0.00  0.00    +0.043 A 
ATOM     30  N   UNL     1       0.057  -4.126   0.030  0.00  0.00    -0.380 N 
ATOM     31  C   UNL     1       0.067  -4.408   1.470  0.00  0.00    +0.144 C 
ATOM     32  C   UNL     1       0.052  -3.060   2.156  0.00  0.00    -0.040 C 
ATOM     33  C   UNL     1       0.036  -2.137   1.168  0.00  0.00    -0.001 A 
ATOM     34  C   UNL     1       0.022  -0.669   1.180  0.00  0.00    +0.013 A 
ATOM     35  H   UNL     1       0.062  -4.790  -0.677  0.00  0.00    +0.160 HD
ENDBRANCH  24  32
ENDBRANCH  23  24
ENDBRANCH   1  23
TORSDOF 6
