REMARK  Name = ZINC63150216
REMARK  5 active torsions:
REMARK  status: ('A' for Active; 'I' for Inactive)
REMARK    1  A    between atoms: C_7  and  C_10
REMARK    2  A    between atoms: N_12  and  C_13
REMARK    3  A    between atoms: C_16  and  N_19
REMARK    4  A    between atoms: N_19  and  S_20
REMARK    5  A    between atoms: S_20  and  C_23
REMARK                            x       y       z     vdW  Elec       q    Type
REMARK                         _______ _______ _______ _____ _____    ______ ____
ROOT
ATOM      1  C   UNL     1      -0.056  -5.289  -0.449  0.00  0.00    +0.034 A 
ATOM      2  C   UNL     1      -1.431  -5.103  -0.525  0.00  0.00    +0.025 A 
ATOM      3  C   UNL     1      -2.277  -6.192  -0.503  0.00  0.00    +0.026 A 
ATOM      4  C   UNL     1      -1.755  -7.476  -0.404  0.00  0.00    +0.048 A 
ATOM      5  C   UNL     1      -0.380  -7.662  -0.328  0.00  0.00    +0.026 A 
ATOM      6  C   UNL     1       0.467  -6.573  -0.357  0.00  0.00    +0.025 A 
ENDROOT
BRANCH   1   9
ATOM      7  C   UNL     1       1.994  -4.269  -1.095  0.00  0.00    +0.247 C 
ATOM      8  O   UNL     1       2.361  -5.331  -1.564  0.00  0.00    -0.270 OA
ATOM      9  N   UNL     1       0.802  -4.184  -0.472  0.00  0.00    -0.282 N 
ATOM     10  H   UNL     1       0.539  -3.357  -0.039  0.00  0.00    +0.155 HD
BRANCH   7  17
ATOM     11  C   UNL     1       6.097  -3.596  -2.979  0.00  0.00    +0.001 A 
ATOM     12  C   UNL     1       6.594  -2.286  -2.878  0.00  0.00    +0.002 A 
ATOM     13  C   UNL     1       5.899  -1.303  -2.265  0.00  0.00    +0.026 A 
ATOM     14  C   UNL     1       4.583  -1.612  -1.685  0.00  0.00    +0.043 A 
ATOM     15  N   UNL     1       3.716  -0.873  -1.051  0.00  0.00    -0.380 N 
ATOM     16  C   UNL     1       2.556  -1.694  -0.688  0.00  0.00    +0.154 C 
ATOM     17  C   UNL     1       2.849  -3.084  -1.208  0.00  0.00    +0.043 C 
ATOM     18  C   UNL     1       4.086  -3.004  -1.809  0.00  0.00    +0.008 A 
ATOM     19  C   UNL     1       4.898  -3.958  -2.473  0.00  0.00    +0.010 A 
ATOM     20  H   UNL     1       3.821   0.071  -0.851  0.00  0.00    +0.160 HD
ENDBRANCH   7  17
ENDBRANCH   1   9
BRANCH   4  21
ATOM     21  N   UNL     1      -2.612  -8.580  -0.381  0.00  0.00    -0.216 N 
ATOM     22  H   UNL     1      -3.403  -8.568   0.180  0.00  0.00    +0.174 HD
BRANCH  21  23
ATOM     23  S   UNL     1      -2.278  -9.908  -1.313  0.00  0.00    +0.072 S 
ATOM     24  O   UNL     1      -0.928 -10.262  -1.045  0.00  0.00    -0.150 OA
ATOM     25  O   UNL     1      -3.355 -10.816  -1.127  0.00  0.00    -0.150 OA
BRANCH  23  26
ATOM     26  C   UNL     1      -2.339  -9.392  -2.997  0.00  0.00    +0.112 A 
ATOM     27  C   UNL     1      -3.551  -9.350  -3.661  0.00  0.00    +0.032 A 
ATOM     28  C   UNL     1      -3.607  -8.945  -4.982  0.00  0.00    +0.051 A 
ATOM     29  C   UNL     1      -2.443  -8.582  -5.639  0.00  0.00    +0.162 A 
ATOM     30  C   UNL     1      -1.227  -8.624  -4.972  0.00  0.00    +0.164 A 
ATOM     31  C   UNL     1      -1.175  -9.025  -3.648  0.00  0.00    +0.078 A 
ATOM     32  O   UNL     1      -0.086  -8.263  -5.628  0.00  0.00    -0.488 OA
ATOM     33  C   UNL     1       0.338  -9.139  -6.674  0.00  0.00    +0.232 C 
ATOM     34  C   UNL     1      -0.380  -8.813  -7.974  0.00  0.00    +0.082 C 
ATOM     35  C   UNL     1      -1.877  -9.063  -7.888  0.00  0.00    +0.232 C 
ATOM     36  O   UNL     1      -2.484  -8.180  -6.942  0.00  0.00    -0.488 OA
ENDBRANCH  23  26
ENDBRANCH  21  23
ENDBRANCH   4  21
TORSDOF 5
