REMARK  Name = ZINC46877036
REMARK  7 active torsions:
REMARK  status: ('A' for Active; 'I' for Inactive)
REMARK    1  A    between atoms: C_1  and  C_2
REMARK    2  A    between atoms: N_10  and  C_28
REMARK    3  A    between atoms: C_11  and  S_13
REMARK    4  A    between atoms: S_13  and  C_14
REMARK    5  A    between atoms: C_14  and  C_15
REMARK    6  A    between atoms: C_21  and  C_27
REMARK    7  A    between atoms: C_22  and  C_26
REMARK                            x       y       z     vdW  Elec       q    Type
REMARK                         _______ _______ _______ _____ _____    ______ ____
ROOT
ATOM      1  S   UNL     1       0.097  -6.565   0.985  0.00  0.00    -0.080 S 
ENDROOT
BRANCH   1  12
ATOM      2  C   UNL     1      -0.018   1.503   0.010  0.00  0.00    +0.044 C 
ATOM      3  C   UNL     1       0.002  -0.004   0.002  0.00  0.00    -0.050 A 
ATOM      4  C   UNL     1       0.006  -0.684  -1.209  0.00  0.00    +0.005 A 
ATOM      5  C   UNL     1       0.024  -2.050  -1.248  0.00  0.00    +0.029 A 
ATOM      6  C   UNL     1       0.039  -2.776  -0.054  0.00  0.00    +0.079 A 
ATOM      7  C   UNL     1       0.036  -2.081   1.176  0.00  0.00    +0.065 A 
ATOM      8  C   UNL     1       0.023  -0.687   1.187  0.00  0.00    +0.018 A 
ATOM      9  C   UNL     1       0.053  -2.866   2.418  0.00  0.00    +0.262 A 
ATOM     10  O   UNL     1       0.051  -2.325   3.508  0.00  0.00    -0.267 OA
ATOM     11  N   UNL     1       0.071  -4.215   2.304  0.00  0.00    -0.290 N 
ATOM     12  C   UNL     1       0.072  -4.805   1.072  0.00  0.00    +0.172 A 
ATOM     13  N   UNL     1       0.057  -4.125  -0.047  0.00  0.00    -0.223 NA
ATOM     14  C   UNL     1       0.089  -5.046   3.510  0.00  0.00    +0.154 C 
ENDBRANCH   1  12
BRANCH   1  15
ATOM     15  C   UNL     1       0.092  -6.916  -0.795  0.00  0.00    +0.151 C 
BRANCH  15  16
ATOM     16  C   UNL     1       0.112  -8.407  -1.013  0.00  0.00    +0.121 A 
ATOM     17  N   UNL     1       0.117  -8.896  -2.280  0.00  0.00    -0.310 N 
ATOM     18  H   UNL     1       0.108  -8.278  -3.027  0.00  0.00    +0.170 HD
ATOM     19  C   UNL     1       0.135 -10.220  -2.519  0.00  0.00    +0.260 A 
ATOM     20  O   UNL     1       0.141 -10.643  -3.663  0.00  0.00    -0.267 OA
ATOM     21  C   UNL     1       0.148 -11.126  -1.409  0.00  0.00    +0.075 A 
ATOM     22  C   UNL     1       0.168 -12.576  -1.404  0.00  0.00    -0.026 A 
ATOM     23  C   UNL     1       0.178 -13.228  -0.230  0.00  0.00    -0.008 A 
ATOM     24  S   UNL     1       0.160 -11.912   0.973  0.00  0.00    -0.073 S 
ATOM     25  C   UNL     1       0.140 -10.527  -0.136  0.00  0.00    +0.116 A 
ATOM     26  N   UNL     1       0.128  -9.206   0.020  0.00  0.00    -0.226 NA
ATOM     27  C   UNL     1       0.198 -14.715   0.013  0.00  0.00    +0.052 C 
ATOM     28  C   UNL     1       0.177 -13.343  -2.701  0.00  0.00    +0.045 C 
ENDBRANCH  15  16
ENDBRANCH   1  15
TORSDOF 3
