REMARK  Name = ZINC22409906
REMARK  6 active torsions:
REMARK  status: ('A' for Active; 'I' for Inactive)
REMARK    1  A    between atoms: N_5  and  S_8
REMARK    2  A    between atoms: S_8  and  N_11
REMARK    3  A    between atoms: N_11  and  C_12
REMARK    4  A    between atoms: C_15  and  N_18
REMARK    5  A    between atoms: N_18  and  S_19
REMARK    6  A    between atoms: S_19  and  N_22
REMARK                            x       y       z     vdW  Elec       q    Type
REMARK                         _______ _______ _______ _____ _____    ______ ____
ROOT
ATOM      1  C   UNL     1      -1.191  -2.532  -0.300  0.00  0.00    +0.078 C 
ATOM      2  C   UNL     1      -0.179  -1.590   0.355  0.00  0.00    +0.022 C 
ATOM      3  C   UNL     1       0.476  -2.292   1.546  0.00  0.00    +0.022 C 
ATOM      4  C   UNL     1       1.193  -3.554   1.063  0.00  0.00    +0.078 C 
ATOM      5  C   UNL     1       0.181  -4.497   0.408  0.00  0.00    +0.022 C 
ATOM      6  C   UNL     1      -0.474  -3.795  -0.783  0.00  0.00    +0.022 C 
ENDROOT
BRANCH   1   7
ATOM      7  N   UNL     1      -1.818  -1.860  -1.440  0.00  0.00    -0.177 NA
ATOM      8  H   UNL     1      -1.250  -1.711  -2.371  0.00  0.00    +0.149 HD
BRANCH   7   9
ATOM      9  S   UNL     1      -3.281  -1.106  -1.256  0.00  0.00    +0.097 S 
ATOM     10  O   UNL     1      -4.134  -2.031  -0.596  0.00  0.00    -0.141 OA
ATOM     11  O   UNL     1      -3.606  -0.535  -2.516  0.00  0.00    -0.141 OA
BRANCH   9  16
ATOM     12  C   UNL     1      -5.309   1.576   0.893  0.00  0.00    +0.001 C 
ATOM     13  C   UNL     1      -4.226   2.608   0.774  0.00  0.00    +0.001 C 
ATOM     14  C   UNL     1      -3.650   2.433  -0.627  0.00  0.00    +0.017 C 
ATOM     15  C   UNL     1      -2.545   1.479  -0.708  0.00  0.00    +0.110 C 
ATOM     16  N   UNL     1      -3.052   0.157  -0.209  0.00  0.00    -0.167 NA
ATOM     17  C   UNL     1      -3.336   0.005   1.189  0.00  0.00    +0.110 C 
ATOM     18  C   UNL     1      -4.789   0.315   1.627  0.00  0.00    +0.017 C 
ENDBRANCH   9  16
ENDBRANCH   7   9
ENDBRANCH   1   7
BRANCH   4  19
ATOM     19  N   UNL     1       2.221  -3.188   0.086  0.00  0.00    -0.177 NA
ATOM     20  H   UNL     1       1.995  -3.222  -0.990  0.00  0.00    +0.149 HD
BRANCH  19  21
ATOM     21  S   UNL     1       3.787  -2.964   0.577  0.00  0.00    +0.097 S 
ATOM     22  O   UNL     1       4.537  -2.649  -0.588  0.00  0.00    -0.141 OA
ATOM     23  O   UNL     1       3.739  -2.105   1.708  0.00  0.00    -0.141 OA
BRANCH  21  24
ATOM     24  N   UNL     1       4.345  -4.427   1.117  0.00  0.00    -0.167 NA
ATOM     25  C   UNL     1       4.177  -4.760   2.514  0.00  0.00    +0.110 C 
ATOM     26  C   UNL     1       5.393  -4.261   3.323  0.00  0.00    +0.017 C 
ATOM     27  C   UNL     1       6.578  -5.078   3.019  0.00  0.00    +0.001 C 
ATOM     28  C   UNL     1       7.034  -5.007   1.565  0.00  0.00    +0.001 C 
ATOM     29  C   UNL     1       6.252  -6.004   0.746  0.00  0.00    +0.017 C 
ATOM     30  C   UNL     1       4.998  -5.335   0.154  0.00  0.00    +0.110 C 
ENDBRANCH  21  24
ENDBRANCH  19  21
ENDBRANCH   4  19
TORSDOF 6
