REMARK  Name = ZINC59640502
REMARK  10 active torsions:
REMARK  status: ('A' for Active; 'I' for Inactive)
REMARK    1  A    between atoms: C_1  and  C_2
REMARK    2  A    between atoms: C_4  and  C_18
REMARK    3  A    between atoms: C_5  and  C_17
REMARK    4  A    between atoms: N_6  and  C_7
REMARK    5  A    between atoms: C_10  and  O_13
REMARK    6  A    between atoms: O_13  and  C_14
REMARK    7  A    between atoms: C_14  and  C_16
REMARK    8  A    between atoms: N_19  and  N_20
REMARK    9  A    between atoms: C_25  and  N_27
REMARK   10  A    between atoms: N_27  and  C_28
REMARK                            x       y       z     vdW  Elec       q    Type
REMARK                         _______ _______ _______ _____ _____    ______ ____
ROOT
ATOM      1  C   UNL     1       0.229   1.443   0.008  0.00  0.00    +0.064 C 
ATOM      2  C   UNL     1       0.139  -0.061   0.012  0.00  0.00    +0.022 A 
ATOM      3  C   UNL     1       0.125  -0.848  -1.081  0.00  0.00    +0.032 A 
ATOM      4  C   UNL     1       0.029  -2.229  -0.601  0.00  0.00    +0.016 A 
ATOM      5  C   UNL     1      -0.007  -2.160   0.762  0.00  0.00    +0.030 A 
ATOM      6  N   UNL     1       0.065  -0.850   1.124  0.00  0.00    -0.317 N 
ATOM      7  C   UNL     1      -0.106  -3.333   1.703  0.00  0.00    +0.064 C 
ENDROOT
BRANCH   6   8
ATOM      8  C   UNL     1       0.061  -0.379   2.445  0.00  0.00    +0.047 A 
ATOM      9  C   UNL     1       1.117  -0.683   3.294  0.00  0.00    +0.030 A 
ATOM     10  C   UNL     1       1.112  -0.219   4.595  0.00  0.00    +0.048 A 
ATOM     11  C   UNL     1       0.052   0.551   5.053  0.00  0.00    +0.132 A 
ATOM     12  C   UNL     1      -1.003   0.855   4.205  0.00  0.00    +0.048 A 
ATOM     13  C   UNL     1      -0.996   0.396   2.903  0.00  0.00    +0.030 A 
BRANCH  11  14
ATOM     14  O   UNL     1       0.048   1.007   6.334  0.00  0.00    -0.426 OA
BRANCH  14  15
ATOM     15  C   UNL     1       0.943   1.950   6.670  0.00  0.00    +0.309 C 
ATOM     16  O   UNL     1       1.649   2.442   5.823  0.00  0.00    -0.251 OA
ATOM     17  C   UNL     1       1.065   2.394   8.105  0.00  0.00    +0.136 C 
ENDBRANCH  14  15
ENDBRANCH  11  14
ENDBRANCH   6   8
BRANCH   4  18
ATOM     18  C   UNL     1      -0.019  -3.450  -1.427  0.00  0.00    +0.140 C 
ATOM     19  N   UNL     1      -0.106  -4.614  -0.859  0.00  0.00    -0.187 NA
BRANCH  19  20
ATOM     20  N   UNL     1      -0.152  -5.774  -1.643  0.00  0.00    -0.205 N 
ATOM     21  C   UNL     1      -0.244  -7.016  -1.037  0.00  0.00    +0.237 A 
ATOM     22  N   UNL     1      -0.293  -7.088   0.285  0.00  0.00    -0.219 NA
ATOM     23  C   UNL     1      -0.381  -8.257   0.901  0.00  0.00    +0.156 A 
ATOM     24  C   UNL     1      -0.423  -9.417   0.149  0.00  0.00    +0.181 A 
ATOM     25  C   UNL     1      -0.369  -9.309  -1.244  0.00  0.00    +0.159 A 
ATOM     26  N   UNL     1      -0.286  -8.103  -1.795  0.00  0.00    -0.195 NA
ATOM     27  F   UNL     1      -0.512 -10.625   0.746  0.00  0.00    -0.200 F 
ATOM     28  H   UNL     1      -0.119  -5.708  -2.610  0.00  0.00    +0.177 HD
BRANCH  25  29
ATOM     29  N   UNL     1      -0.407 -10.444  -2.040  0.00  0.00    -0.330 N 
ATOM     30  C   UNL     1      -0.351 -10.319  -3.498  0.00  0.00    +0.127 C 
ATOM     31  H   UNL     1      -0.472 -11.321  -1.630  0.00  0.00    +0.147 HD
ENDBRANCH  25  29
ENDBRANCH  19  20
ENDBRANCH   4  18
TORSDOF 6
