REMARK  Name = ZINC45632353
REMARK  8 active torsions:
REMARK  status: ('A' for Active; 'I' for Inactive)
REMARK    1  A    between atoms: C_1  and  N_2
REMARK    2  A    between atoms: C_3  and  C_5
REMARK    3  A    between atoms: C_16  and  C_18
REMARK    4  A    between atoms: C_18  and  O_19
REMARK    5  A    between atoms: O_19  and  C_20
REMARK    6  A    between atoms: C_20  and  C_22
REMARK    7  A    between atoms: C_22  and  N_23
REMARK    8  A    between atoms: C_24  and  C_26
REMARK                            x       y       z     vdW  Elec       q    Type
REMARK                         _______ _______ _______ _____ _____    ______ ____
ROOT
ATOM      1  C   UNL     1      -1.598  -6.441  -0.681  0.00  0.00    +0.328 C 
ENDROOT
BRANCH   1  12
ATOM      2  C   UNL     1       0.376  -3.965  -3.340  0.00  0.00    +0.276 C 
ATOM      3  C   UNL     1       0.298  -4.777  -2.039  0.00  0.00    +0.168 C 
ATOM      4  N   UNL     1      -0.754  -4.175  -1.201  0.00  0.00    -0.261 N 
ATOM      5  C   UNL     1      -0.815  -2.772  -1.138  0.00  0.00    +0.078 A 
ATOM      6  C   UNL     1      -1.581  -2.154  -0.162  0.00  0.00    +0.027 A 
ATOM      7  C   UNL     1      -1.641  -0.774  -0.106  0.00  0.00    +0.002 A 
ATOM      8  C   UNL     1      -0.939  -0.012  -1.022  0.00  0.00    +0.004 A 
ATOM      9  C   UNL     1      -0.172  -0.624  -1.996  0.00  0.00    +0.047 A 
ATOM     10  C   UNL     1      -0.105  -2.008  -2.059  0.00  0.00    +0.143 A 
ATOM     11  O   UNL     1       0.655  -2.600  -3.018  0.00  0.00    -0.476 OA
ATOM     12  C   UNL     1      -1.627  -4.943  -0.520  0.00  0.00    +0.258 C 
ATOM     13  O   UNL     1      -2.436  -4.428   0.224  0.00  0.00    -0.272 OA
BRANCH   2  16
ATOM     14  C   UNL     1       2.446  -6.291  -5.567  0.00  0.00    +0.128 C 
ATOM     15  N   UNL     1       1.377  -5.758  -4.719  0.00  0.00    -0.315 N 
ATOM     16  C   UNL     1       1.476  -4.513  -4.212  0.00  0.00    +0.255 C 
ATOM     17  O   UNL     1       2.450  -3.834  -4.458  0.00  0.00    -0.272 OA
ATOM     18  H   UNL     1       0.597  -6.301  -4.522  0.00  0.00    +0.148 HD
ENDBRANCH   2  16
ENDBRANCH   1  12
BRANCH   1  19
ATOM     19  O   UNL     1      -2.684  -7.019   0.046  0.00  0.00    -0.454 OA
BRANCH  19  20
ATOM     20  C   UNL     1      -2.802  -8.355   0.006  0.00  0.00    +0.325 C 
ATOM     21  O   UNL     1      -2.009  -9.013  -0.627  0.00  0.00    -0.249 OA
BRANCH  20  22
ATOM     22  C   UNL     1      -3.922  -9.036   0.749  0.00  0.00    +0.224 C 
BRANCH  22  23
ATOM     23  N   UNL     1      -3.833 -10.485   0.548  0.00  0.00    -0.304 N 
ATOM     24  C   UNL     1      -4.737 -11.302   1.122  0.00  0.00    +0.220 C 
ATOM     25  O   UNL     1      -5.625 -10.839   1.805  0.00  0.00    -0.275 OA
ATOM     26  H   UNL     1      -3.122 -10.855   0.001  0.00  0.00    +0.149 HD
BRANCH  24  27
ATOM     27  C   UNL     1      -4.645 -12.792   0.915  0.00  0.00    +0.048 C 
ATOM     28  C   UNL     1      -3.301 -13.298   1.444  0.00  0.00    +0.019 C 
ATOM     29  C   UNL     1      -3.207 -14.810   1.235  0.00  0.00    -0.009 C 
ATOM     30  C   UNL     1      -4.345 -15.501   1.989  0.00  0.00    +0.007 C 
ATOM     31  C   UNL     1      -5.688 -14.996   1.460  0.00  0.00    -0.009 C 
ATOM     32  C   UNL     1      -5.782 -13.483   1.670  0.00  0.00    +0.019 C 
ATOM     33  C   UNL     1      -5.800 -15.311  -0.033  0.00  0.00    +0.007 C 
ATOM     34  C   UNL     1      -4.663 -14.620  -0.787  0.00  0.00    -0.009 C 
ATOM     35  C   UNL     1      -3.319 -15.126  -0.258  0.00  0.00    +0.007 C 
ATOM     36  C   UNL     1      -4.757 -13.108  -0.577  0.00  0.00    +0.019 C 
ENDBRANCH  24  27
ENDBRANCH  22  23
ENDBRANCH  20  22
ENDBRANCH  19  20
ENDBRANCH   1  19
TORSDOF 7
