REMARK  Name = ZINC00320499
REMARK  6 active torsions:
REMARK  status: ('A' for Active; 'I' for Inactive)
REMARK    1  A    between atoms: C_1  and  C_2
REMARK    2  A    between atoms: C_7  and  C_20
REMARK    3  A    between atoms: C_8  and  N_11
REMARK    4  A    between atoms: N_11  and  C_12
REMARK    5  A    between atoms: C_13  and  C_19
REMARK    6  A    between atoms: C_17  and  C_18
REMARK                            x       y       z     vdW  Elec       q    Type
REMARK                         _______ _______ _______ _____ _____    ______ ____
ROOT
ATOM      1  C   UNL     1      -0.520  -0.167  -4.469  0.00  0.00    +0.045 C 
ATOM      2  C   UNL     1      -1.479   0.678  -3.671  0.00  0.00    -0.034 A 
ATOM      3  C   UNL     1      -1.994   1.864  -4.226  0.00  0.00    +0.008 A 
ATOM      4  C   UNL     1      -2.859   2.626  -3.506  0.00  0.00    +0.047 A 
ATOM      5  C   UNL     1      -3.228   2.215  -2.207  0.00  0.00    +0.140 A 
ATOM      6  N   UNL     1      -4.033   2.753  -1.306  0.00  0.00    -0.224 NA
ATOM      7  C   UNL     1      -4.056   1.973  -0.209  0.00  0.00    +0.130 A 
ATOM      8  C   UNL     1      -3.225   0.894  -0.435  0.00  0.00    +0.137 A 
ATOM      9  N   UNL     1      -2.711   1.048  -1.693  0.00  0.00    -0.287 N 
ATOM     10  C   UNL     1      -1.837   0.295  -2.430  0.00  0.00    +0.097 A 
ENDROOT
BRANCH   7  11
ATOM     11  C   UNL     1      -4.834   2.228   1.023  0.00  0.00    +0.093 A 
ATOM     12  C   UNL     1      -5.197   3.534   1.356  0.00  0.00    +0.030 A 
ATOM     13  C   UNL     1      -5.930   3.755   2.507  0.00  0.00    +0.004 A 
ATOM     14  C   UNL     1      -6.268   2.665   3.298  0.00  0.00    +0.020 A 
ATOM     15  C   UNL     1      -5.871   1.398   2.913  0.00  0.00    +0.111 A 
ATOM     16  N   UNL     1      -5.178   1.213   1.808  0.00  0.00    -0.253 NA
ENDBRANCH   7  11
BRANCH   8  17
ATOM     17  N   UNL     1      -2.964  -0.152   0.446  0.00  0.00    -0.298 N 
ATOM     18  H   UNL     1      -3.441  -0.207   1.289  0.00  0.00    +0.154 HD
BRANCH  17  19
ATOM     19  C   UNL     1      -2.016  -1.123   0.116  0.00  0.00    +0.038 A 
ATOM     20  C   UNL     1      -2.426  -2.387  -0.290  0.00  0.00    -0.029 A 
ATOM     21  C   UNL     1      -1.485  -3.342  -0.622  0.00  0.00    +0.005 A 
ATOM     22  C   UNL     1      -0.137  -3.046  -0.537  0.00  0.00    +0.001 A 
ATOM     23  C   UNL     1       0.275  -1.791  -0.128  0.00  0.00    +0.005 A 
ATOM     24  C   UNL     1      -0.660  -0.829   0.200  0.00  0.00    -0.029 A 
ATOM     25  C   UNL     1      -0.211   0.538   0.646  0.00  0.00    +0.045 C 
ATOM     26  C   UNL     1      -3.895  -2.712  -0.376  0.00  0.00    +0.045 C 
ENDBRANCH  17  19
ENDBRANCH   8  17
TORSDOF 3
