REMARK  Name = ZINC67145810
REMARK  8 active torsions:
REMARK  status: ('A' for Active; 'I' for Inactive)
REMARK    1  A    between atoms: C_1  and  C_2
REMARK    2  A    between atoms: C_3  and  C_17
REMARK    3  A    between atoms: N_6  and  C_7
REMARK    4  A    between atoms: N_19  and  C_20
REMARK    5  A    between atoms: C_20  and  C_22
REMARK    6  A    between atoms: C_20  and  C_23
REMARK    7  A    between atoms: C_23  and  N_24
REMARK    8  A    between atoms: C_28  and  C_31
REMARK                            x       y       z     vdW  Elec       q    Type
REMARK                         _______ _______ _______ _____ _____    ______ ____
ROOT
ATOM      1  C   UNL     1      -0.353   1.476   0.049  0.00  0.00    +0.068 C 
ATOM      2  C   UNL     1      -0.142  -0.015   0.019  0.00  0.00    +0.074 A 
ATOM      3  C   UNL     1      -0.169  -0.820  -1.085  0.00  0.00    +0.170 A 
ATOM      4  N   UNL     1       0.065  -2.085  -0.696  0.00  0.00    -0.124 NA
ATOM      5  N   UNL     1       0.236  -2.119   0.579  0.00  0.00    -0.060 NA
ATOM      6  N   UNL     1       0.118  -0.814   1.077  0.00  0.00    -0.214 N 
ENDROOT
BRANCH   6   7
ATOM      7  C   UNL     1       0.241  -0.415   2.413  0.00  0.00    +0.093 A 
ATOM      8  C   UNL     1       1.022   0.670   2.744  0.00  0.00    +0.030 A 
ATOM      9  C   UNL     1       1.153   1.077   4.069  0.00  0.00    +0.003 A 
ATOM     10  C   UNL     1       0.515   0.413   5.072  0.00  0.00    +0.010 A 
ATOM     11  C   UNL     1      -0.290  -0.698   4.775  0.00  0.00    +0.002 A 
ATOM     12  C   UNL     1      -0.437  -1.120   3.431  0.00  0.00    +0.096 A 
ATOM     13  N   UNL     1      -1.206  -2.174   3.144  0.00  0.00    -0.253 NA
ATOM     14  C   UNL     1      -1.839  -2.832   4.085  0.00  0.00    +0.111 A 
ATOM     15  C   UNL     1      -1.742  -2.467   5.426  0.00  0.00    +0.020 A 
ATOM     16  C   UNL     1      -0.963  -1.405   5.789  0.00  0.00    +0.011 A 
ENDBRANCH   6   7
BRANCH   3  17
ATOM     17  C   UNL     1      -0.415  -0.375  -2.470  0.00  0.00    +0.266 C 
ATOM     18  O   UNL     1      -0.616   0.801  -2.704  0.00  0.00    -0.268 OA
ATOM     19  N   UNL     1      -0.416  -1.272  -3.476  0.00  0.00    -0.309 N 
ATOM     20  H   UNL     1      -0.256  -2.211  -3.289  0.00  0.00    +0.149 HD
BRANCH  19  21
ATOM     21  C   UNL     1      -0.659  -0.831  -4.851  0.00  0.00    +0.054 C 
ATOM     22  C   UNL     1      -2.167  -0.763  -5.106  0.00  0.00    +0.026 C 
BRANCH  21  23
ATOM     23  C   UNL     1      -0.022  -1.823  -5.826  0.00  0.00    -0.057 C 
BRANCH  23  24
ATOM     24  N   UNL     1       1.403  -1.978  -5.505  0.00  0.00    +0.381 N 
ATOM     25  C   UNL     1       2.095  -0.703  -5.727  0.00  0.00    -0.079 C 
ATOM     26  C   UNL     1       3.563  -0.837  -5.316  0.00  0.00    -0.018 C 
ATOM     27  C   UNL     1       4.225  -1.932  -6.158  0.00  0.00    -0.001 C 
ATOM     28  C   UNL     1       3.450  -3.240  -5.976  0.00  0.00    -0.031 C 
ATOM     29  C   UNL     1       1.986  -3.018  -6.362  0.00  0.00    -0.076 C 
ATOM     30  C   UNL     1       4.056  -4.323  -6.871  0.00  0.00    +0.005 C 
ATOM     31  H   UNL     1       1.501  -2.248  -4.537  0.00  0.00    -0.082 HD
ENDBRANCH  23  24
ENDBRANCH  21  23
ENDBRANCH  19  21
ENDBRANCH   3  17
TORSDOF 5
