REMARK  Name = ZINC64541043
REMARK  7 active torsions:
REMARK  status: ('A' for Active; 'I' for Inactive)
REMARK    1  A    between atoms: C_1  and  C_2
REMARK    2  A    between atoms: C_2  and  C_3
REMARK    3  A    between atoms: C_6  and  C_9
REMARK    4  A    between atoms: C_9  and  N_10
REMARK    5  A    between atoms: C_11  and  C_13
REMARK    6  A    between atoms: C_13  and  C_14
REMARK    7  A    between atoms: C_20  and  C_22
REMARK                            x       y       z     vdW  Elec       q    Type
REMARK                         _______ _______ _______ _____ _____    ______ ____
ROOT
ATOM      1  C   UNL     1     -10.083  -0.479   0.084  0.00  0.00    +0.001 C 
ATOM      2  C   UNL     1     -10.360  -1.227  -1.222  0.00  0.00    +0.023 C 
ATOM      3  C   UNL     1     -11.786  -1.786  -1.193  0.00  0.00    +0.108 C 
ATOM      4  N   UNL     1     -12.720  -0.686  -0.919  0.00  0.00    -0.300 N 
ATOM      5  C   UNL     1     -12.492   0.155   0.265  0.00  0.00    +0.108 C 
ATOM      6  C   UNL     1     -11.059   0.692   0.219  0.00  0.00    +0.023 C 
ATOM      7  C   UNL     1     -13.765  -0.452  -1.737  0.00  0.00    +0.242 C 
ATOM      8  O   UNL     1     -13.942  -1.153  -2.710  0.00  0.00    -0.273 OA
ENDROOT
BRANCH   7   9
ATOM      9  C   UNL     1     -14.714   0.680  -1.441  0.00  0.00    +0.190 C 
ATOM     10  C   UNL     1     -15.405   0.449  -0.116  0.00  0.00    +0.016 C 
ATOM     11  C   UNL     1     -16.727   0.374  -0.391  0.00  0.00    -0.002 A 
ATOM     12  C   UNL     1     -17.908   0.164   0.456  0.00  0.00    +0.029 A 
ATOM     13  C   UNL     1     -19.132   0.137  -0.121  0.00  0.00    +0.042 A 
ATOM     14  C   UNL     1     -19.300   0.304  -1.503  0.00  0.00    +0.022 A 
ATOM     15  C   UNL     1     -18.263   0.501  -2.345  0.00  0.00    +0.027 A 
ATOM     16  C   UNL     1     -16.932   0.547  -1.847  0.00  0.00    +0.043 A 
ATOM     17  N   UNL     1     -15.779   0.724  -2.450  0.00  0.00    -0.370 N 
ATOM     18 CL   UNL     1     -20.531  -0.111   0.877  0.00  0.00    -0.084 Cl
ATOM     19  H   UNL     1     -15.652   0.859  -3.401  0.00  0.00    +0.161 HD
ENDBRANCH   7   9
BRANCH   1  20
ATOM     20  C   UNL     1      -8.648   0.051   0.073  0.00  0.00    +0.099 C 
BRANCH  20  22
ATOM     21  N   UNL     1      -6.356  -0.879   0.052  0.00  0.00    -0.311 N 
ATOM     22  C   UNL     1      -7.684  -1.107   0.063  0.00  0.00    +0.214 C 
ATOM     23  O   UNL     1      -8.104  -2.245   0.065  0.00  0.00    -0.276 OA
ATOM     24  H   UNL     1      -6.020   0.032   0.051  0.00  0.00    +0.149 HD
BRANCH  21  25
ATOM     25  C   UNL     1      -5.419  -2.005   0.043  0.00  0.00    +0.139 C 
BRANCH  25  29
ATOM     26  C   UNL     1      -1.412  -0.526   0.013  0.00  0.00    -0.048 A 
ATOM     27  C   UNL     1      -2.051  -0.766   1.215  0.00  0.00    +0.004 A 
ATOM     28  C   UNL     1      -3.348  -1.244   1.225  0.00  0.00    +0.005 A 
ATOM     29  C   UNL     1      -4.006  -1.482   0.032  0.00  0.00    -0.030 A 
ATOM     30  C   UNL     1      -3.367  -1.241  -1.170  0.00  0.00    +0.005 A 
ATOM     31  C   UNL     1      -2.072  -0.758  -1.179  0.00  0.00    +0.004 A 
BRANCH  26  33
ATOM     32  C   UNL     1      -0.019   1.526   0.010  0.00  0.00    +0.009 C 
ATOM     33  C   UNL     1       0.002  -0.004   0.002  0.00  0.00    +0.032 C 
ENDBRANCH  26  33
ENDBRANCH  25  29
ENDBRANCH  21  25
ENDBRANCH  20  22
ENDBRANCH   1  20
TORSDOF 6
