REMARK  Name = ZINC19848671
REMARK  5 active torsions:
REMARK  status: ('A' for Active; 'I' for Inactive)
REMARK    1  A    between atoms: C_10  and  C_12
REMARK    2  A    between atoms: C_12  and  N_13
REMARK    3  A    between atoms: N_13  and  C_14
REMARK    4  A    between atoms: C_14  and  C_15
REMARK    5  A    between atoms: C_18  and  O_22
REMARK                            x       y       z     vdW  Elec       q    Type
REMARK                         _______ _______ _______ _____ _____    ______ ____
ROOT
ATOM      1  N   UNL     1       5.952  -0.720   0.981  0.00  0.00    +0.383 N 
ATOM      2  H   UNL     1       5.773  -1.655   1.315  0.00  0.00    -0.085 HD
ATOM      3  H   UNL     1       6.367  -0.766   0.062  0.00  0.00    -0.085 HD
ENDROOT
BRANCH   1   4
ATOM      4  C   UNL     1       4.688   0.025   0.910  0.00  0.00    -0.058 C 
BRANCH   4  14
ATOM      5  C   UNL     1      -0.017   1.376   0.010  0.00  0.00    +0.000 A 
ATOM      6  C   UNL     1       1.173   2.080   0.002  0.00  0.00    +0.000 A 
ATOM      7  C   UNL     1       2.374   1.400  -0.015  0.00  0.00    +0.005 A 
ATOM      8  C   UNL     1       2.395   0.013  -0.024  0.00  0.00    -0.029 A 
ATOM      9  C   UNL     1       1.208  -0.688  -0.012  0.00  0.00    -0.042 A 
ATOM     10  C   UNL     1       0.002  -0.004   0.002  0.00  0.00    +0.004 A 
ATOM     11  C   UNL     1       1.180  -2.195  -0.009  0.00  0.00    +0.050 C 
ATOM     12  C   UNL     1       2.541  -2.744  -0.440  0.00  0.00    +0.086 C 
ATOM     13  N   UNL     1       3.585  -2.085   0.361  0.00  0.00    -0.311 NA
ATOM     14  C   UNL     1       3.730  -0.684  -0.048  0.00  0.00    +0.067 C 
ATOM     15  H   UNL     1       3.382  -2.155   1.347  0.00  0.00    +0.122 HD
ENDBRANCH   4  14
ENDBRANCH   1   4
BRANCH   1  16
ATOM     16  C   UNL     1       6.872  -0.039   1.901  0.00  0.00    -0.047 C 
BRANCH  16  17
ATOM     17  C   UNL     1       8.169  -0.804   1.973  0.00  0.00    -0.063 A 
ATOM     18  C   UNL     1       8.328  -1.805   2.913  0.00  0.00    +0.005 A 
ATOM     19  C   UNL     1       9.515  -2.508   2.982  0.00  0.00    +0.047 A 
ATOM     20  C   UNL     1      10.549  -2.209   2.106  0.00  0.00    +0.135 A 
ATOM     21  C   UNL     1      10.386  -1.205   1.162  0.00  0.00    +0.082 A 
ATOM     22  C   UNL     1       9.194  -0.508   1.094  0.00  0.00    +0.025 A 
ATOM     23 CL   UNL     1      11.677  -0.828   0.064  0.00  0.00    -0.080 Cl
BRANCH  20  24
ATOM     24  O   UNL     1      11.718  -2.900   2.172  0.00  0.00    -0.505 OA
ATOM     25  H   UNL     1      11.740  -3.691   1.616  0.00  0.00    +0.292 HD
ENDBRANCH  20  24
ENDBRANCH  16  17
ENDBRANCH   1  16
TORSDOF 5
