REMARK  Name = ZINC46659163
REMARK  3 active torsions:
REMARK  status: ('A' for Active; 'I' for Inactive)
REMARK    1  A    between atoms: C_4  and  C_7
REMARK    2  A    between atoms: C_7  and  N_8
REMARK    3  A    between atoms: C_14  and  C_16
REMARK                            x       y       z     vdW  Elec       q    Type
REMARK                         _______ _______ _______ _____ _____    ______ ____
ROOT
ATOM      1  N   UNL     1       3.899  -1.755   0.959  0.00  0.00    -0.295 NA
ATOM      2  C   UNL     1       3.047  -2.454   1.930  0.00  0.00    +0.103 C 
ATOM      3  C   UNL     1       3.562  -2.179   3.347  0.00  0.00    +0.123 C 
ATOM      4  N   UNL     1       4.988  -2.534   3.403  0.00  0.00    -0.295 N 
ATOM      5  C   UNL     1       5.884  -1.980   2.376  0.00  0.00    +0.123 C 
ATOM      6  C   UNL     1       5.277  -2.262   0.997  0.00  0.00    +0.103 C 
ATOM      7  C   UNL     1       5.462  -3.345   4.369  0.00  0.00    +0.247 C 
ATOM      8  O   UNL     1       4.723  -3.737   5.250  0.00  0.00    -0.270 OA
ENDROOT
BRANCH   7   9
ATOM      9  C   UNL     1       6.885  -3.757   4.358  0.00  0.00    +0.039 A 
ATOM     10  C   UNL     1       7.216  -5.115   4.489  0.00  0.00    +0.014 A 
ATOM     11  C   UNL     1       8.516  -5.519   4.481  0.00  0.00    +0.016 A 
ATOM     12  C   UNL     1       9.541  -4.573   4.342  0.00  0.00    +0.065 A 
ATOM     13  C   UNL     1       9.221  -3.196   4.209  0.00  0.00    +0.080 A 
ATOM     14  C   UNL     1       7.876  -2.800   4.213  0.00  0.00    +0.041 A 
ATOM     15  N   UNL     1      10.213  -2.304   4.077  0.00  0.00    -0.223 NA
ATOM     16  C   UNL     1      11.478  -2.695   4.069  0.00  0.00    +0.180 A 
ATOM     17  N   UNL     1      11.834  -3.985   4.191  0.00  0.00    -0.301 N 
ATOM     18  H   UNL     1      12.773  -4.225   4.180  0.00  0.00    +0.171 HD
ATOM     19  C   UNL     1      10.901  -4.952   4.330  0.00  0.00    +0.260 A 
ATOM     20  O   UNL     1      11.258  -6.242   4.452  0.00  0.00    -0.267 OA
ATOM     21  S   UNL     1      12.705  -1.514   3.897  0.00  0.00    -0.011 S 
ENDBRANCH   7   9
BRANCH   1  22
ATOM     22  C   UNL     1       3.340  -1.851  -0.396  0.00  0.00    +0.119 C 
BRANCH  22  26
ATOM     23  C   UNL     1      -0.368   0.262  -0.563  0.00  0.00    +0.000 A 
ATOM     24  C   UNL     1       0.815   0.919  -0.846  0.00  0.00    +0.000 A 
ATOM     25  C   UNL     1       2.015   0.235  -0.792  0.00  0.00    +0.005 A 
ATOM     26  C   UNL     1       2.032  -1.105  -0.454  0.00  0.00    -0.033 A 
ATOM     27  C   UNL     1       0.849  -1.762  -0.170  0.00  0.00    +0.005 A 
ATOM     28  C   UNL     1      -0.351  -1.078  -0.226  0.00  0.00    +0.000 A 
ENDBRANCH  22  26
ENDBRANCH   1  22
TORSDOF 3
