REMARK  Name = ZINC49225849
REMARK  6 active torsions:
REMARK  status: ('A' for Active; 'I' for Inactive)
REMARK    1  A    between atoms: C_1  and  C_2
REMARK    2  A    between atoms: C_7  and  N_8
REMARK    3  A    between atoms: C_9  and  C_11
REMARK    4  A    between atoms: N_13  and  C_14
REMARK    5  A    between atoms: C_14  and  C_16
REMARK    6  A    between atoms: C_14  and  C_23
REMARK                            x       y       z     vdW  Elec       q    Type
REMARK                         _______ _______ _______ _____ _____    ______ ____
ROOT
ATOM      1  C   UNL     1      -0.167   0.044   4.869  0.00  0.00    +0.300 C 
ATOM      2  O   UNL     1      -0.183   1.257   4.874  0.00  0.00    -0.265 OA
ATOM      3  N   UNL     1      -0.248  -0.636   6.030  0.00  0.00    -0.296 N 
ATOM      4  H   UNL     1      -0.235  -1.606   6.026  0.00  0.00    +0.150 HD
ENDROOT
BRANCH   1   6
ATOM      5  N   UNL     1       0.025  -0.016   2.416  0.00  0.00    -0.278 N 
ATOM      6  C   UNL     1      -0.056  -0.696   3.577  0.00  0.00    +0.303 C 
ATOM      7  O   UNL     1      -0.040  -1.910   3.572  0.00  0.00    -0.265 OA
ATOM      8  H   UNL     1       0.078   0.952   2.424  0.00  0.00    +0.155 HD
BRANCH   5  15
ATOM      9  C   UNL     1      -1.268   1.182   0.182  0.00  0.00    +0.045 C 
ATOM     10  C   UNL     1      -0.586  -0.159   0.085  0.00  0.00    -0.029 A 
ATOM     11  C   UNL     1      -0.571  -0.841  -1.116  0.00  0.00    +0.005 A 
ATOM     12  C   UNL     1       0.055  -2.071  -1.206  0.00  0.00    +0.000 A 
ATOM     13  C   UNL     1       0.667  -2.622  -0.095  0.00  0.00    +0.002 A 
ATOM     14  C   UNL     1       0.655  -1.946   1.108  0.00  0.00    +0.023 A 
ATOM     15  C   UNL     1       0.033  -0.706   1.201  0.00  0.00    +0.037 A 
ENDBRANCH   5  15
ENDBRANCH   1   6
BRANCH   3  16
ATOM     16  C   UNL     1      -0.356   0.090   7.298  0.00  0.00    +0.141 C 
BRANCH  16  17
ATOM     17  C   UNL     1       0.170  -0.772   8.417  0.00  0.00    -0.022 A 
ATOM     18  C   UNL     1      -0.103  -2.127   8.432  0.00  0.00    +0.008 A 
ATOM     19  C   UNL     1       0.380  -2.918   9.457  0.00  0.00    +0.038 A 
ATOM     20  C   UNL     1       1.137  -2.353  10.469  0.00  0.00    +0.123 A 
ATOM     21  C   UNL     1       1.410  -0.996  10.453  0.00  0.00    +0.038 A 
ATOM     22  C   UNL     1       0.930  -0.208   9.424  0.00  0.00    +0.008 A 
ATOM     23  F   UNL     1       1.609  -3.126  11.472  0.00  0.00    -0.205 F 
ENDBRANCH  16  17
BRANCH  16  24
ATOM     24  C   UNL     1      -1.801   0.428   7.562  0.00  0.00    +0.014 A 
ATOM     25  C   UNL     1      -2.333   1.567   8.067  0.00  0.00    +0.013 A 
ATOM     26  C   UNL     1      -3.703   1.656   8.223  0.00  0.00    +0.008 A 
ATOM     27  C   UNL     1      -4.475   0.601   7.866  0.00  0.00    +0.045 A 
ATOM     28  S   UNL     1      -3.257  -0.566   7.282  0.00  0.00    -0.099 S 
ENDBRANCH  16  24
ENDBRANCH   3  16
TORSDOF 5
