REMARK  Name = ZINC60015733
REMARK  15 active torsions:
REMARK  status: ('A' for Active; 'I' for Inactive)
REMARK    1  A    between atoms: C_1  and  C_2
REMARK    2  A    between atoms: C_5  and  S_8
REMARK    3  A    between atoms: S_8  and  N_11
REMARK    4  A    between atoms: N_11  and  C_12
REMARK    5  A    between atoms: C_12  and  C_14
REMARK    6  A    between atoms: C_12  and  C_18
REMARK    7  A    between atoms: C_14  and  C_15
REMARK    8  A    between atoms: C_15  and  S_16
REMARK    9  A    between atoms: S_16  and  C_17
REMARK   10  A    between atoms: N_20  and  C_21
REMARK   11  A    between atoms: C_21  and  C_23
REMARK   12  A    between atoms: C_21  and  C_24
REMARK   13  A    between atoms: C_24  and  N_25
REMARK   14  A    between atoms: C_27  and  C_34
REMARK   15  A    between atoms: C_30  and  C_33
REMARK                            x       y       z     vdW  Elec       q    Type
REMARK                         _______ _______ _______ _____ _____    ______ ____
ROOT
ATOM      1  C   UNL     1       2.579  -4.792   1.187  0.00  0.00    +0.163 C 
ENDROOT
BRANCH   1   2
ATOM      2  C   UNL     1       3.461  -6.014   1.183  0.00  0.00    +0.232 C 
ATOM      3  O   UNL     1       3.229  -6.927   0.419  0.00  0.00    -0.274 OA
ATOM      4  N   UNL     1       4.507  -6.092   2.028  0.00  0.00    -0.313 N 
ATOM      5  H   UNL     1       4.693  -5.362   2.639  0.00  0.00    +0.149 HD
BRANCH   4   6
ATOM      6  C   UNL     1       5.365  -7.280   2.025  0.00  0.00    +0.053 C 
ATOM      7  C   UNL     1       4.749  -8.356   2.921  0.00  0.00    +0.026 C 
BRANCH   6   8
ATOM      8  C   UNL     1       6.752  -6.909   2.553  0.00  0.00    -0.057 C 
BRANCH   8   9
ATOM      9  N   UNL     1       7.294  -5.793   1.766  0.00  0.00    +0.381 N 
ATOM     10  C   UNL     1       7.500  -6.229   0.380  0.00  0.00    -0.076 C 
ATOM     11  C   UNL     1       7.988  -5.049  -0.463  0.00  0.00    -0.031 C 
ATOM     12  C   UNL     1       9.308  -4.529   0.113  0.00  0.00    +0.003 C 
ATOM     13  C   UNL     1       9.098  -4.146   1.580  0.00  0.00    -0.031 C 
ATOM     14  C   UNL     1       8.570  -5.360   2.348  0.00  0.00    -0.076 C 
ATOM     15  C   UNL     1      10.430  -3.698   2.187  0.00  0.00    +0.005 C 
ATOM     16  C   UNL     1       8.204  -5.507  -1.907  0.00  0.00    +0.005 C 
ATOM     17  H   UNL     1       6.640  -5.024   1.780  0.00  0.00    -0.082 HD
ENDBRANCH   8   9
ENDBRANCH   6   8
ENDBRANCH   4   6
ENDBRANCH   1   2
BRANCH   1  18
ATOM     18  N   UNL     1       1.521  -4.950   0.185  0.00  0.00    -0.178 NA
ATOM     19  H   UNL     1       1.697  -4.736  -0.744  0.00  0.00    +0.149 HD
BRANCH  18  20
ATOM     20  S   UNL     1       0.025  -5.494   0.640  0.00  0.00    +0.059 S 
ATOM     21  O   UNL     1       0.239  -6.651   1.438  0.00  0.00    -0.153 OA
ATOM     22  O   UNL     1      -0.774  -5.516  -0.535  0.00  0.00    -0.153 OA
BRANCH  20  27
ATOM     23  C   UNL     1      -2.369  -1.314   4.274  0.00  0.00    +0.044 C 
ATOM     24  C   UNL     1      -1.771  -2.358   3.367  0.00  0.00    -0.050 A 
ATOM     25  C   UNL     1      -1.899  -2.237   1.996  0.00  0.00    +0.005 A 
ATOM     26  C   UNL     1      -1.350  -3.195   1.163  0.00  0.00    +0.029 A 
ATOM     27  C   UNL     1      -0.673  -4.273   1.702  0.00  0.00    +0.105 A 
ATOM     28  C   UNL     1      -0.545  -4.394   3.073  0.00  0.00    +0.029 A 
ATOM     29  C   UNL     1      -1.089  -3.434   3.905  0.00  0.00    +0.005 A 
ENDBRANCH  20  27
ENDBRANCH  18  20
ENDBRANCH   1  18
BRANCH   1  30
ATOM     30  C   UNL     1       3.417  -3.556   0.852  0.00  0.00    +0.040 C 
BRANCH  30  31
ATOM     31  C   UNL     1       2.543  -2.304   0.952  0.00  0.00    +0.071 C 
BRANCH  31  32
ATOM     32  S   UNL     1       3.525  -0.845   0.509  0.00  0.00    -0.164 S 
ATOM     33  C   UNL     1       2.405   0.548   0.817  0.00  0.00    +0.084 C 
ENDBRANCH  31  32
ENDBRANCH  30  31
ENDBRANCH   1  30
TORSDOF 10
