REMARK  Name = ZINC11495095
REMARK  9 active torsions:
REMARK  status: ('A' for Active; 'I' for Inactive)
REMARK    1  A    between atoms: C_1  and  C_2
REMARK    2  A    between atoms: C_3  and  C_31
REMARK    3  A    between atoms: N_4  and  C_24
REMARK    4  A    between atoms: C_5  and  N_9
REMARK    5  A    between atoms: C_6  and  C_7
REMARK    6  A    between atoms: C_10  and  C_12
REMARK    7  A    between atoms: C_12  and  S_13
REMARK    8  A    between atoms: S_13  and  C_14
REMARK    9  A    between atoms: N_18  and  C_23
REMARK                            x       y       z     vdW  Elec       q    Type
REMARK                         _______ _______ _______ _____ _____    ______ ____
ROOT
ATOM      1  C   UNL     1      -0.110   0.418   0.332  0.00  0.00    +0.047 C 
ATOM      2  C   UNL     1      -0.773   1.266   1.387  0.00  0.00    -0.010 A 
ATOM      3  C   UNL     1      -0.158   2.026   2.307  0.00  0.00    +0.027 A 
ATOM      4  N   UNL     1      -1.101   2.645   3.087  0.00  0.00    -0.300 N 
ATOM      5  C   UNL     1      -2.349   2.292   2.678  0.00  0.00    +0.128 A 
ATOM      6  C   UNL     1      -2.216   1.425   1.602  0.00  0.00    +0.095 A 
ATOM      7  C   UNL     1       1.334   2.175   2.460  0.00  0.00    +0.064 C 
ENDROOT
BRANCH   4   8
ATOM      8  C   UNL     1      -0.819   3.515   4.150  0.00  0.00    +0.048 A 
ATOM      9  C   UNL     1      -0.224   3.029   5.306  0.00  0.00    +0.029 A 
ATOM     10  C   UNL     1       0.057   3.889   6.350  0.00  0.00    +0.040 A 
ATOM     11  C   UNL     1      -0.263   5.232   6.248  0.00  0.00    +0.124 A 
ATOM     12  C   UNL     1      -0.862   5.717   5.098  0.00  0.00    +0.040 A 
ATOM     13  C   UNL     1      -1.140   4.862   4.050  0.00  0.00    +0.029 A 
ATOM     14  F   UNL     1       0.008   6.070   7.272  0.00  0.00    -0.205 F 
ENDBRANCH   4   8
BRANCH   5  15
ATOM     15  N   UNL     1      -3.544   2.726   3.234  0.00  0.00    -0.270 N 
ATOM     16  C   UNL     1      -3.735   2.647   4.566  0.00  0.00    +0.228 C 
ATOM     17  O   UNL     1      -2.825   2.301   5.290  0.00  0.00    -0.275 OA
ATOM     18  H   UNL     1      -4.241   3.086   2.665  0.00  0.00    +0.156 HD
BRANCH  16  19
ATOM     19  C   UNL     1      -5.079   2.990   5.156  0.00  0.00    +0.172 C 
BRANCH  19  20
ATOM     20  S   UNL     1      -5.017   2.788   6.954  0.00  0.00    -0.096 S 
BRANCH  20  21
ATOM     21  C   UNL     1      -6.669   3.240   7.369  0.00  0.00    +0.111 A 
ATOM     22  C   UNL     1      -7.104   3.233   8.709  0.00  0.00    +0.070 A 
ATOM     23  C   UNL     1      -6.500   2.926   9.947  0.00  0.00    +0.147 A 
ATOM     24  N   UNL     1      -7.383   3.094  10.890  0.00  0.00    -0.177 NA
ATOM     25  N   UNL     1      -8.596   3.515  10.331  0.00  0.00    -0.249 N 
ATOM     26  C   UNL     1      -8.435   3.604   8.980  0.00  0.00    +0.162 A 
ATOM     27  N   UNL     1      -9.227   3.945   7.964  0.00  0.00    -0.216 NA
ATOM     28  C   UNL     1      -8.776   3.935   6.729  0.00  0.00    +0.224 A 
ATOM     29  N   UNL     1      -7.534   3.601   6.426  0.00  0.00    -0.228 NA
ATOM     30  C   UNL     1      -9.827   3.808  11.070  0.00  0.00    +0.174 C 
ENDBRANCH  20  21
ENDBRANCH  19  20
ENDBRANCH  16  19
ENDBRANCH   5  15
BRANCH   6  31
ATOM     31  C   UNL     1      -3.272   0.809   0.856  0.00  0.00    +0.103 C 
ATOM     32  N   UNL     1      -4.110   0.321   0.265  0.00  0.00    -0.191 NA
ENDBRANCH   6  31
TORSDOF 6
