REMARK  Name = ZINC40170498
REMARK  8 active torsions:
REMARK  status: ('A' for Active; 'I' for Inactive)
REMARK    1  A    between atoms: C_1  and  C_2
REMARK    2  A    between atoms: C_11  and  C_12
REMARK    3  A    between atoms: C_15  and  S_16
REMARK    4  A    between atoms: S_16  and  C_17
REMARK    5  A    between atoms: C_17  and  C_18
REMARK    6  A    between atoms: C_18  and  C_19
REMARK    7  A    between atoms: N_21  and  C_22
REMARK    8  A    between atoms: C_23  and  C_31
REMARK                            x       y       z     vdW  Elec       q    Type
REMARK                         _______ _______ _______ _____ _____    ______ ____
ROOT
ATOM      1  C   UNL     1      -3.277   4.106   3.074  0.00  0.00    +0.107 C 
ENDROOT
BRANCH   1   2
ATOM      2  C   UNL     1      -3.566   5.119   4.152  0.00  0.00    +0.218 C 
ATOM      3  O   UNL     1      -2.981   5.058   5.213  0.00  0.00    -0.275 OA
ATOM      4  N   UNL     1      -4.474   6.091   3.938  0.00  0.00    -0.279 N 
ATOM      5  H   UNL     1      -4.942   6.139   3.090  0.00  0.00    +0.155 HD
BRANCH   4   6
ATOM      6  C   UNL     1      -4.740   7.022   4.930  0.00  0.00    +0.084 A 
ATOM      7  C   UNL     1      -5.637   8.078   4.890  0.00  0.00    +0.068 A 
ATOM      8  C   UNL     1      -5.729   8.918   6.072  0.00  0.00    -0.023 A 
ATOM      9  C   UNL     1      -4.906   8.547   7.077  0.00  0.00    -0.004 A 
ATOM     10  S   UNL     1      -4.054   7.126   6.460  0.00  0.00    -0.077 S 
ATOM     11  C   UNL     1      -4.767   9.207   8.414  0.00  0.00    +0.043 C 
ATOM     12  C   UNL     1      -5.423  10.594   8.339  0.00  0.00    +0.005 C 
ATOM     13  C   UNL     1      -6.805  10.454   7.694  0.00  0.00    +0.005 C 
ATOM     14  C   UNL     1      -6.655  10.117   6.209  0.00  0.00    +0.037 C 
BRANCH   7  15
ATOM     15  C   UNL     1      -6.459   8.338   3.704  0.00  0.00    +0.244 C 
ATOM     16  O   UNL     1      -7.555   7.819   3.597  0.00  0.00    -0.270 OA
ATOM     17  N   UNL     1      -6.000   9.150   2.731  0.00  0.00    -0.325 N 
ATOM     18  H   UNL     1      -5.127   9.563   2.815  0.00  0.00    +0.145 HD
ATOM     19  H   UNL     1      -6.544   9.321   1.946  0.00  0.00    +0.145 HD
ENDBRANCH   7  15
ENDBRANCH   4   6
ENDBRANCH   1   2
BRANCH   1  20
ATOM     20  C   UNL     1      -2.217   3.121   3.570  0.00  0.00    +0.086 C 
BRANCH  20  21
ATOM     21  S   UNL     1      -1.869   1.903   2.272  0.00  0.00    -0.085 S 
BRANCH  21  36
ATOM     22  C   UNL     1      -0.018   1.501   0.010  0.00  0.00    +0.046 C 
ATOM     23  C   UNL     1       0.002  -0.004   0.002  0.00  0.00    -0.026 A 
ATOM     24  C   UNL     1      -0.160  -0.641  -1.218  0.00  0.00    +0.005 A 
ATOM     25  C   UNL     1      -0.101  -2.019  -1.313  0.00  0.00    +0.001 A 
ATOM     26  C   UNL     1       0.180  -2.773  -0.194  0.00  0.00    +0.010 A 
ATOM     27  C   UNL     1       0.358  -2.143   1.038  0.00  0.00    +0.002 A 
ATOM     28  C   UNL     1       0.125  -0.752   1.159  0.00  0.00    +0.061 A 
ATOM     29  N   UNL     1      -0.037  -0.226   2.430  0.00  0.00    -0.270 N 
ATOM     30  C   UNL     1       0.502  -0.903   3.511  0.00  0.00    +0.162 A 
ATOM     31  C   UNL     1       0.915  -2.248   3.397  0.00  0.00    +0.052 A 
ATOM     32  C   UNL     1       0.808  -2.892   2.213  0.00  0.00    -0.038 A 
ATOM     33  C   UNL     1       1.152  -4.357   2.123  0.00  0.00    +0.044 C 
ATOM     34  N   UNL     1       0.474  -0.076   4.540  0.00  0.00    -0.129 NA
ATOM     35  N   UNL     1      -0.201   0.966   4.225  0.00  0.00    -0.122 NA
ATOM     36  C   UNL     1      -0.645   0.855   2.987  0.00  0.00    +0.196 A 
ENDBRANCH  21  36
ENDBRANCH  20  21
ENDBRANCH   1  20
TORSDOF 6
