REMARK  Name = ZINC67600076
REMARK  10 active torsions:
REMARK  status: ('A' for Active; 'I' for Inactive)
REMARK    1  A    between atoms: C_1  and  C_2
REMARK    2  A    between atoms: C_5  and  C_12
REMARK    3  A    between atoms: C_8  and  C_10
REMARK    4  A    between atoms: C_8  and  C_11
REMARK    5  A    between atoms: C_12  and  C_13
REMARK    6  A    between atoms: N_15  and  S_16
REMARK    7  A    between atoms: S_16  and  C_19
REMARK    8  A    between atoms: C_22  and  C_25
REMARK    9  A    between atoms: C_25  and  N_26
REMARK   10  A    between atoms: C_27  and  C_29
REMARK                            x       y       z     vdW  Elec       q    Type
REMARK                         _______ _______ _______ _____ _____    ______ ____
ROOT
ATOM      1  S   UNL     1      -4.656   1.777  -1.515  0.00  0.00    +0.102 S 
ATOM      2  O   UNL     1      -4.923   0.942  -2.633  0.00  0.00    -0.146 OA
ATOM      3  O   UNL     1      -5.689   2.410  -0.772  0.00  0.00    -0.146 OA
ENDROOT
BRANCH   1   4
ATOM      4  C   UNL     1      -3.589   3.058  -2.087  0.00  0.00    +0.113 A 
ATOM      5  C   UNL     1      -3.535   4.264  -1.413  0.00  0.00    +0.029 A 
ATOM      6  C   UNL     1      -2.698   5.269  -1.861  0.00  0.00    +0.007 A 
ATOM      7  C   UNL     1      -1.915   5.068  -2.983  0.00  0.00    -0.030 A 
ATOM      8  C   UNL     1      -1.969   3.861  -3.656  0.00  0.00    +0.007 A 
ATOM      9  C   UNL     1      -2.803   2.855  -3.205  0.00  0.00    +0.029 A 
BRANCH   7  10
ATOM     10  C   UNL     1      -1.004   6.163  -3.473  0.00  0.00    +0.139 C 
BRANCH  10  11
ATOM     11  N   UNL     1       0.308   6.029  -2.834  0.00  0.00    -0.311 N 
ATOM     12  C   UNL     1       1.290   6.905  -3.122  0.00  0.00    +0.210 C 
ATOM     13  O   UNL     1       1.089   7.805  -3.910  0.00  0.00    -0.276 OA
ATOM     14  C   UNL     1       2.640   6.767  -2.466  0.00  0.00    +0.109 C 
ATOM     15  H   UNL     1       0.469   5.309  -2.204  0.00  0.00    +0.149 HD
ENDBRANCH  10  11
ENDBRANCH   7  10
ENDBRANCH   1   4
BRANCH   1  18
ATOM     16  C   UNL     1      -4.342  -0.152   0.136  0.00  0.00    +0.265 C 
ATOM     17  O   UNL     1      -5.624  -0.469  -0.141  0.00  0.00    -0.269 OA
ATOM     18  N   UNL     1      -3.791   0.864  -0.438  0.00  0.00    -0.091 NA
BRANCH  16  19
ATOM     19  C   UNL     1      -3.555  -0.983   1.116  0.00  0.00    +0.105 C 
BRANCH  19  23
ATOM     20  C   UNL     1      -0.019   1.524   0.010  0.00  0.00    +0.007 C 
ATOM     21  C   UNL     1       0.002  -0.004   0.002  0.00  0.00    -0.013 C 
ATOM     22  C   UNL     1      -1.412  -0.559  -0.088  0.00  0.00    +0.007 C 
ATOM     23  C   UNL     1      -2.138  -0.412   1.248  0.00  0.00    -0.001 C 
ATOM     24  C   UNL     1      -1.378  -1.199   2.313  0.00  0.00    +0.010 C 
ATOM     25  C   UNL     1       0.034  -0.651   2.488  0.00  0.00    -0.034 C 
ATOM     26  C   UNL     1       0.787  -0.561   1.172  0.00  0.00    +0.009 C 
ATOM     27  C   UNL     1       0.803  -1.619   3.413  0.00  0.00    +0.011 C 
ATOM     28  C   UNL     1      -0.015   0.710   3.188  0.00  0.00    +0.011 C 
ENDBRANCH  19  23
ENDBRANCH  16  19
ENDBRANCH   1  18
TORSDOF 6
