REMARK  Name = ZINC48355839
REMARK  8 active torsions:
REMARK  status: ('A' for Active; 'I' for Inactive)
REMARK    1  A    between atoms: C_1  and  C_2
REMARK    2  A    between atoms: C_2  and  C_3
REMARK    3  A    between atoms: C_2  and  N_4
REMARK    4  A    between atoms: C_5  and  C_7
REMARK    5  A    between atoms: C_7  and  N_8
REMARK    6  A    between atoms: C_11  and  N_14
REMARK    7  A    between atoms: C_15  and  C_17
REMARK    8  A    between atoms: C_17  and  N_18
REMARK                            x       y       z     vdW  Elec       q    Type
REMARK                         _______ _______ _______ _____ _____    ______ ____
ROOT
ATOM      1  N   UNL     1      -3.087  -3.600  -1.067  0.00  0.00    +0.385 N 
ATOM      2  C   UNL     1      -2.318  -4.522  -0.223  0.00  0.00    -0.076 C 
ATOM      3  C   UNL     1      -2.279  -5.905  -0.877  0.00  0.00    +0.003 C 
ATOM      4  C   UNL     1      -3.709  -6.429  -1.036  0.00  0.00    +0.069 C 
ATOM      5  C   UNL     1      -4.522  -5.423  -1.855  0.00  0.00    +0.003 C 
ATOM      6  C   UNL     1      -4.479  -4.058  -1.165  0.00  0.00    -0.076 C 
ATOM      7  H   UNL     1      -2.678  -3.569  -1.988  0.00  0.00    -0.081 HD
ENDROOT
BRANCH   4   8
ATOM      8  N   UNL     1      -3.683  -7.719  -1.731  0.00  0.00    -0.311 N 
ATOM      9  C   UNL     1      -4.689  -8.598  -1.556  0.00  0.00    +0.233 C 
ATOM     10  O   UNL     1      -5.616  -8.322  -0.823  0.00  0.00    -0.274 OA
ATOM     11  H   UNL     1      -2.942  -7.940  -2.316  0.00  0.00    +0.149 HD
BRANCH   9  12
ATOM     12  C   UNL     1      -4.663  -9.925  -2.270  0.00  0.00    +0.220 C 
BRANCH  12  13
ATOM     13  N   UNL     1      -5.859 -10.694  -1.916  0.00  0.00    -0.305 N 
ATOM     14  C   UNL     1      -5.831 -11.521  -0.839  0.00  0.00    +0.105 A 
ATOM     15  C   UNL     1      -6.924 -12.241  -0.493  0.00  0.00    +0.034 A 
ATOM     16  C   UNL     1      -8.100 -12.136  -1.250  0.00  0.00    +0.022 A 
ATOM     17  C   UNL     1      -8.126 -11.305  -2.331  0.00  0.00    +0.071 A 
ATOM     18  C   UNL     1      -6.975 -10.568  -2.659  0.00  0.00    +0.252 A 
ATOM     19  O   UNL     1      -6.986  -9.817  -3.621  0.00  0.00    -0.268 OA
ATOM     20 BR   UNL     1      -6.865 -13.388   1.010  0.00  0.00    -0.049 Br
ENDBRANCH  12  13
ENDBRANCH   9  12
ENDBRANCH   4   8
BRANCH   1  21
ATOM     21  C   UNL     1      -3.057  -2.256  -0.474  0.00  0.00    +0.019 C 
BRANCH  21  23
ATOM     22  N   UNL     1      -1.372  -0.511   0.012  0.00  0.00    -0.315 N 
ATOM     23  C   UNL     1      -1.643  -1.734  -0.485  0.00  0.00    +0.197 C 
ATOM     24  O   UNL     1      -0.749  -2.415  -0.941  0.00  0.00    -0.278 OA
ATOM     25  H   UNL     1      -2.087   0.033   0.377  0.00  0.00    +0.149 HD
BRANCH  22  27
ATOM     26  C   UNL     1      -0.019   1.526   0.010  0.00  0.00    +0.027 C 
ATOM     27  C   UNL     1       0.002  -0.004   0.002  0.00  0.00    +0.067 C 
ATOM     28  C   UNL     1       0.742  -0.511   1.242  0.00  0.00    +0.027 C 
ENDBRANCH  22  27
ENDBRANCH  21  23
ENDBRANCH   1  21
TORSDOF 6
