REMARK  Name = ZINC54424773
REMARK  3 active torsions:
REMARK  status: ('A' for Active; 'I' for Inactive)
REMARK    1  A    between atoms: C_2  and  C_3
REMARK    2  A    between atoms: C_3  and  N_4
REMARK    3  A    between atoms: C_5  and  C_16
REMARK                            x       y       z     vdW  Elec       q    Type
REMARK                         _______ _______ _______ _____ _____    ______ ____
ROOT
ATOM      1  N   UNL     1      -1.318  -1.700  -1.126  0.00  0.00    -0.271 N 
ATOM      2  C   UNL     1      -1.865  -1.250  -2.405  0.00  0.00    +0.196 C 
ATOM      3  N   UNL     1      -1.188  -1.930  -3.516  0.00  0.00    -0.321 N 
ATOM      4  C   UNL     1      -0.964  -3.298  -3.420  0.00  0.00    +0.041 A 
ATOM      5  C   UNL     1      -0.914  -4.114  -4.537  0.00  0.00    +0.024 A 
ATOM      6  C   UNL     1      -0.691  -5.469  -4.385  0.00  0.00    +0.002 A 
ATOM      7  C   UNL     1      -0.518  -6.017  -3.124  0.00  0.00    +0.001 A 
ATOM      8  C   UNL     1      -0.563  -5.219  -2.000  0.00  0.00    +0.015 A 
ATOM      9  C   UNL     1      -0.785  -3.851  -2.139  0.00  0.00    +0.058 A 
ATOM     10  C   UNL     1      -0.830  -2.949  -0.975  0.00  0.00    +0.250 C 
ATOM     11  O   UNL     1      -0.435  -3.327   0.112  0.00  0.00    -0.270 OA
ATOM     12  H   UNL     1      -0.903  -1.435  -4.300  0.00  0.00    +0.148 HD
ENDROOT
BRANCH   2  13
ATOM     13  C   UNL     1      -3.338  -1.565  -2.456  0.00  0.00    +0.036 A 
ATOM     14  C   UNL     1      -4.060  -1.685  -1.282  0.00  0.00    +0.011 A 
ATOM     15  C   UNL     1      -5.411  -1.974  -1.325  0.00  0.00    +0.004 A 
ATOM     16  C   UNL     1      -6.047  -2.144  -2.541  0.00  0.00    +0.049 A 
ATOM     17  C   UNL     1      -5.330  -2.025  -3.720  0.00  0.00    +0.167 A 
ATOM     18  C   UNL     1      -3.970  -1.729  -3.678  0.00  0.00    +0.173 A 
ATOM     19  O   UNL     1      -3.498  -1.659  -4.957  0.00  0.00    -0.452 OA
ATOM     20  C   UNL     1      -4.492  -2.311  -5.769  0.00  0.00    +0.466 C 
ATOM     21  O   UNL     1      -5.710  -2.143  -5.026  0.00  0.00    -0.453 OA
ENDBRANCH   2  13
BRANCH   1  22
ATOM     22  C   UNL     1      -1.293  -0.775   0.010  0.00  0.00    +0.137 C 
BRANCH  22  24
ATOM     23  C   UNL     1      -0.016   1.306   0.009  0.00  0.00    +0.005 C 
ATOM     24  C   UNL     1       0.002  -0.004   0.002  0.00  0.00    -0.016 C 
ENDBRANCH  22  24
ENDBRANCH   1  22
TORSDOF 3
