REMARK  Name = ZINC24876096
REMARK  6 active torsions:
REMARK  status: ('A' for Active; 'I' for Inactive)
REMARK    1  A    between atoms: C_1  and  C_2
REMARK    2  A    between atoms: C_2  and  C_20
REMARK    3  A    between atoms: N_5  and  C_9
REMARK    4  A    between atoms: C_9  and  C_10
REMARK    5  A    between atoms: N_12  and  C_13
REMARK    6  A    between atoms: C_20  and  C_21
REMARK                            x       y       z     vdW  Elec       q    Type
REMARK                         _______ _______ _______ _____ _____    ______ ____
ROOT
ATOM      1  C   UNL     1      -0.027   1.522  -0.003  0.00  0.00    +0.042 C 
ATOM      2  C   UNL     1      -0.001  -0.008  -0.001  0.00  0.00    +0.114 C 
ATOM      3  C   UNL     1       0.813  -0.528  -1.170  0.00  0.00    +0.247 C 
ATOM      4  O   UNL     1       0.591  -0.358  -2.350  0.00  0.00    -0.273 OA
ATOM      5  N   UNL     1       1.834  -1.219  -0.625  0.00  0.00    -0.215 N 
ATOM      6  C   UNL     1       1.779  -1.207   0.712  0.00  0.00    +0.310 C 
ATOM      7  O   UNL     1       2.591  -1.762   1.426  0.00  0.00    -0.252 OA
ATOM      8  N   UNL     1       0.725  -0.513   1.177  0.00  0.00    -0.285 N 
ATOM      9  H   UNL     1       0.488  -0.372   2.107  0.00  0.00    +0.151 HD
ENDROOT
BRANCH   5  10
ATOM     10  C   UNL     1       2.874  -1.899  -1.400  0.00  0.00    +0.214 C 
BRANCH  10  11
ATOM     11  C   UNL     1       4.019  -0.950  -1.645  0.00  0.00    +0.235 C 
ATOM     12  O   UNL     1       3.970   0.183  -1.214  0.00  0.00    -0.274 OA
ATOM     13  N   UNL     1       5.097  -1.360  -2.343  0.00  0.00    -0.284 N 
ATOM     14  H   UNL     1       5.166  -2.284  -2.629  0.00  0.00    +0.155 HD
BRANCH  13  15
ATOM     15  C   UNL     1       6.116  -0.452  -2.654  0.00  0.00    +0.033 A 
ATOM     16  C   UNL     1       6.792  -0.552  -3.863  0.00  0.00    +0.024 A 
ATOM     17  C   UNL     1       7.797   0.345  -4.167  0.00  0.00    +0.017 A 
ATOM     18  C   UNL     1       8.130   1.343  -3.269  0.00  0.00    +0.018 A 
ATOM     19  C   UNL     1       7.459   1.445  -2.063  0.00  0.00    +0.017 A 
ATOM     20  C   UNL     1       6.449   0.553  -1.756  0.00  0.00    +0.024 A 
ATOM     21 BR   UNL     1       9.507   2.569  -3.689  0.00  0.00    -0.050 Br
ENDBRANCH  13  15
ENDBRANCH  10  11
ENDBRANCH   5  10
BRANCH   2  22
ATOM     22  C   UNL     1      -1.423  -0.570  -0.039  0.00  0.00    +0.070 C 
BRANCH  22  23
ATOM     23  C   UNL     1      -2.189  -0.079   1.163  0.00  0.00    -0.041 A 
ATOM     24  C   UNL     1      -2.173  -0.809   2.336  0.00  0.00    +0.007 A 
ATOM     25  C   UNL     1      -2.873  -0.363   3.441  0.00  0.00    +0.050 A 
ATOM     26  C   UNL     1      -3.594   0.819   3.375  0.00  0.00    +0.166 A 
ATOM     27  C   UNL     1      -3.610   1.555   2.192  0.00  0.00    +0.166 A 
ATOM     28  C   UNL     1      -2.901   1.104   1.091  0.00  0.00    +0.053 A 
ATOM     29  O   UNL     1      -4.382   2.665   2.380  0.00  0.00    -0.453 OA
ATOM     30  C   UNL     1      -5.168   2.393   3.555  0.00  0.00    +0.466 C 
ATOM     31  O   UNL     1      -4.356   1.468   4.303  0.00  0.00    -0.453 OA
ENDBRANCH  22  23
ENDBRANCH   2  22
TORSDOF 5
