REMARK  Name = ZINC06196916
REMARK  11 active torsions:
REMARK  status: ('A' for Active; 'I' for Inactive)
REMARK    1  A    between atoms: C_1  and  C_2
REMARK    2  A    between atoms: C_2  and  O_3
REMARK    3  A    between atoms: O_3  and  C_4
REMARK    4  A    between atoms: C_11  and  C_16
REMARK    5  A    between atoms: C_16  and  C_18
REMARK    6  A    between atoms: C_16  and  N_71
REMARK    7  A    between atoms: N_22  and  C_23
REMARK    8  A    between atoms: C_28  and  C_29
REMARK    9  A    between atoms: C_28  and  N_71
REMARK   10  A    between atoms: C_35  and  C_36
REMARK   11  A    between atoms: C_35  and  N_71
REMARK                            x       y       z     vdW  Elec       q    Type
REMARK                         _______ _______ _______ _____ _____    ______ ____
ROOT
ATOM      1  C   UNL     1       4.586   1.080  -0.034  0.00  0.00    +0.040 C 
ENDROOT
BRANCH   1   9
ATOM      2  C   UNL     1       0.940   6.087  -0.291  0.00  0.00    +0.121 A 
ATOM      3  C   UNL     1       0.719   6.041  -1.665  0.00  0.00    +0.047 A 
ATOM      4  C   UNL     1       1.284   5.048  -2.434  0.00  0.00    +0.030 A 
ATOM      5  C   UNL     1       2.089   4.082  -1.839  0.00  0.00    +0.049 A 
ATOM      6  C   UNL     1       2.320   4.128  -0.452  0.00  0.00    +0.002 A 
ATOM      7  C   UNL     1       1.741   5.142   0.319  0.00  0.00    +0.055 A 
ATOM      8  C   UNL     1       3.170   3.106   0.161  0.00  0.00    +0.017 A 
ATOM      9  C   UNL     1       3.706   2.147  -0.634  0.00  0.00    +0.011 A 
ATOM     10  C   UNL     1       3.444   2.144  -2.020  0.00  0.00    +0.251 A 
ATOM     11  O   UNL     1       3.936   1.273  -2.717  0.00  0.00    -0.268 OA
ATOM     12  N   UNL     1       2.665   3.079  -2.593  0.00  0.00    -0.322 N 
ATOM     13  H   UNL     1       2.501   3.047  -3.579  0.00  0.00    +0.169 HD
BRANCH   2  14
ATOM     14  O   UNL     1       0.369   7.072   0.454  0.00  0.00    -0.492 OA
BRANCH  14  16
ATOM     15  C   UNL     1      -0.999   9.041   0.757  0.00  0.00    +0.048 C 
ATOM     16  C   UNL     1      -0.448   8.018  -0.239  0.00  0.00    +0.225 C 
ENDBRANCH  14  16
ENDBRANCH   2  14
ENDBRANCH   1   9
BRANCH   1  17
ATOM     17  C   UNL     1       4.877   1.419   1.405  0.00  0.00    +0.143 A 
ATOM     18  N   UNL     1       5.244   2.586   1.875  0.00  0.00    -0.115 NA
ATOM     19  N   UNL     1       5.393   2.472   3.150  0.00  0.00    -0.023 NA
ATOM     20  N   UNL     1       5.137   1.261   3.504  0.00  0.00    -0.044 NA
ATOM     21  N   UNL     1       4.815   0.581   2.456  0.00  0.00    -0.227 N 
BRANCH  21  22
ATOM     22  C   UNL     1       4.450  -0.838   2.418  0.00  0.00    +0.111 C 
ATOM     23  C   UNL     1       3.237  -1.096   3.335  0.00  0.00    +0.027 C 
ATOM     24  C   UNL     1       3.525  -2.484   3.962  0.00  0.00    +0.002 C 
ATOM     25  C   UNL     1       5.056  -2.444   4.195  0.00  0.00    +0.002 C 
ATOM     26  C   UNL     1       5.606  -1.694   2.964  0.00  0.00    +0.027 C 
ENDBRANCH  21  22
ENDBRANCH   1  17
BRANCH   1  27
ATOM     27  N   UNL     1       5.840   1.008  -0.812  0.00  0.00    +0.397 N 
ATOM     28  H   UNL     1       5.614   1.038  -1.813  0.00  0.00    -0.079 HD
BRANCH  27  29
ATOM     29  C   UNL     1       6.545  -0.258  -0.518  0.00  0.00    -0.041 C 
BRANCH  29  30
ATOM     30  C   UNL     1       7.683  -0.418  -1.492  0.00  0.00    -0.064 A 
ATOM     31  C   UNL     1       7.449  -0.948  -2.748  0.00  0.00    +0.002 A 
ATOM     32  C   UNL     1       8.492  -1.090  -3.643  0.00  0.00    +0.000 A 
ATOM     33  C   UNL     1       9.771  -0.713  -3.280  0.00  0.00    +0.000 A 
ATOM     34  C   UNL     1      10.007  -0.189  -2.023  0.00  0.00    +0.000 A 
ATOM     35  C   UNL     1       8.963  -0.042  -1.129  0.00  0.00    +0.002 A 
ENDBRANCH  29  30
ENDBRANCH  27  29
BRANCH  27  36
ATOM     36  C   UNL     1       6.708   2.158  -0.481  0.00  0.00    -0.001 C 
BRANCH  36  37
ATOM     37  C   UNL     1       6.208   3.369  -1.225  0.00  0.00    +0.089 A 
ATOM     38  C   UNL     1       5.426   4.338  -0.716  0.00  0.00    +0.042 A 
ATOM     39  C   UNL     1       5.202   5.271  -1.754  0.00  0.00    +0.041 A 
ATOM     40  C   UNL     1       5.861   4.817  -2.836  0.00  0.00    +0.195 A 
ATOM     41  O   UNL     1       6.473   3.667  -2.507  0.00  0.00    -0.470 OA
ENDBRANCH  36  37
ENDBRANCH  27  36
ENDBRANCH   1  27
TORSDOF 10
