REMARK  Name = ZINC08726568
REMARK  9 active torsions:
REMARK  status: ('A' for Active; 'I' for Inactive)
REMARK    1  A    between atoms: C_1  and  C_2
REMARK    2  A    between atoms: N_10  and  N_14
REMARK    3  A    between atoms: C_15  and  C_17
REMARK    4  A    between atoms: C_17  and  S_18
REMARK    5  A    between atoms: S_18  and  C_19
REMARK    6  A    between atoms: N_24  and  C_25
REMARK    7  A    between atoms: C_25  and  C_26
REMARK    8  A    between atoms: C_29  and  O_32
REMARK    9  A    between atoms: O_32  and  C_33
REMARK                            x       y       z     vdW  Elec       q    Type
REMARK                         _______ _______ _______ _____ _____    ______ ____
ROOT
ATOM      1  N   UNL     1      -1.146  -0.807   0.009  0.00  0.00    -0.223 N 
ATOM      2  C   UNL     1      -1.536  -1.435  -1.118  0.00  0.00    +0.240 C 
ATOM      3  O   UNL     1      -0.893  -1.305  -2.138  0.00  0.00    -0.273 OA
ATOM      4  H   UNL     1      -1.660  -0.911   0.825  0.00  0.00    +0.174 HD
ENDROOT
BRANCH   1  14
ATOM      5  C   UNL     1       5.008   4.205  -0.023  0.00  0.00    +0.007 C 
ATOM      6  C   UNL     1       3.533   3.799  -0.011  0.00  0.00    -0.014 C 
ATOM      7  C   UNL     1       3.220   2.976  -1.262  0.00  0.00    +0.006 C 
ATOM      8  C   UNL     1       1.741   2.581  -1.255  0.00  0.00    +0.035 C 
ATOM      9  C   UNL     1       1.435   1.768  -0.002  0.00  0.00    +0.114 C 
ATOM     10  C   UNL     1       1.765   2.567   1.254  0.00  0.00    +0.035 C 
ATOM     11  C   UNL     1       3.244   2.962   1.237  0.00  0.00    +0.006 C 
ATOM     12  C   UNL     1      -0.016   1.345   0.009  0.00  0.00    +0.263 C 
ATOM     13  O   UNL     1      -0.991   2.066   0.018  0.00  0.00    -0.271 OA
ATOM     14  N   UNL     1       0.002  -0.004   0.002  0.00  0.00    -0.137 N 
ATOM     15  C   UNL     1       1.253  -0.480  -0.013  0.00  0.00    +0.326 C 
ATOM     16  O   UNL     1       1.526  -1.665  -0.021  0.00  0.00    -0.251 OA
ATOM     17  N   UNL     1       2.176   0.501  -0.016  0.00  0.00    -0.284 N 
ATOM     18  H   UNL     1       3.140   0.392  -0.026  0.00  0.00    +0.151 HD
ENDBRANCH   1  14
BRANCH   2  19
ATOM     19  C   UNL     1      -2.771  -2.299  -1.110  0.00  0.00    +0.173 C 
BRANCH  19  20
ATOM     20  S   UNL     1      -3.029  -2.999  -2.763  0.00  0.00    -0.088 S 
BRANCH  20  21
ATOM     21  C   UNL     1      -4.490  -3.970  -2.592  0.00  0.00    +0.160 A 
ATOM     22  N   UNL     1      -5.244  -4.164  -1.527  0.00  0.00    -0.133 NA
ATOM     23  N   UNL     1      -6.356  -4.970  -1.614  0.00  0.00    -0.125 NA
ATOM     24  C   UNL     1      -6.662  -5.545  -2.760  0.00  0.00    +0.183 A 
ATOM     25  S   UNL     1      -5.349  -4.948  -3.815  0.00  0.00    -0.025 S 
ATOM     26  N   UNL     1      -7.724  -6.386  -3.068  0.00  0.00    -0.318 N 
ATOM     27  H   UNL     1      -7.822  -6.736  -3.967  0.00  0.00    +0.148 HD
BRANCH  26  28
ATOM     28  C   UNL     1      -8.698  -6.744  -2.034  0.00  0.00    +0.138 C 
BRANCH  28  29
ATOM     29  C   UNL     1      -9.741  -7.660  -2.621  0.00  0.00    -0.030 A 
ATOM     30  C   UNL     1     -10.888  -7.129  -3.183  0.00  0.00    +0.009 A 
ATOM     31  C   UNL     1     -11.843  -7.966  -3.727  0.00  0.00    +0.046 A 
ATOM     32  C   UNL     1     -11.656  -9.340  -3.699  0.00  0.00    +0.120 A 
ATOM     33  C   UNL     1     -10.508  -9.870  -3.130  0.00  0.00    +0.046 A 
ATOM     34  C   UNL     1      -9.553  -9.029  -2.592  0.00  0.00    +0.009 A 
BRANCH  32  35
ATOM     35  O   UNL     1     -12.597 -10.165  -4.229  0.00  0.00    -0.495 OA
ATOM     36  C   UNL     1     -13.754  -9.550  -4.798  0.00  0.00    +0.277 C 
ENDBRANCH  32  35
ENDBRANCH  28  29
ENDBRANCH  26  28
ENDBRANCH  20  21
ENDBRANCH  19  20
ENDBRANCH   2  19
TORSDOF 7
