REMARK  Name = ZINC25389511
REMARK  13 active torsions:
REMARK  status: ('A' for Active; 'I' for Inactive)
REMARK    1  A    between atoms: C_1  and  C_2
REMARK    2  A    between atoms: C_2  and  C_3
REMARK    3  A    between atoms: C_2  and  C_4
REMARK    4  A    between atoms: C_4  and  C_6
REMARK    5  A    between atoms: C_4  and  N_22
REMARK    6  A    between atoms: N_11  and  C_14
REMARK    7  A    between atoms: C_14  and  C_15
REMARK    8  A    between atoms: N_17  and  C_18
REMARK    9  A    between atoms: C_18  and  C_19
REMARK   10  A    between atoms: C_18  and  C_20
REMARK   11  A    between atoms: C_18  and  C_21
REMARK   12  A    between atoms: N_22  and  S_23
REMARK   13  A    between atoms: S_23  and  C_26
REMARK                            x       y       z     vdW  Elec       q    Type
REMARK                         _______ _______ _______ _____ _____    ______ ____
ROOT
ATOM      1  C   UNL     1      -0.023   7.963  -2.566  0.00  0.00    +0.165 C 
ENDROOT
BRANCH   1   2
ATOM      2  C   UNL     1       0.224   7.881  -4.050  0.00  0.00    +0.234 C 
ATOM      3  O   UNL     1       1.287   8.240  -4.508  0.00  0.00    -0.274 OA
ATOM      4  N   UNL     1      -0.737   7.407  -4.868  0.00  0.00    -0.304 N 
ATOM      5  C   UNL     1      -2.068   7.059  -4.347  0.00  0.00    +0.089 C 
ATOM      6  C   UNL     1      -3.124   7.763  -5.213  0.00  0.00    -0.059 C 
ATOM      7  N   UNL     1      -2.901   7.420  -6.624  0.00  0.00    +0.387 N 
ATOM      8  C   UNL     1      -1.598   7.912  -7.092  0.00  0.00    -0.059 C 
ATOM      9  C   UNL     1      -0.481   7.219  -6.304  0.00  0.00    +0.089 C 
ATOM     10  H   UNL     1      -2.893   6.323  -6.704  0.00  0.00    -0.081 HD
BRANCH   7  11
ATOM     11  C   UNL     1      -3.990   7.929  -7.469  0.00  0.00    +0.019 C 
BRANCH  11  12
ATOM     12  C   UNL     1      -5.271   7.218  -7.118  0.00  0.00    +0.197 C 
ATOM     13  O   UNL     1      -5.277   6.371  -6.250  0.00  0.00    -0.278 OA
ATOM     14  N   UNL     1      -6.411   7.524  -7.769  0.00  0.00    -0.312 N 
ATOM     15  H   UNL     1      -6.406   8.292  -8.556  0.00  0.00    +0.149 HD
BRANCH  14  16
ATOM     16  C   UNL     1      -7.657   6.833  -7.428  0.00  0.00    +0.026 C 
ATOM     17  C   UNL     1      -7.993   7.083  -5.956  0.00  0.00    +0.031 C 
ATOM     18  C   UNL     1      -8.791   7.363  -8.307  0.00  0.00    +0.031 C 
ATOM     19  C   UNL     1      -7.488   5.330  -7.663  0.00  0.00    +0.031 C 
ENDBRANCH  14  16
ENDBRANCH  11  12
ENDBRANCH   7  11
ENDBRANCH   1   2
BRANCH   1  21
ATOM     20  C   UNL     1       0.638  10.372  -2.558  0.00  0.00    +0.009 C 
ATOM     21  C   UNL     1      -0.470   9.380  -2.201  0.00  0.00    +0.010 C 
ATOM     22  C   UNL     1      -1.739   9.731  -2.981  0.00  0.00    +0.009 C 
ENDBRANCH   1  21
BRANCH   1  23
ATOM     23  N   UNL     1       1.211   7.640  -1.846  0.00  0.00    -0.178 NA
ATOM     24  H   UNL     1       2.186   7.790  -2.333  0.00  0.00    +0.149 HD
BRANCH  23  25
ATOM     25  S   UNL     1       1.142   6.823  -0.408  0.00  0.00    +0.059 S 
ATOM     26  O   UNL     1       0.171   7.487   0.390  0.00  0.00    -0.153 OA
ATOM     27  O   UNL     1       2.484   6.640   0.021  0.00  0.00    -0.153 OA
BRANCH  25  28
ATOM     28  C   UNL     1       0.500   5.218  -0.751  0.00  0.00    +0.106 A 
ATOM     29  C   UNL     1       1.377   4.181  -1.064  0.00  0.00    +0.029 A 
ATOM     30  C   UNL     1       0.914   2.930  -1.334  0.00  0.00    +0.010 A 
ATOM     31  C   UNL     1      -0.468   2.677  -1.297  0.00  0.00    -0.018 A 
ATOM     32  C   UNL     1      -0.984   1.398  -1.570  0.00  0.00    +0.008 A 
ATOM     33  C   UNL     1      -2.328   1.190  -1.526  0.00  0.00    +0.001 A 
ATOM     34  C   UNL     1      -3.205   2.229  -1.218  0.00  0.00    +0.001 A 
ATOM     35  C   UNL     1      -2.741   3.478  -0.942  0.00  0.00    +0.008 A 
ATOM     36  C   UNL     1      -1.359   3.732  -0.979  0.00  0.00    -0.016 A 
ATOM     37  C   UNL     1      -0.844   5.010  -0.706  0.00  0.00    +0.037 A 
ENDBRANCH  25  28
ENDBRANCH  23  25
ENDBRANCH   1  23
TORSDOF 8
