REMARK  Name = ZINC51755203
REMARK  7 active torsions:
REMARK  status: ('A' for Active; 'I' for Inactive)
REMARK    1  A    between atoms: C_1  and  C_2
REMARK    2  A    between atoms: C_2  and  N_3
REMARK    3  A    between atoms: N_3  and  C_4
REMARK    4  A    between atoms: C_4  and  C_6
REMARK    5  A    between atoms: C_4  and  C_17
REMARK    6  A    between atoms: C_13  and  C_15
REMARK    7  A    between atoms: C_13  and  C_16
REMARK                            x       y       z     vdW  Elec       q    Type
REMARK                         _______ _______ _______ _____ _____    ______ ____
ROOT
ATOM      1  C   UNL     1       0.710  -1.947  -1.215  0.00  0.00    +0.027 C 
ENDROOT
BRANCH   1   2
ATOM      2  C   UNL     1      -0.700  -2.467  -1.328  0.00  0.00    -0.054 A 
ATOM      3  C   UNL     1      -1.604  -1.846  -2.170  0.00  0.00    +0.006 A 
ATOM      4  C   UNL     1      -2.894  -2.322  -2.281  0.00  0.00    +0.046 A 
ATOM      5  C   UNL     1      -3.298  -3.432  -1.544  0.00  0.00    +0.125 A 
ATOM      6  C   UNL     1      -2.383  -4.043  -0.695  0.00  0.00    -0.002 A 
ATOM      7  C   UNL     1      -1.093  -3.573  -0.594  0.00  0.00    +0.009 A 
ATOM      8  C   UNL     1      -3.105  -5.192  -0.017  0.00  0.00    +0.086 C 
ATOM      9  C   UNL     1      -4.586  -4.858  -0.312  0.00  0.00    +0.109 C 
ATOM     10  O   UNL     1      -4.502  -4.067  -1.510  0.00  0.00    -0.486 OA
ATOM     11  C   UNL     1      -5.390  -6.135  -0.562  0.00  0.00    +0.056 C 
ATOM     12  C   UNL     1      -5.197  -4.046   0.832  0.00  0.00    +0.056 C 
ENDBRANCH   1   2
BRANCH   1  13
ATOM     13  C   UNL     1       1.520  -2.432  -2.389  0.00  0.00    +0.097 A 
ATOM     14  C   UNL     1       2.370  -3.474  -2.381  0.00  0.00    +0.044 A 
ATOM     15  C   UNL     1       2.910  -3.572  -3.684  0.00  0.00    +0.057 A 
ATOM     16  C   UNL     1       2.357  -2.584  -4.411  0.00  0.00    +0.170 A 
ATOM     17  O   UNL     1       1.511  -1.900  -3.623  0.00  0.00    -0.454 OA
ATOM     18 BR   UNL     1       2.705  -2.224  -6.235  0.00  0.00    -0.008 Br
ENDBRANCH   1  13
BRANCH   1  19
ATOM     19  N   UNL     1       0.690  -0.478  -1.207  0.00  0.00    +0.388 N 
ATOM     20  H   UNL     1       0.202  -0.144  -2.024  0.00  0.00    -0.084 HD
ATOM     21  H   UNL     1       1.636  -0.129  -1.214  0.00  0.00    -0.084 HD
BRANCH  19  23
ATOM     22  C   UNL     1      -0.019   1.526   0.010  0.00  0.00    -0.017 C 
ATOM     23  C   UNL     1       0.002  -0.004   0.002  0.00  0.00    -0.085 C 
ENDBRANCH  19  23
ENDBRANCH   1  19
TORSDOF 4
