REMARK  Name = ZINC13314318
REMARK  7 active torsions:
REMARK  status: ('A' for Active; 'I' for Inactive)
REMARK    1  A    between atoms: C_1  and  C_2
REMARK    2  A    between atoms: C_5  and  C_31
REMARK    3  A    between atoms: C_10  and  C_12
REMARK    4  A    between atoms: C_12  and  N_13
REMARK    5  A    between atoms: N_16  and  S_19
REMARK    6  A    between atoms: S_19  and  C_22
REMARK    7  A    between atoms: C_25  and  C_28
REMARK                            x       y       z     vdW  Elec       q    Type
REMARK                         _______ _______ _______ _____ _____    ______ ____
ROOT
ATOM      1  N   UNL     1       4.137  -3.128   1.581  0.00  0.00    -0.291 NA
ATOM      2  C   UNL     1       4.198  -3.943   0.360  0.00  0.00    +0.102 C 
ATOM      3  C   UNL     1       5.154  -5.120   0.583  0.00  0.00    +0.125 C 
ATOM      4  N   UNL     1       6.447  -4.590   1.042  0.00  0.00    -0.174 NA
ATOM      5  C   UNL     1       6.453  -3.656   2.178  0.00  0.00    +0.125 C 
ATOM      6  C   UNL     1       5.445  -2.537   1.893  0.00  0.00    +0.102 C 
ENDROOT
BRANCH   4   7
ATOM      7  S   UNL     1       7.860  -5.035   0.301  0.00  0.00    +0.061 S 
ATOM      8  O   UNL     1       8.896  -4.846   1.254  0.00  0.00    -0.153 OA
ATOM      9  O   UNL     1       7.615  -6.290  -0.319  0.00  0.00    -0.153 OA
BRANCH   7  10
ATOM     10  C   UNL     1       8.152  -3.881  -0.998  0.00  0.00    +0.106 A 
ATOM     11  C   UNL     1       7.645  -4.123  -2.262  0.00  0.00    +0.029 A 
ATOM     12  C   UNL     1       7.870  -3.224  -3.283  0.00  0.00    +0.017 A 
ATOM     13  C   UNL     1       8.613  -2.066  -3.038  0.00  0.00    +0.063 A 
ATOM     14  C   UNL     1       9.122  -1.828  -1.759  0.00  0.00    +0.017 A 
ATOM     15  C   UNL     1       8.884  -2.733  -0.747  0.00  0.00    +0.029 A 
BRANCH  13  16
ATOM     16  C   UNL     1       8.859  -1.100  -4.126  0.00  0.00    +0.387 C 
ATOM     17  O   UNL     1       8.413  -1.311  -5.245  0.00  0.00    -0.241 OA
ATOM     18  O   UNL     1       9.510  -0.087  -3.909  0.00  0.00    -0.241 OA
ENDBRANCH  13  16
ENDBRANCH   7  10
ENDBRANCH   4   7
BRANCH   1  19
ATOM     19  C   UNL     1       3.103  -2.090   1.470  0.00  0.00    +0.180 C 
BRANCH  19  27
ATOM     20  C   UNL     1      -0.019   1.526   0.010  0.00  0.00    +0.009 C 
ATOM     21  C   UNL     1       0.002  -0.004   0.002  0.00  0.00    +0.004 C 
ATOM     22  C   UNL     1      -1.433  -0.534   0.015  0.00  0.00    +0.009 C 
ATOM     23  C   UNL     1      -1.414  -2.064  -0.027  0.00  0.00    +0.004 C 
ATOM     24  C   UNL     1      -0.692  -2.596   1.215  0.00  0.00    +0.111 C 
ATOM     25  N   UNL     1       0.639  -1.977   1.288  0.00  0.00    -0.300 N 
ATOM     26  C   UNL     1       0.742  -0.512   1.244  0.00  0.00    +0.111 C 
ATOM     27  C   UNL     1       1.746  -2.740   1.395  0.00  0.00    +0.230 C 
ATOM     28  O   UNL     1       1.648  -3.948   1.431  0.00  0.00    -0.274 OA
ATOM     29  C   UNL     1      -0.680  -2.532  -1.285  0.00  0.00    +0.009 C 
ENDBRANCH  19  27
ENDBRANCH   1  19
TORSDOF 5
