REMARK  Name = ZINC06446299
REMARK  8 active torsions:
REMARK  status: ('A' for Active; 'I' for Inactive)
REMARK    1  A    between atoms: C_4  and  C_7
REMARK    2  A    between atoms: C_7  and  O_8
REMARK    3  A    between atoms: O_8  and  C_9
REMARK    4  A    between atoms: C_18  and  C_30
REMARK    5  A    between atoms: C_20  and  C_26
REMARK    6  A    between atoms: C_20  and  C_28
REMARK    7  A    between atoms: C_21  and  N_25
REMARK    8  A    between atoms: C_22  and  C_23
REMARK                            x       y       z     vdW  Elec       q    Type
REMARK                         _______ _______ _______ _____ _____    ______ ____
ROOT
ATOM      1  C   UNL     1       4.672  -2.560   0.653  0.00  0.00    +0.403 C 
ATOM      2  O   UNL     1       5.388  -3.029  -0.210  0.00  0.00    -0.226 OA
ATOM      3  N   UNL     1       5.151  -2.377   1.899  0.00  0.00    -0.263 N 
ATOM      4  C   UNL     1       4.308  -1.816   2.971  0.00  0.00    +0.138 C 
ATOM      5  C   UNL     1       4.313  -2.812   4.104  0.00  0.00    -0.003 C 
ATOM      6  C   UNL     1       5.335  -3.623   4.295  0.00  0.00    -0.026 C 
ATOM      7  C   UNL     1       6.581  -3.625   3.461  0.00  0.00    +0.048 C 
ATOM      8  C   UNL     1       6.530  -2.733   2.248  0.00  0.00    +0.120 C 
ATOM      9  C   UNL     1       6.912  -5.072   3.095  0.00  0.00    +0.069 C 
ATOM     10  C   UNL     1       7.215  -5.849   4.378  0.00  0.00    +0.188 C 
ATOM     11  C   UNL     1       6.146  -5.654   5.409  0.00  0.00    +0.054 C 
ATOM     12  C   UNL     1       5.269  -4.620   5.397  0.00  0.00    +0.074 C 
ENDROOT
BRANCH   9  13
ATOM     13  C   UNL     1       8.116  -5.101   2.188  0.00  0.00    -0.023 A 
ATOM     14  C   UNL     1       9.228  -4.324   2.473  0.00  0.00    +0.007 A 
ATOM     15  C   UNL     1      10.312  -4.382   1.610  0.00  0.00    +0.020 A 
ATOM     16  C   UNL     1      10.248  -5.208   0.504  0.00  0.00    +0.111 A 
ATOM     17  N   UNL     1       9.174  -5.933   0.265  0.00  0.00    -0.263 NA
ATOM     18  C   UNL     1       8.127  -5.907   1.066  0.00  0.00    +0.114 A 
ENDBRANCH   9  13
BRANCH  11  19
ATOM     19  N   UNL     1       6.049  -6.570   6.419  0.00  0.00    -0.358 N 
ATOM     20  H   UNL     1       6.663  -7.321   6.454  0.00  0.00    +0.142 HD
ATOM     21  H   UNL     1       5.367  -6.470   7.101  0.00  0.00    +0.142 HD
ENDBRANCH  11  19
BRANCH  12  22
ATOM     22  C   UNL     1       4.290  -4.488   6.434  0.00  0.00    +0.101 C 
ATOM     23  N   UNL     1       3.513  -4.384   7.257  0.00  0.00    -0.191 NA
ENDBRANCH  12  22
BRANCH  10  24
ATOM     24  C   UNL     1       7.318  -7.282   4.058  0.00  0.00    +0.091 C 
ATOM     25  N   UNL     1       7.397  -8.388   3.811  0.00  0.00    -0.194 NA
ENDBRANCH  10  24
BRANCH  10  26
ATOM     26  C   UNL     1       8.501  -5.388   4.926  0.00  0.00    +0.091 C 
ATOM     27  N   UNL     1       9.494  -5.032   5.349  0.00  0.00    -0.194 NA
ENDBRANCH  10  26
BRANCH   1  28
ATOM     28  O   UNL     1       3.401  -2.223   0.363  0.00  0.00    -0.445 OA
BRANCH  28  29
ATOM     29  C   UNL     1       2.961  -2.444  -0.978  0.00  0.00    +0.269 C 
BRANCH  29  33
ATOM     30  C   UNL     1      -1.113  -1.215  -1.362  0.00  0.00    +0.000 A 
ATOM     31  C   UNL     1      -0.093  -0.312  -1.599  0.00  0.00    +0.000 A 
ATOM     32  C   UNL     1       1.225  -0.710  -1.474  0.00  0.00    +0.007 A 
ATOM     33  C   UNL     1       1.524  -2.010  -1.113  0.00  0.00    -0.010 A 
ATOM     34  C   UNL     1       0.504  -2.913  -0.875  0.00  0.00    +0.007 A 
ATOM     35  C   UNL     1      -0.814  -2.516  -1.001  0.00  0.00    +0.000 A 
ENDBRANCH  29  33
ENDBRANCH  28  29
ENDBRANCH   1  28
TORSDOF 8
