REMARK  Name = ZINC13494616
REMARK  16 active torsions:
REMARK  status: ('A' for Active; 'I' for Inactive)
REMARK    1  A    between atoms: C_1  and  C_2
REMARK    2  A    between atoms: C_2  and  C_3
REMARK    3  A    between atoms: C_3  and  C_5
REMARK    4  A    between atoms: C_3  and  N_14
REMARK    5  A    between atoms: N_9  and  C_10
REMARK    6  A    between atoms: C_10  and  C_11
REMARK    7  A    between atoms: C_10  and  C_12
REMARK    8  A    between atoms: C_10  and  C_13
REMARK    9  A    between atoms: N_14  and  C_15
REMARK   10  A    between atoms: N_14  and  C_24
REMARK   11  A    between atoms: C_15  and  C_16
REMARK   12  A    between atoms: C_16  and  C_17
REMARK   13  A    between atoms: C_17  and  N_18
REMARK   14  A    between atoms: C_24  and  C_25
REMARK   15  A    between atoms: C_29  and  C_38
REMARK   16  A    between atoms: C_31  and  C_37
REMARK                            x       y       z     vdW  Elec       q    Type
REMARK                         _______ _______ _______ _____ _____    ______ ____
ROOT
ATOM      1  N   UNL     1      -0.962   7.412  -1.330  0.00  0.00    +0.389 N 
ATOM      2  H   UNL     1      -1.782   6.942  -1.894  0.00  0.00    -0.080 HD
ENDROOT
BRANCH   1   3
ATOM      3  C   UNL     1       0.300   7.070  -1.999  0.00  0.00    +0.003 C 
BRANCH   3   4
ATOM      4  C   UNL     1       0.137   5.773  -2.748  0.00  0.00    +0.139 A 
ATOM      5  N   UNL     1      -0.545   4.724  -2.356  0.00  0.00    -0.115 NA
ATOM      6  N   UNL     1      -0.445   3.821  -3.269  0.00  0.00    -0.023 NA
ATOM      7  N   UNL     1       0.290   4.263  -4.230  0.00  0.00    -0.043 NA
ATOM      8  N   UNL     1       0.668   5.463  -3.945  0.00  0.00    -0.226 N 
BRANCH   8   9
ATOM      9  C   UNL     1       1.515   6.327  -4.771  0.00  0.00    +0.059 C 
ATOM     10  C   UNL     1       2.709   6.811  -3.944  0.00  0.00    +0.036 C 
ATOM     11  C   UNL     1       2.019   5.540  -5.982  0.00  0.00    +0.036 C 
ATOM     12  C   UNL     1       0.703   7.533  -5.247  0.00  0.00    +0.036 C 
ENDBRANCH   8   9
ENDBRANCH   3   4
BRANCH   3  14
ATOM     13  C   UNL     1       1.653   8.269  -0.275  0.00  0.00    +0.002 C 
ATOM     14  C   UNL     1       1.407   6.920  -0.954  0.00  0.00    -0.011 C 
ENDBRANCH   3  14
ENDBRANCH   1   3
BRANCH   1  15
ATOM     15  C   UNL     1      -1.185   8.864  -1.337  0.00  0.00    -0.076 C 
BRANCH  15  16
ATOM     16  C   UNL     1      -1.557   9.317  -2.750  0.00  0.00    -0.003 C 
BRANCH  16  17
ATOM     17  C   UNL     1      -1.679  10.842  -2.781  0.00  0.00    +0.083 C 
BRANCH  17  18
ATOM     18  N   UNL     1      -2.036  11.277  -4.138  0.00  0.00    -0.298 NA
ATOM     19  C   UNL     1      -0.945  11.000  -5.084  0.00  0.00    +0.112 C 
ATOM     20  C   UNL     1      -1.381  11.413  -6.493  0.00  0.00    +0.175 C 
ATOM     21  O   UNL     1      -1.754  12.793  -6.485  0.00  0.00    -0.377 OA
ATOM     22  C   UNL     1      -2.814  13.098  -5.576  0.00  0.00    +0.175 C 
ATOM     23  C   UNL     1      -2.393  12.702  -4.158  0.00  0.00    +0.112 C 
ENDBRANCH  17  18
ENDBRANCH  16  17
ENDBRANCH  15  16
ENDBRANCH   1  15
BRANCH   1  24
ATOM     24  C   UNL     1      -0.993   6.881   0.039  0.00  0.00    -0.037 C 
BRANCH  24  25
ATOM     25  C   UNL     1      -1.070   5.376  -0.008  0.00  0.00    +0.001 A 
ATOM     26  C   UNL     1      -0.014   4.633   0.404  0.00  0.00    +0.017 A 
ATOM     27  C   UNL     1      -0.120   3.174   0.346  0.00  0.00    -0.001 A 
ATOM     28  C   UNL     1       0.936   2.354   0.758  0.00  0.00    +0.013 A 
ATOM     29  C   UNL     1       0.805   0.996   0.692  0.00  0.00    -0.050 A 
ATOM     30  C   UNL     1      -0.368   0.422   0.219  0.00  0.00    +0.008 A 
ATOM     31  C   UNL     1      -1.419   1.210  -0.197  0.00  0.00    -0.026 A 
ATOM     32  C   UNL     1      -1.310   2.595  -0.133  0.00  0.00    +0.052 A 
ATOM     33  N   UNL     1      -2.349   3.407  -0.537  0.00  0.00    -0.322 N 
ATOM     34  H   UNL     1      -3.282   2.962  -0.912  0.00  0.00    +0.169 HD
ATOM     35  C   UNL     1      -2.242   4.746  -0.480  0.00  0.00    +0.251 A 
ATOM     36  O   UNL     1      -3.180   5.434  -0.846  0.00  0.00    -0.268 OA
ATOM     37  C   UNL     1      -2.683   0.573  -0.713  0.00  0.00    +0.046 C 
ATOM     38  C   UNL     1       1.942   0.113   1.136  0.00  0.00    +0.044 C 
ENDBRANCH  24  25
ENDBRANCH   1  24
TORSDOF 10
