REMARK  Name = ZINC01036134
REMARK  4 active torsions:
REMARK  status: ('A' for Active; 'I' for Inactive)
REMARK    1  A    between atoms: C_1  and  C_2
REMARK    2  A    between atoms: C_2  and  O_3
REMARK    3  A    between atoms: O_3  and  C_4
REMARK    4  A    between atoms: N_16  and  C_21
REMARK                            x       y       z     vdW  Elec       q    Type
REMARK                         _______ _______ _______ _____ _____    ______ ____
ROOT
ATOM      1  C   UNL     1       6.860   2.514  -3.196  0.00  0.00    +0.403 C 
ATOM      2  O   UNL     1       6.860   3.560  -3.813  0.00  0.00    -0.226 OA
ATOM      3  N   UNL     1       6.129   2.396  -2.069  0.00  0.00    -0.262 N 
ATOM      4  C   UNL     1       5.321   3.517  -1.563  0.00  0.00    +0.116 C 
ATOM      5  C   UNL     1       3.839   3.141  -1.607  0.00  0.00    +0.056 C 
ATOM      6  C   UNL     1       3.655   1.757  -0.997  0.00  0.00    -0.020 A 
ATOM      7  C   UNL     1       4.688   0.898  -0.883  0.00  0.00    +0.013 A 
ATOM      8  S   UNL     1       3.994  -0.554  -0.145  0.00  0.00    -0.073 S 
ATOM      9  C   UNL     1       2.362  -0.025   0.013  0.00  0.00    +0.094 A 
ATOM     10  C   UNL     1       2.364   1.269  -0.506  0.00  0.00    +0.074 A 
ATOM     11  C   UNL     1       1.062   1.970  -0.489  0.00  0.00    +0.270 A 
ATOM     12  O   UNL     1       0.967   3.104  -0.921  0.00  0.00    -0.266 OA
ATOM     13  N   UNL     1      -0.016   1.339   0.009  0.00  0.00    -0.229 N 
ATOM     14  C   UNL     1       0.055   0.088   0.493  0.00  0.00    +0.335 A 
ATOM     15  O   UNL     1      -0.949  -0.439   0.933  0.00  0.00    -0.246 OA
ATOM     16  N   UNL     1       1.217  -0.594   0.502  0.00  0.00    -0.301 N 
ATOM     17  H   UNL     1       1.243  -1.524   0.869  0.00  0.00    +0.171 HD
ATOM     18  C   UNL     1       6.108   1.138  -1.297  0.00  0.00    +0.153 C 
ENDROOT
BRANCH  13  19
ATOM     19  C   UNL     1      -1.250   2.003   0.019  0.00  0.00    +0.054 A 
ATOM     20  C   UNL     1      -2.106   1.896  -1.069  0.00  0.00    +0.028 A 
ATOM     21  C   UNL     1      -3.324   2.547  -1.055  0.00  0.00    +0.022 A 
ATOM     22  C   UNL     1      -3.687   3.315   0.037  0.00  0.00    +0.041 A 
ATOM     23  C   UNL     1      -2.833   3.428   1.121  0.00  0.00    +0.022 A 
ATOM     24  C   UNL     1      -1.617   2.774   1.114  0.00  0.00    +0.028 A 
ATOM     25 CL   UNL     1      -5.215   4.138   0.049  0.00  0.00    -0.084 Cl
ENDBRANCH  13  19
BRANCH   1  26
ATOM     26  O   UNL     1       7.590   1.472  -3.636  0.00  0.00    -0.451 OA
BRANCH  26  28
ATOM     27  C   UNL     1       9.111   0.387  -5.197  0.00  0.00    +0.048 C 
ATOM     28  C   UNL     1       8.352   1.670  -4.856  0.00  0.00    +0.230 C 
ENDBRANCH  26  28
ENDBRANCH   1  26
TORSDOF 3
