REMARK  Name = ZINC11390980
REMARK  7 active torsions:
REMARK  status: ('A' for Active; 'I' for Inactive)
REMARK    1  A    between atoms: C_6  and  C_7
REMARK    2  A    between atoms: C_7  and  N_8
REMARK    3  A    between atoms: N_8  and  C_21
REMARK    4  A    between atoms: C_9  and  C_11
REMARK    5  A    between atoms: C_11  and  S_12
REMARK    6  A    between atoms: S_12  and  C_13
REMARK    7  A    between atoms: C_17  and  N_19
REMARK                            x       y       z     vdW  Elec       q    Type
REMARK                         _______ _______ _______ _____ _____    ______ ____
ROOT
ATOM      1  N   UNL     1      -1.968  -1.105  -1.431  0.00  0.00    -0.291 N 
ATOM      2  C   UNL     1      -1.143  -1.957  -2.071  0.00  0.00    +0.227 C 
ATOM      3  O   UNL     1      -0.417  -2.691  -1.435  0.00  0.00    -0.275 OA
ENDROOT
BRANCH   1   4
ATOM      4  C   UNL     1      -2.945  -0.321  -2.191  0.00  0.00    +0.039 C 
ATOM      5  C   UNL     1      -4.006  -1.256  -2.776  0.00  0.00    +0.029 C 
ATOM      6  C   UNL     1      -5.026  -0.438  -3.570  0.00  0.00    -0.008 C 
ATOM      7  C   UNL     1      -5.696   0.579  -2.643  0.00  0.00    +0.007 C 
ATOM      8  C   UNL     1      -4.636   1.514  -2.058  0.00  0.00    -0.008 C 
ATOM      9  C   UNL     1      -3.616   0.695  -1.264  0.00  0.00    +0.029 C 
ATOM     10  C   UNL     1      -3.925   2.251  -3.194  0.00  0.00    +0.007 C 
ATOM     11  C   UNL     1      -3.254   1.235  -4.121  0.00  0.00    -0.008 C 
ATOM     12  C   UNL     1      -4.314   0.300  -4.706  0.00  0.00    +0.007 C 
ATOM     13  C   UNL     1      -2.234   0.417  -3.327  0.00  0.00    +0.029 C 
ENDBRANCH   1   4
BRANCH   1  14
ATOM     14  C   UNL     1      -1.889  -0.963   0.025  0.00  0.00    +0.143 C 
BRANCH  14  20
ATOM     15  C   UNL     1      -1.106   1.335   0.631  0.00  0.00    +0.008 A 
ATOM     16  C   UNL     1      -0.104   2.231   0.953  0.00  0.00    +0.038 A 
ATOM     17  C   UNL     1       1.211   1.804   1.018  0.00  0.00    +0.123 A 
ATOM     18  C   UNL     1       1.521   0.479   0.761  0.00  0.00    +0.038 A 
ATOM     19  C   UNL     1       0.518  -0.415   0.440  0.00  0.00    +0.008 A 
ATOM     20  C   UNL     1      -0.795   0.013   0.375  0.00  0.00    -0.030 A 
ATOM     21  F   UNL     1       2.192   2.679   1.332  0.00  0.00    -0.205 F 
ENDBRANCH  14  20
ENDBRANCH   1  14
BRANCH   2  22
ATOM     22  C   UNL     1      -1.123  -1.997  -3.578  0.00  0.00    +0.173 C 
BRANCH  22  23
ATOM     23  S   UNL     1      -0.367  -3.551  -4.131  0.00  0.00    -0.077 S 
BRANCH  23  24
ATOM     24  C   UNL     1      -0.417  -3.447  -5.889  0.00  0.00    +0.192 A 
ATOM     25  N   UNL     1      -0.934  -2.367  -6.457  0.00  0.00    -0.207 NA
ATOM     26  C   UNL     1      -0.988  -2.254  -7.782  0.00  0.00    +0.122 A 
ATOM     27  C   UNL     1      -0.491  -3.287  -8.571  0.00  0.00    +0.086 A 
ATOM     28  C   UNL     1       0.045  -4.405  -7.939  0.00  0.00    +0.122 A 
ATOM     29  N   UNL     1       0.070  -4.447  -6.609  0.00  0.00    -0.207 NA
ATOM     30  N   UNL     1      -1.532  -1.121  -8.369  0.00  0.00    -0.343 N 
ATOM     31  H   UNL     1      -1.876  -0.405  -7.813  0.00  0.00    +0.144 HD
ATOM     32  H   UNL     1      -1.567  -1.045  -9.335  0.00  0.00    +0.144 HD
BRANCH  28  33
ATOM     33  N   UNL     1       0.551  -5.458  -8.684  0.00  0.00    -0.343 N 
ATOM     34  H   UNL     1       0.533  -5.420  -9.654  0.00  0.00    +0.144 HD
ATOM     35  H   UNL     1       0.923  -6.234  -8.237  0.00  0.00    +0.144 HD
ENDBRANCH  28  33
ENDBRANCH  23  24
ENDBRANCH  22  23
ENDBRANCH   2  22
TORSDOF 7
