REMARK  Name = ZINC20451557
REMARK  9 active torsions:
REMARK  status: ('A' for Active; 'I' for Inactive)
REMARK    1  A    between atoms: C_1  and  N_2
REMARK    2  A    between atoms: C_3  and  C_31
REMARK    3  A    between atoms: C_6  and  C_17
REMARK    4  A    between atoms: C_8  and  C_10
REMARK    5  A    between atoms: C_17  and  N_18
REMARK    6  A    between atoms: N_18  and  C_19
REMARK    7  A    between atoms: C_19  and  C_20
REMARK    8  A    between atoms: C_23  and  C_25
REMARK    9  A    between atoms: C_31  and  O_32
REMARK                            x       y       z     vdW  Elec       q    Type
REMARK                         _______ _______ _______ _____ _____    ______ ____
ROOT
ATOM      1  C   UNL     1       2.443  -2.969   1.935  0.00  0.00    -0.095 C 
ATOM      2  N   UNL     1       2.529  -2.673   0.498  0.00  0.00    +0.386 N 
ATOM      3  C   UNL     1       2.842  -3.899  -0.280  0.00  0.00    -0.042 C 
ATOM      4  C   UNL     1       2.380  -3.536  -1.714  0.00  0.00    -0.013 C 
ATOM      5  C   UNL     1       1.100  -2.705  -1.465  0.00  0.00    -0.039 C 
ATOM      6  C   UNL     1       1.233  -2.186  -0.021  0.00  0.00    -0.033 C 
ATOM      7  H   UNL     1       3.317  -1.912   0.396  0.00  0.00    -0.081 HD
ENDROOT
BRANCH   6   8
ATOM      8  C   UNL     1       1.211  -0.679  -0.013  0.00  0.00    -0.026 A 
ATOM      9  C   UNL     1       2.397   0.030  -0.021  0.00  0.00    +0.005 A 
ATOM     10  C   UNL     1       2.377   1.412  -0.013  0.00  0.00    +0.000 A 
ATOM     11  C   UNL     1       1.171   2.087   0.002  0.00  0.00    +0.003 A 
ATOM     12  C   UNL     1      -0.017   1.381   0.010  0.00  0.00    +0.038 A 
ATOM     13  C   UNL     1       0.002  -0.004   0.002  0.00  0.00    +0.125 A 
ATOM     14  F   UNL     1      -1.158  -0.696   0.009  0.00  0.00    -0.205 F 
ENDBRANCH   6   8
BRANCH   5  15
ATOM     15  C   UNL     1       1.027  -1.533  -2.446  0.00  0.00    -0.080 C 
BRANCH  15  16
ATOM     16  N   UNL     1       0.781  -2.044  -3.801  0.00  0.00    +0.383 N 
ATOM     17  H   UNL     1       1.601  -2.716  -4.094  0.00  0.00    -0.085 HD
ATOM     18  H   UNL     1      -0.170  -2.596  -3.818  0.00  0.00    -0.085 HD
BRANCH  16  19
ATOM     19  C   UNL     1       0.704  -0.944  -4.772  0.00  0.00    -0.023 C 
BRANCH  19  20
ATOM     20  C   UNL     1       0.451  -1.505  -6.147  0.00  0.00    +0.063 A 
ATOM     21  C   UNL     1      -0.750  -1.646  -6.738  0.00  0.00    +0.219 A 
ATOM     22  O   UNL     1      -0.536  -2.180  -7.957  0.00  0.00    -0.443 OA
ATOM     23  C   UNL     1       0.788  -2.368  -8.094  0.00  0.00    +0.227 A 
ATOM     24  N   UNL     1       1.383  -1.960  -6.999  0.00  0.00    -0.216 NA
BRANCH  23  25
ATOM     25  C   UNL     1       1.460  -2.940  -9.280  0.00  0.00    +0.037 A 
ATOM     26  C   UNL     1       2.848  -3.079  -9.300  0.00  0.00    +0.013 A 
ATOM     27  C   UNL     1       3.469  -3.619 -10.408  0.00  0.00    +0.001 A 
ATOM     28  C   UNL     1       2.719  -4.011 -11.502  0.00  0.00    +0.000 A 
ATOM     29  C   UNL     1       1.342  -3.872 -11.491  0.00  0.00    +0.001 A 
ATOM     30  C   UNL     1       0.709  -3.339 -10.387  0.00  0.00    +0.013 A 
ENDBRANCH  23  25
ENDBRANCH  19  20
ENDBRANCH  16  19
ENDBRANCH  15  16
ENDBRANCH   5  15
BRANCH   3  31
ATOM     31  C   UNL     1       4.343  -4.191  -0.255  0.00  0.00    +0.140 C 
BRANCH  31  32
ATOM     32  O   UNL     1       4.720  -4.635   1.051  0.00  0.00    -0.397 OA
ATOM     33  H   UNL     1       5.768  -4.894   1.262  0.00  0.00    +0.209 HD
ENDBRANCH  31  32
ENDBRANCH   3  31
TORSDOF 8
