REMARK  Name = ZINC66476011
REMARK  4 active torsions:
REMARK  status: ('A' for Active; 'I' for Inactive)
REMARK    1  A    between atoms: C_1  and  C_2
REMARK    2  A    between atoms: C_4  and  C_27
REMARK    3  A    between atoms: C_12  and  C_14
REMARK    4  A    between atoms: C_17  and  C_22
REMARK                            x       y       z     vdW  Elec       q    Type
REMARK                         _______ _______ _______ _____ _____    ______ ____
ROOT
ATOM      1  C   UNL     1      -0.991   0.551  -0.562  0.00  0.00    +0.044 C 
ATOM      2  C   UNL     1       0.055  -0.488  -0.250  0.00  0.00    -0.048 A 
ATOM      3  C   UNL     1       0.994  -0.833  -1.206  0.00  0.00    +0.007 A 
ATOM      4  C   UNL     1       1.953  -1.786  -0.923  0.00  0.00    -0.045 A 
ATOM      5  C   UNL     1       1.983  -2.401   0.317  0.00  0.00    -0.023 A 
ATOM      6  C   UNL     1       1.045  -2.053   1.276  0.00  0.00    +0.040 A 
ATOM      7  C   UNL     1       0.082  -1.092   0.991  0.00  0.00    +0.027 A 
ATOM      8  N   UNL     1       1.057  -2.652   2.542  0.00  0.00    -0.267 N 
ATOM      9  C   UNL     1       1.870  -3.858   2.750  0.00  0.00    +0.114 C 
ATOM     10  C   UNL     1       3.237  -3.620   2.095  0.00  0.00    +0.024 C 
ATOM     11  C   UNL     1       3.039  -3.440   0.590  0.00  0.00    +0.039 C 
ATOM     12  C   UNL     1       0.334  -2.131   3.553  0.00  0.00    +0.256 C 
ATOM     13  O   UNL     1      -0.248  -1.073   3.403  0.00  0.00    -0.269 OA
ATOM     14  C   UNL     1       2.972  -2.158  -1.970  0.00  0.00    +0.044 C 
ENDROOT
BRANCH  12  15
ATOM     15  C   UNL     1       0.248  -2.840   4.835  0.00  0.00    +0.101 A 
ATOM     16  C   UNL     1       0.422  -2.147   6.039  0.00  0.00    +0.020 A 
ATOM     17  C   UNL     1       0.335  -2.840   7.235  0.00  0.00    +0.030 A 
ATOM     18  C   UNL     1       0.079  -4.205   7.227  0.00  0.00    +0.085 A 
ATOM     19  N   UNL     1      -0.090  -4.877   6.047  0.00  0.00    -0.319 N 
ATOM     20  H   UNL     1      -0.269  -5.830   6.060  0.00  0.00    +0.169 HD
ATOM     21  C   UNL     1      -0.017  -4.231   4.868  0.00  0.00    +0.261 A 
ATOM     22  O   UNL     1      -0.175  -4.845   3.827  0.00  0.00    -0.267 OA
BRANCH  18  23
ATOM     23  C   UNL     1      -0.011  -4.933   8.495  0.00  0.00    +0.151 A 
ATOM     24  C   UNL     1      -0.251  -6.271   8.637  0.00  0.00    +0.051 A 
ATOM     25  C   UNL     1      -0.252  -6.536  10.016  0.00  0.00    +0.042 A 
ATOM     26  C   UNL     1      -0.016  -5.364  10.646  0.00  0.00    +0.196 A 
ATOM     27  O   UNL     1       0.134  -4.402   9.726  0.00  0.00    -0.461 OA
ENDBRANCH  18  23
ENDBRANCH  12  15
TORSDOF 2
