REMARK  Name = ZINC13147144
REMARK  7 active torsions:
REMARK  status: ('A' for Active; 'I' for Inactive)
REMARK    1  A    between atoms: C_1  and  C_2
REMARK    2  A    between atoms: C_2  and  S_3
REMARK    3  A    between atoms: S_3  and  C_4
REMARK    4  A    between atoms: C_11  and  C_21
REMARK    5  A    between atoms: C_14  and  O_16
REMARK    6  A    between atoms: O_16  and  C_17
REMARK    7  A    between atoms: C_18  and  C_20
REMARK                            x       y       z     vdW  Elec       q    Type
REMARK                         _______ _______ _______ _____ _____    ______ ____
ROOT
ATOM      1  C   UNL     1      -1.897  -2.609   0.070  0.00  0.00    +0.171 A 
ATOM      2  N   UNL     1      -0.630  -2.965   0.063  0.00  0.00    -0.204 NA
ATOM      3  C   UNL     1      -0.275  -4.263   0.022  0.00  0.00    +0.165 A 
ATOM      4  C   UNL     1      -1.281  -5.232  -0.015  0.00  0.00    +0.073 A 
ATOM      5  C   UNL     1      -2.615  -4.847  -0.009  0.00  0.00    +0.258 A 
ATOM      6  N   UNL     1      -2.904  -3.527   0.040  0.00  0.00    -0.302 N 
ATOM      7  O   UNL     1      -3.506  -5.681  -0.041  0.00  0.00    -0.267 OA
ATOM      8  C   UNL     1      -0.875  -6.687  -0.062  0.00  0.00    +0.103 C 
ATOM      9  C   UNL     1       0.621  -6.952  -0.064  0.00  0.00    +0.070 C 
ATOM     10  C   UNL     1       1.117  -8.223  -0.105  0.00  0.00    +0.338 C 
ATOM     11  O   UNL     1       2.445  -8.425  -0.225  0.00  0.00    -0.245 OA
ATOM     12  C   UNL     1       1.470  -5.840  -0.023  0.00  0.00    +0.051 C 
ATOM     13  N   UNL     1       1.022  -4.613   0.015  0.00  0.00    -0.232 NA
ATOM     14  C   UNL     1       2.960  -6.067  -0.024  0.00  0.00    +0.066 C 
ATOM     15  H   UNL     1      -3.828  -3.233   0.049  0.00  0.00    +0.171 HD
ENDROOT
BRANCH   8  16
ATOM     16  C   UNL     1      -1.473  -7.382   1.134  0.00  0.00    +0.002 A 
ATOM     17  C   UNL     1      -2.337  -8.425   1.172  0.00  0.00    +0.012 A 
ATOM     18  C   UNL     1      -2.755  -8.905   2.399  0.00  0.00    +0.008 A 
ATOM     19  C   UNL     1      -2.289  -8.318   3.528  0.00  0.00    +0.045 A 
ATOM     20  S   UNL     1      -1.219  -7.049   2.870  0.00  0.00    -0.101 S 
ENDBRANCH   8  16
BRANCH  10  21
ATOM     21  O   UNL     1       0.279  -9.276  -0.025  0.00  0.00    -0.465 OA
ATOM     22  C   UNL     1       0.867 -10.578  -0.074  0.00  0.00    +0.280 C 
ENDBRANCH  10  21
BRANCH   1  23
ATOM     23  S   UNL     1      -2.303  -0.895   0.126  0.00  0.00    -0.088 S 
BRANCH  23  25
ATOM     24  C   UNL     1      -0.901   1.452   0.202  0.00  0.00    +0.016 C 
ATOM     25  C   UNL     1      -0.691  -0.063   0.153  0.00  0.00    +0.074 C 
ENDBRANCH  23  25
ENDBRANCH   1  23
TORSDOF 4
