REMARK  Name = ZINC16904371
REMARK  6 active torsions:
REMARK  status: ('A' for Active; 'I' for Inactive)
REMARK    1  A    between atoms: C_1  and  C_2
REMARK    2  A    between atoms: C_2  and  N_3
REMARK    3  A    between atoms: C_7  and  C_8
REMARK    4  A    between atoms: N_12  and  C_13
REMARK    5  A    between atoms: N_16  and  C_17
REMARK    6  A    between atoms: C_20  and  O_23
REMARK                            x       y       z     vdW  Elec       q    Type
REMARK                         _______ _______ _______ _____ _____    ______ ____
ROOT
ATOM      1  N   UNL     1       1.298   3.408   0.056  0.00  0.00    -0.246 N 
ATOM      2  C   UNL     1       2.516   3.921   0.029  0.00  0.00    +0.259 C 
ATOM      3  O   UNL     1       2.699   5.125   0.026  0.00  0.00    -0.269 OA
ATOM      4  C   UNL     1       3.642   2.974   0.004  0.00  0.00    +0.079 C 
ATOM      5  C   UNL     1       4.981   3.223  -0.025  0.00  0.00    +0.046 C 
ATOM      6  S   UNL     1       2.781   1.408   0.030  0.00  0.00    -0.049 S 
ATOM      7  C   UNL     1       1.112   2.042   0.059  0.00  0.00    +0.168 C 
ATOM      8  N   UNL     1      -0.018   1.371   0.084  0.00  0.00    -0.225 NA
ENDROOT
BRANCH   5   9
ATOM      9  C   UNL     1       5.903   2.153   0.066  0.00  0.00    +0.043 A 
ATOM     10  C   UNL     1       5.593   0.805   0.074  0.00  0.00    +0.027 A 
ATOM     11  C   UNL     1       6.800   0.106   0.176  0.00  0.00    +0.020 A 
ATOM     12  C   UNL     1       7.804   1.013   0.228  0.00  0.00    +0.086 A 
ATOM     13  N   UNL     1       7.272   2.263   0.156  0.00  0.00    -0.350 N 
ATOM     14  C   UNL     1       8.030   3.516   0.176  0.00  0.00    +0.149 C 
ENDBRANCH   5   9
BRANCH   8  15
ATOM     15  C   UNL     1      -0.000   0.001   0.083  0.00  0.00    +0.067 A 
ATOM     16  C   UNL     1       0.840  -0.688  -0.794  0.00  0.00    +0.031 A 
ATOM     17  C   UNL     1       0.858  -2.067  -0.787  0.00  0.00    +0.047 A 
ATOM     18  C   UNL     1       0.034  -2.770   0.081  0.00  0.00    +0.117 A 
ATOM     19  C   UNL     1      -0.806  -2.089   0.951  0.00  0.00    +0.047 A 
ATOM     20  C   UNL     1      -0.827  -0.710   0.956  0.00  0.00    +0.031 A 
BRANCH  18  21
ATOM     21  O   UNL     1       0.051  -4.130   0.080  0.00  0.00    -0.507 OA
ATOM     22  H   UNL     1      -0.583  -4.530  -0.531  0.00  0.00    +0.292 HD
ENDBRANCH  18  21
ENDBRANCH   8  15
BRANCH   1  24
ATOM     23  C   UNL     1      -0.238   4.609   1.532  0.00  0.00    +0.025 C 
ATOM     24  C   UNL     1       0.135   4.299   0.081  0.00  0.00    +0.112 C 
ENDBRANCH   1  24
TORSDOF 4
