REMARK  Name = ZINC61841342
REMARK  6 active torsions:
REMARK  status: ('A' for Active; 'I' for Inactive)
REMARK    1  A    between atoms: C_4  and  C_9
REMARK    2  A    between atoms: C_5  and  C_7
REMARK    3  A    between atoms: C_7  and  N_8
REMARK    4  A    between atoms: C_9  and  N_10
REMARK    5  A    between atoms: N_10  and  S_11
REMARK    6  A    between atoms: S_11  and  C_14
REMARK                            x       y       z     vdW  Elec       q    Type
REMARK                         _______ _______ _______ _____ _____    ______ ____
ROOT
ATOM      1  N   UNL     1       4.006  -1.148  -1.403  0.00  0.00    -0.186 NA
ATOM      2  H   UNL     1       3.306  -1.147  -2.075  0.00  0.00    +0.148 HD
ENDROOT
BRANCH   1   3
ATOM      3  S   UNL     1       5.534  -1.648  -1.800  0.00  0.00    +0.061 S 
ATOM      4  O   UNL     1       5.493  -2.032  -3.168  0.00  0.00    -0.153 OA
ATOM      5  O   UNL     1       6.426  -0.654  -1.314  0.00  0.00    -0.153 OA
BRANCH   3   6
ATOM      6  C   UNL     1       5.860  -3.112  -0.876  0.00  0.00    +0.142 A 
ATOM      7  C   UNL     1       6.431  -3.024   0.381  0.00  0.00    +0.069 A 
ATOM      8  C   UNL     1       6.687  -4.174   1.107  0.00  0.00    +0.022 A 
ATOM      9  C   UNL     1       6.372  -5.411   0.576  0.00  0.00    +0.003 A 
ATOM     10  C   UNL     1       5.802  -5.499  -0.680  0.00  0.00    +0.022 A 
ATOM     11  C   UNL     1       5.540  -4.350  -1.404  0.00  0.00    +0.069 A 
ATOM     12 CL   UNL     1       4.816  -4.461  -2.978  0.00  0.00    -0.081 Cl
ATOM     13 CL   UNL     1       6.827  -1.471   1.048  0.00  0.00    -0.081 Cl
ENDBRANCH   3   6
ENDBRANCH   1   3
BRANCH   1  14
ATOM     14  C   UNL     1       3.711  -0.707  -0.038  0.00  0.00    +0.141 C 
BRANCH  14  18
ATOM     15  C   UNL     1      -0.017   1.378   0.010  0.00  0.00    +0.000 A 
ATOM     16  C   UNL     1       1.171   2.085   0.002  0.00  0.00    +0.000 A 
ATOM     17  C   UNL     1       2.377   1.411  -0.013  0.00  0.00    +0.005 A 
ATOM     18  C   UNL     1       2.396   0.028  -0.020  0.00  0.00    -0.031 A 
ATOM     19  C   UNL     1       1.209  -0.679  -0.012  0.00  0.00    -0.060 A 
ATOM     20  C   UNL     1       0.002  -0.004   0.002  0.00  0.00    +0.002 A 
BRANCH  19  21
ATOM     21  C   UNL     1       1.229  -2.186  -0.020  0.00  0.00    -0.050 C 
BRANCH  21  22
ATOM     22  N   UNL     1       1.490  -2.680   1.338  0.00  0.00    +0.381 N 
ATOM     23  H   UNL     1       2.383  -2.333   1.656  0.00  0.00    -0.090 HD
ATOM     24  H   UNL     1       0.764  -2.357   1.959  0.00  0.00    -0.090 HD
ATOM     25  H   UNL     1       1.504  -3.689   1.332  0.00  0.00    -0.090 HD
ENDBRANCH  21  22
ENDBRANCH  19  21
ENDBRANCH  14  18
ENDBRANCH   1  14
TORSDOF 6
