REMARK  Name = ZINC67060348
REMARK  7 active torsions:
REMARK  status: ('A' for Active; 'I' for Inactive)
REMARK    1  A    between atoms: C_1  and  C_2
REMARK    2  A    between atoms: C_2  and  C_3
REMARK    3  A    between atoms: C_3  and  C_5
REMARK    4  A    between atoms: C_3  and  N_15
REMARK    5  A    between atoms: N_18  and  C_19
REMARK    6  A    between atoms: C_19  and  C_20
REMARK    7  A    between atoms: C_23  and  C_25
REMARK                            x       y       z     vdW  Elec       q    Type
REMARK                         _______ _______ _______ _____ _____    ______ ____
ROOT
ATOM      1  C   UNL     1       0.742  -0.511   1.242  0.00  0.00    +0.140 C 
ENDROOT
BRANCH   1   2
ATOM      2  C   UNL     1       0.657  -2.014   1.298  0.00  0.00    +0.129 A 
ATOM      3  N   UNL     1       1.724  -2.853   1.388  0.00  0.00    -0.340 N 
ATOM      4  H   UNL     1       2.658  -2.593   1.427  0.00  0.00    +0.167 HD
ATOM      5  C   UNL     1       1.232  -4.143   1.414  0.00  0.00    +0.066 A 
ATOM      6  C   UNL     1       1.818  -5.399   1.495  0.00  0.00    +0.028 A 
ATOM      7  C   UNL     1       1.021  -6.524   1.499  0.00  0.00    +0.002 A 
ATOM      8  C   UNL     1      -0.360  -6.409   1.421  0.00  0.00    +0.002 A 
ATOM      9  C   UNL     1      -0.953  -5.181   1.341  0.00  0.00    +0.030 A 
ATOM     10  C   UNL     1      -0.166  -4.026   1.336  0.00  0.00    +0.089 A 
ATOM     11  N   UNL     1      -0.449  -2.700   1.273  0.00  0.00    -0.231 NA
ENDBRANCH   1   2
BRANCH   1  12
ATOM     12  N   UNL     1       2.148  -0.104   1.172  0.00  0.00    -0.290 N 
ATOM     13  C   UNL     1       2.518   1.116   1.608  0.00  0.00    +0.300 C 
ATOM     14  O   UNL     1       1.686   1.879   2.060  0.00  0.00    -0.253 OA
ATOM     15  N   UNL     1       3.812   1.491   1.544  0.00  0.00    -0.295 N 
ATOM     16  H   UNL     1       2.812  -0.712   0.811  0.00  0.00    +0.151 HD
ATOM     17  H   UNL     1       4.475   0.882   1.183  0.00  0.00    +0.151 HD
BRANCH  15  18
ATOM     18  C   UNL     1       4.215   2.817   2.018  0.00  0.00    +0.148 C 
BRANCH  18  19
ATOM     19  C   UNL     1       5.701   2.985   1.837  0.00  0.00    +0.007 A 
ATOM     20  C   UNL     1       6.381   3.479   0.773  0.00  0.00    +0.013 A 
ATOM     21  C   UNL     1       7.761   3.540   0.829  0.00  0.00    +0.011 A 
ATOM     22  C   UNL     1       8.393   3.104   1.946  0.00  0.00    -0.013 A 
ATOM     23  S   UNL     1       7.023   2.592   2.970  0.00  0.00    -0.097 S 
ATOM     24  C   UNL     1       9.869   3.068   2.248  0.00  0.00    +0.051 C 
ENDBRANCH  18  19
ENDBRANCH  15  18
ENDBRANCH   1  12
BRANCH   1  26
ATOM     25  C   UNL     1      -0.019   1.526   0.010  0.00  0.00    +0.006 C 
ATOM     26  C   UNL     1       0.002  -0.004   0.002  0.00  0.00    +0.027 C 
ENDBRANCH   1  26
TORSDOF 5
