REMARK  Name = ZINC02336448
REMARK  9 active torsions:
REMARK  status: ('A' for Active; 'I' for Inactive)
REMARK    1  A    between atoms: C_1  and  C_2
REMARK    2  A    between atoms: C_2  and  C_4
REMARK    3  A    between atoms: C_2  and  O_7
REMARK    4  A    between atoms: C_4  and  O_5
REMARK    5  A    between atoms: O_5  and  C_6
REMARK    6  A    between atoms: O_7  and  C_8
REMARK    7  A    between atoms: C_8  and  C_10
REMARK    8  A    between atoms: N_21  and  C_24
REMARK    9  A    between atoms: C_22  and  N_23
REMARK                            x       y       z     vdW  Elec       q    Type
REMARK                         _______ _______ _______ _____ _____    ______ ____
ROOT
ATOM      1  C   UNL     1      -2.937   3.397  -0.672  0.00  0.00    +0.126 A 
ATOM      2  C   UNL     1      -3.285   2.875   0.661  0.00  0.00    +0.125 A 
ATOM      3  C   UNL     1      -2.156   2.027   1.054  0.00  0.00    +0.167 A 
ATOM      4  N   UNL     1      -2.182   1.414   2.217  0.00  0.00    -0.225 NA
ATOM      5  C   UNL     1      -3.234   1.570   3.031  0.00  0.00    +0.092 A 
ATOM      6  C   UNL     1      -3.269   0.918   4.277  0.00  0.00    +0.030 A 
ATOM      7  C   UNL     1      -4.343   1.082   5.097  0.00  0.00    +0.002 A 
ATOM      8  C   UNL     1      -5.415   1.889   4.721  0.00  0.00    +0.002 A 
ATOM      9  C   UNL     1      -5.418   2.535   3.524  0.00  0.00    +0.030 A 
ATOM     10  C   UNL     1      -4.325   2.390   2.649  0.00  0.00    +0.090 A 
ATOM     11  N   UNL     1      -4.316   3.021   1.468  0.00  0.00    -0.241 NA
ATOM     12  N   UNL     1      -1.241   2.069   0.019  0.00  0.00    -0.280 N 
ATOM     13  C   UNL     1      -1.688   2.870  -0.988  0.00  0.00    +0.119 A 
ENDROOT
BRANCH  12  14
ATOM     14  C   UNL     1      -0.017   1.384   0.010  0.00  0.00    +0.053 A 
ATOM     15  C   UNL     1       0.002  -0.004   0.002  0.00  0.00    +0.030 A 
ATOM     16  C   UNL     1       1.207  -0.680  -0.013  0.00  0.00    +0.051 A 
ATOM     17  C   UNL     1       2.400   0.025  -0.022  0.00  0.00    +0.166 A 
ATOM     18  C   UNL     1       2.384   1.418  -0.013  0.00  0.00    +0.168 A 
ATOM     19  C   UNL     1       1.176   2.094   0.002  0.00  0.00    +0.075 A 
ATOM     20  O   UNL     1       3.672   1.869  -0.023  0.00  0.00    -0.453 OA
ATOM     21  C   UNL     1       4.477   0.743   0.375  0.00  0.00    +0.466 C 
ATOM     22  O   UNL     1       3.699  -0.396  -0.036  0.00  0.00    -0.453 OA
ENDBRANCH  12  14
BRANCH  13  23
ATOM     23  N   UNL     1      -1.005   3.120  -2.149  0.00  0.00    -0.343 N 
ATOM     24  H   UNL     1      -0.137   2.714  -2.299  0.00  0.00    +0.144 HD
ATOM     25  H   UNL     1      -1.389   3.704  -2.821  0.00  0.00    +0.144 HD
ENDBRANCH  13  23
BRANCH   1  26
ATOM     26  C   UNL     1      -3.716   4.267  -1.471  0.00  0.00    +0.345 C 
ATOM     27  O   UNL     1      -3.583   5.472  -1.367  0.00  0.00    -0.245 OA
BRANCH  26  28
ATOM     28  O   UNL     1      -4.608   3.760  -2.349  0.00  0.00    -0.456 OA
BRANCH  28  30
ATOM     29  C   UNL     1      -6.648   5.056  -2.378  0.00  0.00    +0.054 C 
ATOM     30  C   UNL     1      -5.360   4.697  -3.123  0.00  0.00    +0.199 C 
BRANCH  30  31
ATOM     31  C   UNL     1      -5.710   4.075  -4.476  0.00  0.00    +0.203 C 
BRANCH  31  32
ATOM     32  O   UNL     1      -6.583   2.961  -4.277  0.00  0.00    -0.379 OA
ATOM     33  C   UNL     1      -6.973   2.305  -5.486  0.00  0.00    +0.194 C 
ENDBRANCH  31  32
ENDBRANCH  30  31
ENDBRANCH  28  30
ENDBRANCH  26  28
ENDBRANCH   1  26
TORSDOF 7
