REMARK  Name = ZINC08973586
REMARK  1 active torsions:
REMARK  status: ('A' for Active; 'I' for Inactive)
REMARK    1  A    between atoms: C_11  and  C_21
REMARK                            x       y       z     vdW  Elec       q    Type
REMARK                         _______ _______ _______ _____ _____    ______ ____
ROOT
ATOM      1  C   UNL     1      -0.017   1.393   0.010  0.00  0.00    +0.001 A 
ATOM      2  C   UNL     1       1.140   2.137   0.003  0.00  0.00    +0.001 A 
ATOM      3  C   UNL     1       2.403   1.535  -0.013  0.00  0.00    +0.012 A 
ATOM      4  C   UNL     1       2.437   0.154  -0.021  0.00  0.00    +0.031 A 
ATOM      5  C   UNL     1       1.246  -0.616  -0.013  0.00  0.00    +0.007 A 
ATOM      6  C   UNL     1       0.002  -0.004   0.002  0.00  0.00    +0.010 A 
ATOM      7  C   UNL     1       1.643  -2.027  -0.025  0.00  0.00    +0.047 C 
ATOM      8  C   UNL     1       3.012  -2.107  -0.041  0.00  0.00    +0.033 C 
ATOM      9  C   UNL     1       3.563  -0.805  -0.037  0.00  0.00    +0.193 C 
ATOM     10  O   UNL     1       4.746  -0.525  -0.046  0.00  0.00    -0.287 OA
ATOM     11  C   UNL     1       3.740  -3.424  -0.062  0.00  0.00    +0.089 C 
ATOM     12  C   UNL     1       2.780  -4.541   0.284  0.00  0.00    +0.024 C 
ATOM     13  C   UNL     1       1.444  -4.364   0.291  0.00  0.00    +0.016 C 
ATOM     14  N   UNL     1       0.862  -3.159  -0.018  0.00  0.00    -0.317 N 
ATOM     15  C   UNL     1       0.515  -5.501   0.653  0.00  0.00    +0.051 C 
ATOM     16  C   UNL     1       1.137  -6.831   0.224  0.00  0.00    +0.014 C 
ATOM     17  C   UNL     1       2.488  -6.981   0.932  0.00  0.00    +0.080 C 
ATOM     18  C   UNL     1       3.346  -5.792   0.600  0.00  0.00    +0.162 C 
ATOM     19  O   UNL     1       4.555  -5.913   0.604  0.00  0.00    -0.292 OA
ATOM     20  H   UNL     1      -0.084  -3.107  -0.229  0.00  0.00    +0.152 HD
ENDROOT
BRANCH  11  21
ATOM     21  C   UNL     1       4.309  -3.660  -1.438  0.00  0.00    -0.032 A 
ATOM     22  C   UNL     1       3.466  -3.719  -2.532  0.00  0.00    +0.008 A 
ATOM     23  C   UNL     1       3.983  -3.935  -3.796  0.00  0.00    +0.050 A 
ATOM     24  C   UNL     1       5.348  -4.093  -3.968  0.00  0.00    +0.166 A 
ATOM     25  C   UNL     1       6.197  -4.033  -2.866  0.00  0.00    +0.167 A 
ATOM     26  C   UNL     1       5.673  -3.811  -1.603  0.00  0.00    +0.054 A 
ATOM     27  O   UNL     1       7.481  -4.217  -3.294  0.00  0.00    -0.453 OA
ATOM     28  C   UNL     1       7.369  -4.795  -4.608  0.00  0.00    +0.466 C 
ATOM     29  O   UNL     1       6.099  -4.314  -5.087  0.00  0.00    -0.453 OA
ENDBRANCH  11  21
TORSDOF 1
