REMARK  Name = ZINC19322209
REMARK  7 active torsions:
REMARK  status: ('A' for Active; 'I' for Inactive)
REMARK    1  A    between atoms: C_4  and  O_26
REMARK    2  A    between atoms: C_5  and  C_7
REMARK    3  A    between atoms: C_7  and  N_8
REMARK    4  A    between atoms: N_11  and  C_18
REMARK    5  A    between atoms: C_12  and  C_13
REMARK    6  A    between atoms: C_18  and  C_19
REMARK    7  A    between atoms: C_24  and  O_25
REMARK                            x       y       z     vdW  Elec       q    Type
REMARK                         _______ _______ _______ _____ _____    ______ ____
ROOT
ATOM      1  N   UNL     1      -0.618   1.607  -1.280  0.00  0.00    +0.397 N 
ATOM      2  C   UNL     1       0.141   1.055  -0.133  0.00  0.00    -0.060 C 
ATOM      3  C   UNL     1      -0.664   1.532   1.102  0.00  0.00    +0.065 C 
ATOM      4  N   UNL     1      -2.069   1.439   0.610  0.00  0.00    -0.308 NA
ATOM      5  C   UNL     1      -1.995   1.849  -0.810  0.00  0.00    +0.040 C 
ATOM      6  H   UNL     1      -0.161   2.540  -1.642  0.00  0.00    -0.078 HD
ENDROOT
BRANCH   5   7
ATOM      7  C   UNL     1      -2.964   1.035  -1.627  0.00  0.00    -0.010 A 
ATOM      8  C   UNL     1      -3.901   1.458  -2.511  0.00  0.00    +0.011 A 
ATOM      9  C   UNL     1      -4.685   0.520  -3.157  0.00  0.00    +0.008 A 
ATOM     10  C   UNL     1      -4.501  -0.794  -2.879  0.00  0.00    +0.045 A 
ATOM     11  S   UNL     1      -3.181  -0.736  -1.678  0.00  0.00    -0.102 S 
ENDBRANCH   5   7
BRANCH   1  12
ATOM     12  C   UNL     1      -0.606   0.675  -2.416  0.00  0.00    -0.037 C 
BRANCH  12  17
ATOM     13  C   UNL     1       2.459   1.273  -4.539  0.00  0.00    +0.000 A 
ATOM     14  C   UNL     1       3.363   0.388  -3.980  0.00  0.00    +0.004 A 
ATOM     15  C   UNL     1       2.986  -0.406  -2.914  0.00  0.00    +0.045 A 
ATOM     16  C   UNL     1       1.700  -0.311  -2.401  0.00  0.00    +0.118 A 
ATOM     17  C   UNL     1       0.793   0.574  -2.967  0.00  0.00    -0.022 A 
ATOM     18  C   UNL     1       1.176   1.365  -4.033  0.00  0.00    +0.005 A 
BRANCH  16  19
ATOM     19  O   UNL     1       1.328  -1.087  -1.350  0.00  0.00    -0.507 OA
ATOM     20  H   UNL     1       0.308  -1.012  -0.944  0.00  0.00    +0.292 HD
ENDBRANCH  16  19
ENDBRANCH  12  17
ENDBRANCH   1  12
BRANCH   4  21
ATOM     21  C   UNL     1      -2.953   2.332   1.370  0.00  0.00    +0.121 C 
BRANCH  21  22
ATOM     22  C   UNL     1      -3.200   1.749   2.738  0.00  0.00    +0.008 A 
ATOM     23  C   UNL     1      -4.373   1.067   2.998  0.00  0.00    +0.008 A 
ATOM     24  C   UNL     1      -4.599   0.532   4.252  0.00  0.00    +0.001 A 
ATOM     25  C   UNL     1      -3.653   0.677   5.250  0.00  0.00    +0.004 A 
ATOM     26  C   UNL     1      -2.478   1.357   4.995  0.00  0.00    +0.046 A 
ATOM     27  C   UNL     1      -2.246   1.891   3.735  0.00  0.00    +0.121 A 
BRANCH  27  28
ATOM     28  O   UNL     1      -1.089   2.557   3.481  0.00  0.00    -0.506 OA
ATOM     29  H   UNL     1      -0.333   2.669   4.272  0.00  0.00    +0.292 HD
ENDBRANCH  27  28
ENDBRANCH  21  22
ENDBRANCH   4  21
TORSDOF 7
