REMARK  Name = ZINC37361973
REMARK  3 active torsions:
REMARK  status: ('A' for Active; 'I' for Inactive)
REMARK    1  A    between atoms: C_2  and  C_12
REMARK    2  A    between atoms: C_12  and  C_14
REMARK    3  A    between atoms: C_12  and  N_17
REMARK                            x       y       z     vdW  Elec       q    Type
REMARK                         _______ _______ _______ _____ _____    ______ ____
ROOT
ATOM      1  C   UNL     1      -0.017   1.383   0.010  0.00  0.00    +0.052 A 
ATOM      2  C   UNL     1       1.170   2.092   0.002  0.00  0.00    -0.045 A 
ATOM      3  C   UNL     1       2.378   1.422  -0.013  0.00  0.00    +0.026 A 
ATOM      4  C   UNL     1       2.405   0.039  -0.023  0.00  0.00    +0.086 A 
ATOM      5  C   UNL     1       1.217  -0.679  -0.016  0.00  0.00    +0.180 A 
ATOM      6  C   UNL     1       0.002  -0.004   0.002  0.00  0.00    +0.164 A 
ATOM      7  O   UNL     1      -1.175  -0.688   0.016  0.00  0.00    -0.485 OA
ATOM      8  C   UNL     1      -1.122  -2.066  -0.368  0.00  0.00    +0.270 C 
ATOM      9  C   UNL     1       0.060  -2.723   0.356  0.00  0.00    +0.270 C 
ATOM     10  O   UNL     1       1.258  -2.039  -0.030  0.00  0.00    -0.483 OA
ATOM     11 CL   UNL     1       3.924  -0.800  -0.043  0.00  0.00    -0.080 Cl
ENDROOT
BRANCH   2  12
ATOM     12  C   UNL     1       1.145   3.599   0.010  0.00  0.00    +0.078 C 
BRANCH  12  13
ATOM     13  N   UNL     1       2.207   4.101   0.893  0.00  0.00    +0.391 N 
ATOM     14  C   UNL     1       1.991   3.593   2.253  0.00  0.00    -0.077 C 
ATOM     15  C   UNL     1       3.138   4.046   3.159  0.00  0.00    -0.019 C 
ATOM     16  C   UNL     1       3.185   5.577   3.186  0.00  0.00    -0.004 C 
ATOM     17  C   UNL     1       3.336   6.098   1.754  0.00  0.00    -0.019 C 
ATOM     18  C   UNL     1       2.182   5.568   0.900  0.00  0.00    -0.077 C 
ATOM     19  H   UNL     1       3.103   3.782   0.555  0.00  0.00    -0.080 HD
ENDBRANCH  12  13
BRANCH  12  20
ATOM     20  C   UNL     1       1.371   4.112  -1.389  0.00  0.00    +0.347 C 
ATOM     21  O   UNL     1       0.508   3.966  -2.238  0.00  0.00    -0.248 OA
ATOM     22  O   UNL     1       2.415   4.675  -1.671  0.00  0.00    -0.248 OA
ENDBRANCH  12  20
ENDBRANCH   2  12
TORSDOF 3
