REMARK  Name = ZINC42607670
REMARK  9 active torsions:
REMARK  status: ('A' for Active; 'I' for Inactive)
REMARK    1  A    between atoms: C_1  and  C_2
REMARK    2  A    between atoms: C_8  and  N_10
REMARK    3  A    between atoms: N_10  and  C_11
REMARK    4  A    between atoms: N_10  and  C_12
REMARK    5  A    between atoms: C_12  and  C_13
REMARK    6  A    between atoms: C_13  and  C_15
REMARK    7  A    between atoms: C_13  and  O_24
REMARK    8  A    between atoms: C_18  and  C_21
REMARK    9  A    between atoms: C_21  and  N_23
REMARK                            x       y       z     vdW  Elec       q    Type
REMARK                         _______ _______ _______ _____ _____    ______ ____
ROOT
ATOM      1  C   UNL     1       4.095   0.009   2.655  0.00  0.00    +0.128 C 
ENDROOT
BRANCH   1   2
ATOM      2  C   UNL     1       4.750  -0.649   3.842  0.00  0.00    -0.021 A 
ATOM      3  C   UNL     1       5.420  -1.849   3.681  0.00  0.00    +0.007 A 
ATOM      4  C   UNL     1       6.022  -2.457   4.763  0.00  0.00    +0.010 A 
ATOM      5  C   UNL     1       5.954  -1.858   6.023  0.00  0.00    +0.003 A 
ATOM      6  C   UNL     1       5.276  -0.647   6.178  0.00  0.00    +0.010 A 
ATOM      7  C   UNL     1       4.683  -0.048   5.086  0.00  0.00    +0.007 A 
BRANCH   5   8
ATOM      8  C   UNL     1       6.596  -2.503   7.186  0.00  0.00    +0.077 C 
ATOM      9  S   UNL     1       8.062  -3.364   6.986  0.00  0.00    -0.035 S 
BRANCH   8  10
ATOM     10  N   UNL     1       6.027  -2.414   8.404  0.00  0.00    -0.352 N 
ATOM     11  H   UNL     1       5.196  -1.927   8.517  0.00  0.00    +0.143 HD
ATOM     12  H   UNL     1       6.449  -2.838   9.168  0.00  0.00    +0.143 HD
ENDBRANCH   8  10
ENDBRANCH   5   8
ENDBRANCH   1   2
BRANCH   1  13
ATOM     13  O   UNL     1       4.879  -0.230   1.485  0.00  0.00    -0.389 OA
ATOM     14  H   UNL     1       4.987  -1.166   1.268  0.00  0.00    +0.210 HD
ENDBRANCH   1  13
BRANCH   1  15
ATOM     15  C   UNL     1       2.694  -0.573   2.458  0.00  0.00    -0.042 C 
BRANCH  15  16
ATOM     16  N   UNL     1       1.985   0.197   1.427  0.00  0.00    +0.382 N 
ATOM     17  C   UNL     1       2.635  -0.012   0.126  0.00  0.00    -0.096 C 
ATOM     18  H   UNL     1       2.010   1.178   1.662  0.00  0.00    -0.082 HD
BRANCH  16  25
ATOM     19  C   UNL     1      -0.112   2.036   0.637  0.00  0.00    +0.006 C 
ATOM     20  C   UNL     1      -0.151   0.549   0.281  0.00  0.00    -0.028 C 
ATOM     21  C   UNL     1      -1.605   0.080   0.205  0.00  0.00    +0.002 C 
ATOM     22  C   UNL     1      -2.282   0.298   1.560  0.00  0.00    +0.000 C 
ATOM     23  C   UNL     1      -1.544  -0.504   2.633  0.00  0.00    -0.002 C 
ATOM     24  C   UNL     1      -0.089  -0.035   2.709  0.00  0.00    -0.015 C 
ATOM     25  C   UNL     1       0.588  -0.253   1.354  0.00  0.00    -0.066 C 
ENDBRANCH  16  25
ENDBRANCH  15  16
ENDBRANCH   1  15
TORSDOF 7
