REMARK  Name = ZINC12323405
REMARK  6 active torsions:
REMARK  status: ('A' for Active; 'I' for Inactive)
REMARK    1  A    between atoms: C_1  and  O_2
REMARK    2  A    between atoms: O_2  and  C_3
REMARK    3  A    between atoms: C_7  and  C_11
REMARK    4  A    between atoms: C_8  and  O_9
REMARK    5  A    between atoms: O_9  and  C_10
REMARK    6  A    between atoms: C_16  and  C_21
REMARK                            x       y       z     vdW  Elec       q    Type
REMARK                         _______ _______ _______ _____ _____    ______ ____
ROOT
ATOM      1  C   UNL     1      -1.123  -1.819   1.194  0.00  0.00    +0.141 C 
ATOM      2  C   UNL     1      -0.046  -2.862   1.416  0.00  0.00    +0.037 C 
ATOM      3  C   UNL     1       1.198  -2.941   0.924  0.00  0.00    +0.019 C 
ATOM      4  C   UNL     1       2.138  -4.056   1.353  0.00  0.00    +0.060 C 
ATOM      5  C   UNL     1       1.346  -5.347   1.557  0.00  0.00    +0.039 C 
ATOM      6  C   UNL     1       0.320  -5.080   2.665  0.00  0.00    +0.088 C 
ATOM      7  C   UNL     1      -0.504  -3.891   2.288  0.00  0.00    +0.163 C 
ATOM      8  O   UNL     1      -1.624  -3.798   2.749  0.00  0.00    -0.292 OA
ATOM      9  N   UNL     1       1.748  -2.068   0.033  0.00  0.00    -0.297 N 
ATOM     10  C   UNL     1       1.593  -0.693   0.137  0.00  0.00    +0.208 A 
ATOM     11  C   UNL     1       0.261  -0.106   0.107  0.00  0.00    +0.205 A 
ATOM     12  N   UNL     1       0.373   1.185   0.137  0.00  0.00    -0.032 NA
ATOM     13  O   UNL     1       1.760   1.487   0.223  0.00  0.00    -0.239 OA
ATOM     14  N   UNL     1       2.469   0.255   0.227  0.00  0.00    -0.032 NA
ATOM     15  N   UNL     1      -0.884  -0.900   0.095  0.00  0.00    -0.312 N 
ATOM     16  H   UNL     1       2.270  -2.423  -0.705  0.00  0.00    +0.153 HD
ATOM     17  H   UNL     1      -1.515  -0.840  -0.639  0.00  0.00    +0.149 HD
ENDROOT
BRANCH   1  22
ATOM     18  C   UNL     1      -2.533   0.500   3.833  0.00  0.00    +0.162 A 
ATOM     19  C   UNL     1      -1.531   0.464   4.789  0.00  0.00    +0.049 A 
ATOM     20  C   UNL     1      -0.403  -0.308   4.580  0.00  0.00    +0.004 A 
ATOM     21  C   UNL     1      -0.273  -1.046   3.418  0.00  0.00    +0.009 A 
ATOM     22  C   UNL     1      -1.268  -1.014   2.460  0.00  0.00    +0.023 A 
ATOM     23  C   UNL     1      -2.398  -0.237   2.660  0.00  0.00    +0.167 A 
BRANCH  18  25
ATOM     24  C   UNL     1      -3.709   1.995   5.260  0.00  0.00    +0.277 C 
ATOM     25  O   UNL     1      -3.642   1.260   4.037  0.00  0.00    -0.491 OA
ENDBRANCH  18  25
BRANCH  23  26
ATOM     26  O   UNL     1      -3.376  -0.201   1.716  0.00  0.00    -0.491 OA
ATOM     27  C   UNL     1      -4.480  -1.091   1.890  0.00  0.00    +0.277 C 
ENDBRANCH  23  26
ENDBRANCH   1  22
BRANCH   5  28
ATOM     28  C   UNL     1       2.274  -6.458   1.974  0.00  0.00    -0.006 A 
ATOM     29  C   UNL     1       2.494  -7.656   1.379  0.00  0.00    +0.011 A 
ATOM     30  C   UNL     1       3.403  -8.530   1.946  0.00  0.00    +0.008 A 
ATOM     31  C   UNL     1       4.048  -8.163   3.080  0.00  0.00    +0.045 A 
ATOM     32  S   UNL     1       3.376  -6.536   3.377  0.00  0.00    -0.101 S 
ENDBRANCH   5  28
TORSDOF 4
