REMARK  Name = ZINC39695947
REMARK  8 active torsions:
REMARK  status: ('A' for Active; 'I' for Inactive)
REMARK    1  A    between atoms: C_1  and  C_2
REMARK    2  A    between atoms: C_2  and  C_3
REMARK    3  A    between atoms: C_6  and  C_9
REMARK    4  A    between atoms: C_9  and  C_11
REMARK    5  A    between atoms: C_9  and  N_12
REMARK    6  A    between atoms: C_13  and  C_15
REMARK    7  A    between atoms: C_26  and  C_28
REMARK    8  A    between atoms: C_33  and  C_34
REMARK                            x       y       z     vdW  Elec       q    Type
REMARK                         _______ _______ _______ _____ _____    ______ ____
ROOT
ATOM      1  C   UNL     1       6.558  -0.570  -6.185  0.00  0.00    +0.100 C 
ATOM      2  C   UNL     1       6.142   0.877  -5.834  0.00  0.00    +0.121 C 
ATOM      3  N   UNL     1       6.831   1.719  -6.840  0.00  0.00    -0.296 N 
ATOM      4  C   UNL     1       6.727   0.946  -8.101  0.00  0.00    +0.115 C 
ATOM      5  C   UNL     1       6.940  -0.520  -7.674  0.00  0.00    -0.004 C 
ATOM      6  C   UNL     1       6.033  -1.442  -8.483  0.00  0.00    -0.010 C 
ATOM      7  C   UNL     1       6.470  -1.421  -9.951  0.00  0.00    -0.082 C 
ATOM      8  N   UNL     1       7.866  -1.861 -10.054  0.00  0.00    +0.379 N 
ATOM      9  C   UNL     1       8.742  -0.917  -9.350  0.00  0.00    -0.082 C 
ATOM     10  C   UNL     1       8.402  -0.917  -7.857  0.00  0.00    -0.010 C 
ATOM     11  C   UNL     1       7.419   2.917  -6.652  0.00  0.00    +0.247 C 
ATOM     12  O   UNL     1       7.857   3.535  -7.602  0.00  0.00    -0.270 OA
ATOM     13  H   UNL     1       7.960  -2.777  -9.641  0.00  0.00    -0.086 HD
ATOM     14  H   UNL     1       8.132  -1.905 -11.026  0.00  0.00    -0.086 HD
ENDROOT
BRANCH  11  15
ATOM     15  C   UNL     1       7.531   3.479  -5.289  0.00  0.00    +0.049 A 
ATOM     16  C   UNL     1       6.499   3.293  -4.367  0.00  0.00    +0.013 A 
ATOM     17  C   UNL     1       6.610   3.820  -3.097  0.00  0.00    +0.001 A 
ATOM     18  C   UNL     1       7.741   4.532  -2.736  0.00  0.00    +0.001 A 
ATOM     19  C   UNL     1       8.767   4.720  -3.645  0.00  0.00    +0.013 A 
ATOM     20  C   UNL     1       8.671   4.193  -4.917  0.00  0.00    +0.067 A 
BRANCH  20  21
ATOM     21  C   UNL     1       9.792   4.393  -5.903  0.00  0.00    +0.418 C 
ATOM     22  F   UNL     1      10.816   5.133  -5.302  0.00  0.00    -0.166 F 
ATOM     23  F   UNL     1      10.289   3.148  -6.303  0.00  0.00    -0.166 F 
ATOM     24  F   UNL     1       9.312   5.084  -7.021  0.00  0.00    -0.166 F 
ENDBRANCH  20  21
ENDBRANCH  11  15
BRANCH   1  26
ATOM     25  N   UNL     1       5.636  -2.798  -5.634  0.00  0.00    -0.308 N 
ATOM     26  C   UNL     1       5.403  -1.514  -5.971  0.00  0.00    +0.219 C 
ATOM     27  O   UNL     1       4.264  -1.118  -6.101  0.00  0.00    -0.275 OA
ATOM     28  H   UNL     1       6.547  -3.114  -5.530  0.00  0.00    +0.149 HD
BRANCH  25  29
ATOM     29  C   UNL     1       4.513  -3.716  -5.426  0.00  0.00    +0.100 C 
ATOM     30  C   UNL     1       4.077  -4.301  -6.770  0.00  0.00    +0.033 C 
BRANCH  29  34
ATOM     31  C   UNL     1       5.724  -6.880  -2.824  0.00  0.00    -0.048 A 
ATOM     32  C   UNL     1       4.465  -6.323  -2.696  0.00  0.00    +0.004 A 
ATOM     33  C   UNL     1       4.074  -5.299  -3.537  0.00  0.00    +0.006 A 
ATOM     34  C   UNL     1       4.941  -4.832  -4.507  0.00  0.00    -0.027 A 
ATOM     35  C   UNL     1       6.200  -5.388  -4.635  0.00  0.00    +0.006 A 
ATOM     36  C   UNL     1       6.593  -6.410  -3.791  0.00  0.00    +0.004 A 
BRANCH  31  38
ATOM     37  C   UNL     1       6.813  -7.407  -0.659  0.00  0.00    +0.009 C 
ATOM     38  C   UNL     1       6.151  -7.997  -1.906  0.00  0.00    +0.032 C 
ENDBRANCH  31  38
ENDBRANCH  29  34
ENDBRANCH  25  29
ENDBRANCH   1  26
TORSDOF 6
