REMARK  Name = ZINC13068368
REMARK  11 active torsions:
REMARK  status: ('A' for Active; 'I' for Inactive)
REMARK    1  A    between atoms: C_1  and  C_2
REMARK    2  A    between atoms: C_2  and  C_4
REMARK    3  A    between atoms: C_2  and  N_24
REMARK    4  A    between atoms: C_4  and  O_6
REMARK    5  A    between atoms: O_6  and  C_7
REMARK    6  A    between atoms: C_7  and  C_8
REMARK    7  A    between atoms: N_10  and  C_11
REMARK    8  A    between atoms: C_25  and  C_27
REMARK    9  A    between atoms: C_28  and  C_29
REMARK   10  A    between atoms: C_32  and  O_35
REMARK   11  A    between atoms: O_35  and  C_36
REMARK                            x       y       z     vdW  Elec       q    Type
REMARK                         _______ _______ _______ _____ _____    ______ ____
ROOT
ATOM      1  O   UNL     1       2.025   4.332  -0.684  0.00  0.00    -0.454 OA
ENDROOT
BRANCH   1   2
ATOM      2  C   UNL     1       1.003   3.470  -0.566  0.00  0.00    +0.328 C 
ATOM      3  O   UNL     1      -0.102   3.788  -0.935  0.00  0.00    -0.249 OA
BRANCH   2   5
ATOM      4  C   UNL     1       1.762   2.250   1.455  0.00  0.00    +0.040 C 
ATOM      5  C   UNL     1       1.236   2.103   0.026  0.00  0.00    +0.179 C 
BRANCH   5   6
ATOM      6  N   UNL     1      -0.025   1.358   0.045  0.00  0.00    -0.299 N 
ATOM      7  C   UNL     1      -0.012   0.011   0.040  0.00  0.00    +0.238 C 
ATOM      8  O   UNL     1       1.048  -0.587   0.021  0.00  0.00    -0.271 OA
ATOM      9  H   UNL     1      -0.870   1.835   0.056  0.00  0.00    +0.150 HD
BRANCH   7  10
ATOM     10  C   UNL     1      -1.271  -0.734   0.059  0.00  0.00    +0.068 C 
ATOM     11  C   UNL     1      -1.258  -2.083   0.054  0.00  0.00    +0.013 C 
BRANCH  11  12
ATOM     12  C   UNL     1      -2.523  -2.831   0.073  0.00  0.00    -0.025 A 
ATOM     13  C   UNL     1      -3.743  -2.146   0.101  0.00  0.00    +0.011 A 
ATOM     14  C   UNL     1      -4.926  -2.851   0.112  0.00  0.00    +0.046 A 
ATOM     15  C   UNL     1      -4.909  -4.241   0.107  0.00  0.00    +0.120 A 
ATOM     16  C   UNL     1      -3.700  -4.926   0.086  0.00  0.00    +0.046 A 
ATOM     17  C   UNL     1      -2.512  -4.231   0.068  0.00  0.00    +0.011 A 
BRANCH  15  18
ATOM     18  O   UNL     1      -6.077  -4.931   0.124  0.00  0.00    -0.495 OA
ATOM     19  C   UNL     1      -7.283  -4.165   0.146  0.00  0.00    +0.277 C 
ENDBRANCH  15  18
ENDBRANCH  11  12
ENDBRANCH   7  10
ENDBRANCH   5   6
ENDBRANCH   2   5
ENDBRANCH   1   2
BRANCH   1  20
ATOM     20  C   UNL     1       1.727   5.630  -1.264  0.00  0.00    +0.328 C 
BRANCH  20  21
ATOM     21  C   UNL     1       2.986   6.457  -1.315  0.00  0.00    +0.255 C 
ATOM     22  O   UNL     1       4.031   5.998  -0.904  0.00  0.00    -0.272 OA
ATOM     23  N   UNL     1       2.951   7.707  -1.818  0.00  0.00    -0.282 N 
ATOM     24  H   UNL     1       2.135   8.046  -2.220  0.00  0.00    +0.155 HD
BRANCH  23  25
ATOM     25  C   UNL     1       4.092   8.518  -1.761  0.00  0.00    +0.050 A 
ATOM     26  C   UNL     1       5.054   8.292  -0.787  0.00  0.00    +0.052 A 
ATOM     27  C   UNL     1       6.181   9.095  -0.733  0.00  0.00    +0.069 A 
ATOM     28  C   UNL     1       6.346  10.129  -1.657  0.00  0.00    +0.068 A 
ATOM     29  C   UNL     1       5.382  10.350  -2.628  0.00  0.00    +0.045 A 
ATOM     30  C   UNL     1       4.261   9.544  -2.684  0.00  0.00    +0.041 A 
ATOM     31 BR   UNL     1       2.951   9.842  -4.014  0.00  0.00    -0.048 Br
ATOM     32  N   UNL     1       7.557  10.751  -1.354  0.00  0.00    -0.306 N 
ATOM     33  H   UNL     1       7.942  11.506  -1.826  0.00  0.00    +0.170 HD
ATOM     34  C   UNL     1       8.102  10.123  -0.294  0.00  0.00    +0.325 A 
ATOM     35  O   UNL     1       9.162  10.418   0.225  0.00  0.00    -0.247 OA
ATOM     36  N   UNL     1       7.296   9.121   0.103  0.00  0.00    -0.306 N 
ATOM     37  H   UNL     1       7.463   8.519   0.845  0.00  0.00    +0.170 HD
ENDBRANCH  23  25
ENDBRANCH  20  21
ENDBRANCH   1  20
TORSDOF 9
