REMARK  Name = ZINC12242504
REMARK  12 active torsions:
REMARK  status: ('A' for Active; 'I' for Inactive)
REMARK    1  A    between atoms: C_1  and  C_2
REMARK    2  A    between atoms: C_4  and  C_10
REMARK    3  A    between atoms: C_7  and  O_8
REMARK    4  A    between atoms: O_8  and  C_9
REMARK    5  A    between atoms: C_10  and  N_69
REMARK    6  A    between atoms: C_12  and  S_30
REMARK    7  A    between atoms: C_15  and  C_17
REMARK    8  A    between atoms: N_19  and  C_20
REMARK    9  A    between atoms: C_20  and  C_21
REMARK   10  A    between atoms: S_30  and  C_31
REMARK   11  A    between atoms: C_34  and  O_37
REMARK   12  A    between atoms: O_37  and  C_38
REMARK                            x       y       z     vdW  Elec       q    Type
REMARK                         _______ _______ _______ _____ _____    ______ ____
ROOT
ATOM      1  C   UNL     1      -5.681  -2.447   1.742  0.00  0.00    -0.063 C 
ATOM      2  C   UNL     1      -6.275  -3.693   2.434  0.00  0.00    +0.034 C 
ATOM      3  C   UNL     1      -7.457  -3.161   3.271  0.00  0.00    +0.006 C 
ATOM      4  C   UNL     1      -7.477  -1.639   3.014  0.00  0.00    +0.021 C 
ATOM      5  N   UNL     1      -6.100  -1.344   2.603  0.00  0.00    +0.391 N 
ATOM      6  H   UNL     1      -5.490  -1.291   3.427  0.00  0.00    -0.080 HD
ENDROOT
BRANCH   4   7
ATOM      7  C   UNL     1      -7.845  -0.898   4.274  0.00  0.00    +0.200 C 
ATOM      8  O   UNL     1      -7.039  -0.160   4.801  0.00  0.00    -0.278 OA
ATOM      9  N   UNL     1      -9.068  -1.057   4.816  0.00  0.00    -0.311 N 
ATOM     10  H   UNL     1      -9.713  -1.647   4.396  0.00  0.00    +0.149 HD
BRANCH   9  11
ATOM     11  C   UNL     1      -9.426  -0.337   6.041  0.00  0.00    +0.161 C 
BRANCH  11  12
ATOM     12  C   UNL     1     -10.838  -0.686   6.435  0.00  0.00    +0.077 A 
ATOM     13  C   UNL     1     -11.196  -1.645   7.317  0.00  0.00    +0.117 A 
ATOM     14  N   UNL     1     -12.562  -1.639   7.388  0.00  0.00    -0.306 N 
ATOM     15  C   UNL     1     -13.453  -2.382   8.107  0.00  0.00    +0.092 A 
ATOM     16  C   UNL     1     -14.780  -2.167   7.990  0.00  0.00    +0.018 A 
ATOM     17  C   UNL     1     -15.263  -1.172   7.125  0.00  0.00    +0.005 A 
ATOM     18  C   UNL     1     -14.387  -0.424   6.402  0.00  0.00    +0.047 A 
ATOM     19  C   UNL     1     -13.004  -0.660   6.536  0.00  0.00    +0.138 A 
ATOM     20  N   UNL     1     -11.944  -0.095   5.976  0.00  0.00    -0.231 NA
ENDBRANCH  11  12
ENDBRANCH   9  11
ENDBRANCH   4   7
BRANCH   5  21
ATOM     21  C   UNL     1      -6.042  -0.042   1.865  0.00  0.00    -0.042 C 
BRANCH  21  25
ATOM     22  C   UNL     1      -2.018   2.437   3.507  0.00  0.00    +0.047 C 
ATOM     23  C   UNL     1      -2.683   1.569   2.470  0.00  0.00    -0.009 A 
ATOM     24  C   UNL     1      -4.000   1.184   2.631  0.00  0.00    +0.008 A 
ATOM     25  C   UNL     1      -4.608   0.383   1.683  0.00  0.00    -0.063 A 
ATOM     26  C   UNL     1      -3.902  -0.029   0.567  0.00  0.00    +0.005 A 
ATOM     27  C   UNL     1      -2.588   0.359   0.398  0.00  0.00    +0.046 A 
ATOM     28  C   UNL     1      -1.975   1.163   1.348  0.00  0.00    +0.123 A 
BRANCH  28  29
ATOM     29  O   UNL     1      -0.682   1.547   1.184  0.00  0.00    -0.495 OA
ATOM     30  C   UNL     1      -0.013   1.086   0.008  0.00  0.00    +0.277 C 
ENDBRANCH  28  29
ENDBRANCH  21  25
ENDBRANCH   5  21
BRANCH   2  31
ATOM     31  S   UNL     1      -6.864  -4.880   1.196  0.00  0.00    -0.124 S 
BRANCH  31  32
ATOM     32  C   UNL     1      -5.388  -5.484   0.448  0.00  0.00    +0.008 A 
ATOM     33  C   UNL     1      -4.151  -5.009   0.867  0.00  0.00    +0.018 A 
ATOM     34  C   UNL     1      -2.994  -5.486   0.283  0.00  0.00    +0.047 A 
ATOM     35  C   UNL     1      -3.067  -6.431  -0.729  0.00  0.00    +0.120 A 
ATOM     36  C   UNL     1      -4.301  -6.902  -1.153  0.00  0.00    +0.047 A 
ATOM     37  C   UNL     1      -5.459  -6.431  -0.567  0.00  0.00    +0.018 A 
BRANCH  35  38
ATOM     38  O   UNL     1      -1.927  -6.897  -1.307  0.00  0.00    -0.495 OA
ATOM     39  C   UNL     1      -0.691  -6.369  -0.821  0.00  0.00    +0.277 C 
ENDBRANCH  35  38
ENDBRANCH  31  32
ENDBRANCH   2  31
TORSDOF 9
