REMARK  Name = ZINC65076945
REMARK  6 active torsions:
REMARK  status: ('A' for Active; 'I' for Inactive)
REMARK    1  A    between atoms: C_1  and  O_2
REMARK    2  A    between atoms: O_2  and  C_3
REMARK    3  A    between atoms: C_8  and  C_9
REMARK    4  A    between atoms: C_12  and  C_15
REMARK    5  A    between atoms: C_21  and  C_23
REMARK    6  A    between atoms: C_23  and  C_24
REMARK                            x       y       z     vdW  Elec       q    Type
REMARK                         _______ _______ _______ _____ _____    ______ ____
ROOT
ATOM      1  C   UNL     1       0.028  -6.481   0.837  0.00  0.00    +0.059 C 
ATOM      2  C   UNL     1      -1.369  -6.859   1.334  0.00  0.00    +0.030 C 
ATOM      3  C   UNL     1      -1.492  -8.386   1.389  0.00  0.00    +0.108 C 
ATOM      4  N   UNL     1      -0.394  -8.919   2.208  0.00  0.00    -0.301 N 
ATOM      5  C   UNL     1       0.986  -8.544   1.871  0.00  0.00    +0.108 C 
ATOM      6  C   UNL     1       1.081  -7.016   1.811  0.00  0.00    +0.030 C 
ATOM      7  C   UNL     1      -0.649  -9.736   3.249  0.00  0.00    +0.220 C 
ATOM      8  O   UNL     1      -1.793 -10.039   3.517  0.00  0.00    -0.275 OA
ENDROOT
BRANCH   1  11
ATOM      9  C   UNL     1       0.018  -2.829  -0.013  0.00  0.00    +0.326 C 
ATOM     10  N   UNL     1      -0.267  -4.237  -0.333  0.00  0.00    -0.289 N 
ATOM     11  C   UNL     1       0.141  -4.981   0.749  0.00  0.00    +0.141 C 
ATOM     12  N   UNL     1       0.630  -4.239   1.674  0.00  0.00    -0.071 NA
ATOM     13  O   UNL     1       0.602  -2.872   1.299  0.00  0.00    -0.365 OA
ATOM     14  H   UNL     1      -0.666  -4.574  -1.150  0.00  0.00    +0.151 HD
BRANCH   9  20
ATOM     15  C   UNL     1      -1.200  -0.637   0.010  0.00  0.00    +0.128 A 
ATOM     16  C   UNL     1      -2.375   0.101   0.019  0.00  0.00    +0.046 A 
ATOM     17  C   UNL     1      -3.596  -0.545   0.027  0.00  0.00    +0.004 A 
ATOM     18  C   UNL     1      -3.648  -1.927   0.026  0.00  0.00    +0.001 A 
ATOM     19  C   UNL     1      -2.479  -2.665   0.017  0.00  0.00    +0.012 A 
ATOM     20  C   UNL     1      -1.255  -2.023   0.003  0.00  0.00    +0.055 A 
BRANCH  15  22
ATOM     21  C   UNL     1      -0.017   1.425   0.010  0.00  0.00    +0.277 C 
ATOM     22  O   UNL     1       0.002  -0.004   0.002  0.00  0.00    -0.495 OA
ENDBRANCH  15  22
ENDBRANCH   9  20
ENDBRANCH   1  11
BRANCH   7  23
ATOM     23  C   UNL     1       0.487 -10.276   4.079  0.00  0.00    +0.129 C 
BRANCH  23  24
ATOM     24  C   UNL     1      -0.063 -11.157   5.171  0.00  0.00    -0.033 C 
ATOM     25  C   UNL     1      -0.195 -12.503   5.140  0.00  0.00    -0.001 A 
ATOM     26  C   UNL     1       0.121 -13.510   4.120  0.00  0.00    +0.010 A 
ATOM     27  C   UNL     1      -0.130 -14.812   4.384  0.00  0.00    +0.001 A 
ATOM     28  C   UNL     1      -0.683 -15.223   5.605  0.00  0.00    +0.002 A 
ATOM     29  C   UNL     1      -0.999 -14.357   6.591  0.00  0.00    +0.026 A 
ATOM     30  C   UNL     1      -0.777 -12.963   6.421  0.00  0.00    +0.043 A 
ATOM     31  N   UNL     1      -0.997 -11.941   7.213  0.00  0.00    -0.380 N 
ATOM     32  C   UNL     1      -0.572 -10.717   6.525  0.00  0.00    +0.145 C 
ATOM     33  H   UNL     1      -1.374 -11.988   8.105  0.00  0.00    +0.160 HD
ENDBRANCH  23  24
ENDBRANCH   7  23
TORSDOF 5
