REMARK  Name = ZINC06239999
REMARK  9 active torsions:
REMARK  status: ('A' for Active; 'I' for Inactive)
REMARK    1  A    between atoms: C_1  and  O_2
REMARK    2  A    between atoms: O_2  and  C_3
REMARK    3  A    between atoms: C_6  and  C_9
REMARK    4  A    between atoms: C_12  and  C_31
REMARK    5  A    between atoms: C_17  and  C_20
REMARK    6  A    between atoms: N_22  and  C_23
REMARK    7  A    between atoms: C_23  and  C_24
REMARK    8  A    between atoms: C_24  and  C_25
REMARK    9  A    between atoms: C_25  and  N_26
REMARK                            x       y       z     vdW  Elec       q    Type
REMARK                         _______ _______ _______ _____ _____    ______ ____
ROOT
ATOM      1  C   UNL     1      -5.026  -2.603   0.071  0.00  0.00    +0.113 C 
ATOM      2  C   UNL     1      -5.360  -3.040  -1.356  0.00  0.00    +0.062 C 
ATOM      3  C   UNL     1      -6.685  -3.819  -1.364  0.00  0.00    +0.201 C 
ATOM      4  N   UNL     1      -6.567  -4.884  -0.362  0.00  0.00    -0.226 N 
ATOM      5  C   UNL     1      -5.699  -4.802   0.717  0.00  0.00    +0.126 C 
ATOM      6  N   UNL     1      -4.944  -3.770   0.959  0.00  0.00    -0.364 N 
ATOM      7  C   UNL     1      -5.842  -6.063   1.454  0.00  0.00    +0.091 C 
ATOM      8  C   UNL     1      -6.788  -6.800   0.792  0.00  0.00    +0.104 C 
ATOM      9  N   UNL     1      -7.234  -6.101  -0.283  0.00  0.00    -0.269 N 
ATOM     10  H   UNL     1      -7.915  -6.405  -0.902  0.00  0.00    +0.170 HD
ATOM     11  H   UNL     1      -4.336  -3.771   1.714  0.00  0.00    +0.161 HD
ENDROOT
BRANCH   1  15
ATOM     12  C   UNL     1      -1.274  -0.558   0.079  0.00  0.00    +0.120 A 
ATOM     13  C   UNL     1      -2.458   0.164   0.090  0.00  0.00    +0.046 A 
ATOM     14  C   UNL     1      -3.670  -0.500   0.087  0.00  0.00    +0.009 A 
ATOM     15  C   UNL     1      -3.703  -1.882   0.073  0.00  0.00    -0.025 A 
ATOM     16  C   UNL     1      -2.523  -2.604   0.062  0.00  0.00    +0.009 A 
ATOM     17  C   UNL     1      -1.309  -1.945   0.059  0.00  0.00    +0.046 A 
BRANCH  12  19
ATOM     18  C   UNL     1      -0.120   1.520   0.102  0.00  0.00    +0.277 C 
ATOM     19  O   UNL     1      -0.081   0.092   0.081  0.00  0.00    -0.495 OA
ENDBRANCH  12  19
ENDBRANCH   1  15
BRANCH   7  20
ATOM     20  C   UNL     1      -5.114  -6.458   2.665  0.00  0.00    +0.249 C 
ATOM     21  O   UNL     1      -5.405  -7.490   3.241  0.00  0.00    -0.270 OA
ATOM     22  N   UNL     1      -4.122  -5.679   3.139  0.00  0.00    -0.311 N 
ATOM     23  H   UNL     1      -3.937  -4.822   2.723  0.00  0.00    +0.149 HD
BRANCH  22  24
ATOM     24  C   UNL     1      -3.323  -6.124   4.283  0.00  0.00    +0.106 C 
BRANCH  24  25
ATOM     25  C   UNL     1      -2.274  -5.062   4.617  0.00  0.00    +0.040 C 
BRANCH  25  26
ATOM     26  C   UNL     1      -1.440  -5.528   5.812  0.00  0.00    +0.124 C 
BRANCH  26  27
ATOM     27  N   UNL     1      -0.434  -4.511   6.132  0.00  0.00    -0.338 N 
ATOM     28  C   UNL     1       0.832  -4.431   5.619  0.00  0.00    +0.104 A 
ATOM     29  C   UNL     1       1.412  -3.352   6.178  0.00  0.00    +0.101 A 
ATOM     30  N   UNL     1       0.524  -2.788   7.010  0.00  0.00    -0.352 N 
ATOM     31  C   UNL     1      -0.586  -3.474   6.984  0.00  0.00    +0.173 A 
ATOM     32  H   UNL     1       0.680  -1.994   7.544  0.00  0.00    +0.166 HD
ENDBRANCH  26  27
ENDBRANCH  25  26
ENDBRANCH  24  25
ENDBRANCH  22  24
ENDBRANCH   7  20
BRANCH   3  33
ATOM     33  C   UNL     1      -6.924  -4.427  -2.747  0.00  0.00    +0.410 C 
ATOM     34  F   UNL     1      -5.874  -5.298  -3.062  0.00  0.00    -0.169 F 
ATOM     35  F   UNL     1      -8.131  -5.134  -2.744  0.00  0.00    -0.169 F 
ATOM     36  F   UNL     1      -6.984  -3.406  -3.701  0.00  0.00    -0.169 F 
ENDBRANCH   3  33
TORSDOF 8
