REMARK  Name = ZINC38655491
REMARK  12 active torsions:
REMARK  status: ('A' for Active; 'I' for Inactive)
REMARK    1  A    between atoms: C_1  and  C_2
REMARK    2  A    between atoms: C_2  and  C_3
REMARK    3  A    between atoms: C_2  and  C_4
REMARK    4  A    between atoms: C_2  and  C_5
REMARK    5  A    between atoms: C_8  and  O_11
REMARK    6  A    between atoms: O_11  and  C_12
REMARK    7  A    between atoms: C_12  and  C_13
REMARK    8  A    between atoms: C_13  and  O_15
REMARK    9  A    between atoms: O_15  and  C_16
REMARK   10  A    between atoms: C_23  and  N_37
REMARK   11  A    between atoms: C_24  and  C_35
REMARK   12  A    between atoms: C_25  and  C_27
REMARK                            x       y       z     vdW  Elec       q    Type
REMARK                         _______ _______ _______ _____ _____    ______ ____
ROOT
ATOM      1  C   UNL     1       6.342  -2.281  -7.587  0.00  0.00    +0.135 A 
ATOM      2  C   UNL     1       5.555  -3.035  -8.446  0.00  0.00    +0.047 A 
ATOM      3  C   UNL     1       6.103  -3.568  -9.596  0.00  0.00    +0.012 A 
ATOM      4  C   UNL     1       7.437  -3.354  -9.897  0.00  0.00    +0.008 A 
ATOM      5  C   UNL     1       8.228  -2.601  -9.042  0.00  0.00    +0.138 A 
ATOM      6  C   UNL     1       7.676  -2.059  -7.889  0.00  0.00    +0.093 A 
ATOM      7  O   UNL     1       9.536  -2.380  -9.320  0.00  0.00    -0.441 OA
ATOM      8  C   UNL     1       9.992  -2.543 -10.573  0.00  0.00    +0.199 C 
ATOM      9  C   UNL     1       9.318  -3.273 -11.492  0.00  0.00    +0.098 C 
ATOM     10  C   UNL     1       8.016  -3.944 -11.155  0.00  0.00    +0.099 C 
ENDROOT
BRANCH  10  11
ATOM     11  C   UNL     1       8.253  -5.419 -10.951  0.00  0.00    -0.016 A 
ATOM     12  C   UNL     1       9.102  -5.851  -9.950  0.00  0.00    +0.007 A 
ATOM     13  C   UNL     1       9.319  -7.202  -9.762  0.00  0.00    +0.020 A 
ATOM     14  C   UNL     1       8.687  -8.125 -10.577  0.00  0.00    +0.042 A 
ATOM     15  C   UNL     1       7.836  -7.693 -11.579  0.00  0.00    +0.040 A 
ATOM     16  C   UNL     1       7.615  -6.340 -11.763  0.00  0.00    +0.046 A 
ATOM     17 CL   UNL     1       6.544  -5.797 -13.017  0.00  0.00    -0.083 Cl
ATOM     18 CL   UNL     1       8.960  -9.823 -10.342  0.00  0.00    -0.083 Cl
ENDBRANCH  10  11
BRANCH   8  19
ATOM     19  N   UNL     1      11.178  -1.950 -10.932  0.00  0.00    -0.328 N 
ATOM     20  H   UNL     1      11.672  -1.424 -10.285  0.00  0.00    +0.145 HD
ATOM     21  H   UNL     1      11.520  -2.059 -11.833  0.00  0.00    +0.145 HD
ENDBRANCH   8  19
BRANCH   9  22
ATOM     22  C   UNL     1       9.855  -3.409 -12.813  0.00  0.00    +0.101 C 
ATOM     23  N   UNL     1      10.282  -3.516 -13.860  0.00  0.00    -0.191 NA
ENDBRANCH   9  22
BRANCH   1  24
ATOM     24  O   UNL     1       5.804  -1.756  -6.455  0.00  0.00    -0.423 OA
BRANCH  24  25
ATOM     25  C   UNL     1       5.607  -2.577  -5.411  0.00  0.00    +0.350 C 
ATOM     26  O   UNL     1       5.822  -3.760  -5.524  0.00  0.00    -0.247 OA
BRANCH  25  27
ATOM     27  C   UNL     1       5.118  -2.022  -4.098  0.00  0.00    +0.349 C 
BRANCH  27  28
ATOM     28  O   UNL     1       4.988  -3.084  -3.151  0.00  0.00    -0.481 OA
BRANCH  28  32
ATOM     29  C   UNL     1       3.671  -2.076   0.626  0.00  0.00    -0.042 A 
ATOM     30  C   UNL     1       3.963  -3.393   0.326  0.00  0.00    +0.008 A 
ATOM     31  C   UNL     1       4.404  -3.734  -0.938  0.00  0.00    +0.046 A 
ATOM     32  C   UNL     1       4.553  -2.752  -1.907  0.00  0.00    +0.121 A 
ATOM     33  C   UNL     1       4.259  -1.431  -1.604  0.00  0.00    +0.046 A 
ATOM     34  C   UNL     1       3.813  -1.097  -0.340  0.00  0.00    +0.008 A 
BRANCH  29  36
ATOM     35  C   UNL     1       1.799  -1.077   1.910  0.00  0.00    +0.015 C 
ATOM     36  C   UNL     1       3.190  -1.707   2.006  0.00  0.00    -0.013 C 
ATOM     37  C   UNL     1       4.162  -0.706   2.634  0.00  0.00    +0.015 C 
ATOM     38  C   UNL     1       3.121  -2.965   2.875  0.00  0.00    +0.015 C 
ENDBRANCH  29  36
ENDBRANCH  28  32
ENDBRANCH  27  28
ENDBRANCH  25  27
ENDBRANCH  24  25
ENDBRANCH   1  24
TORSDOF 9
