REMARK  Name = ZINC08777793
REMARK  3 active torsions:
REMARK  status: ('A' for Active; 'I' for Inactive)
REMARK    1  A    between atoms: C_10  and  C_15
REMARK    2  A    between atoms: C_10  and  O_19
REMARK    3  A    between atoms: C_22  and  C_25
REMARK                            x       y       z     vdW  Elec       q    Type
REMARK                         _______ _______ _______ _____ _____    ______ ____
ROOT
ATOM      1  C   UNL     1      -1.226   1.742   0.017  0.00  0.00    +0.001 A 
ATOM      2  C   UNL     1      -0.013   1.076   0.008  0.00  0.00    +0.004 A 
ATOM      3  C   UNL     1       1.180   1.773   0.000  0.00  0.00    +0.046 A 
ATOM      4  C   UNL     1       1.178   3.160   0.005  0.00  0.00    +0.129 A 
ATOM      5  C   UNL     1      -0.062   3.829   0.013  0.00  0.00    +0.040 A 
ATOM      6  C   UNL     1      -1.254   3.124   0.026  0.00  0.00    +0.013 A 
ATOM      7  C   UNL     1       0.000   5.303  -0.000  0.00  0.00    +0.081 C 
ATOM      8  N   UNL     1      -0.828   6.179  -0.412  0.00  0.00    -0.179 NA
ATOM      9  N   UNL     1      -0.298   7.471  -0.479  0.00  0.00    -0.160 N 
ATOM     10  C   UNL     1       1.126   7.420  -0.095  0.00  0.00    +0.262 C 
ATOM     11  C   UNL     1       1.308   5.984   0.401  0.00  0.00    +0.138 C 
ATOM     12  C   UNL     1       2.404   5.226  -0.351  0.00  0.00    +0.243 C 
ATOM     13  O   UNL     1       2.345   3.844   0.012  0.00  0.00    -0.490 OA
ATOM     14  C   UNL     1      -0.994   8.610  -0.846  0.00  0.00    +0.184 A 
ATOM     15  N   UNL     1      -2.258   8.736  -1.206  0.00  0.00    -0.222 NA
ATOM     16  C   UNL     1      -2.767   9.918  -1.526  0.00  0.00    +0.098 A 
ATOM     17  C   UNL     1      -1.964  11.025  -1.493  0.00  0.00    +0.078 A 
ATOM     18  S   UNL     1      -0.418  10.297  -0.966  0.00  0.00    -0.058 S 
ENDROOT
BRANCH  16  19
ATOM     19  C   UNL     1      -4.189  10.037  -1.922  0.00  0.00    +0.090 A 
ATOM     20  C   UNL     1      -4.997   8.900  -1.953  0.00  0.00    +0.030 A 
ATOM     21  C   UNL     1      -6.323   9.028  -2.325  0.00  0.00    +0.004 A 
ATOM     22  C   UNL     1      -6.801  10.290  -2.654  0.00  0.00    +0.020 A 
ATOM     23  C   UNL     1      -5.946  11.374  -2.602  0.00  0.00    +0.111 A 
ATOM     24  N   UNL     1      -4.687  11.226  -2.240  0.00  0.00    -0.253 NA
ENDBRANCH  16  19
BRANCH  10  25
ATOM     25  C   UNL     1       1.421   8.419   1.026  0.00  0.00    +0.438 C 
ATOM     26  F   UNL     1       2.740   8.254   1.462  0.00  0.00    -0.166 F 
ATOM     27  F   UNL     1       1.247   9.722   0.547  0.00  0.00    -0.166 F 
ATOM     28  F   UNL     1       0.546   8.194   2.094  0.00  0.00    -0.166 F 
ENDBRANCH  10  25
BRANCH  10  29
ATOM     29  O   UNL     1       1.962   7.673  -1.226  0.00  0.00    -0.363 OA
ATOM     30  H   UNL     1       1.885   8.569  -1.579  0.00  0.00    +0.212 HD
ENDBRANCH  10  29
TORSDOF 3
