REMARK  Name = ZINC06896709
REMARK  3 active torsions:
REMARK  status: ('A' for Active; 'I' for Inactive)
REMARK    1  A    between atoms: C_4  and  N_7
REMARK    2  A    between atoms: N_7  and  C_8
REMARK    3  A    between atoms: N_12  and  C_16
REMARK                            x       y       z     vdW  Elec       q    Type
REMARK                         _______ _______ _______ _____ _____    ______ ____
ROOT
ATOM      1  C   UNL     1       4.187   5.346  -1.141  0.00  0.00    +0.226 C 
ATOM      2  C   UNL     1       2.902   4.536  -1.243  0.00  0.00    +0.258 C 
ATOM      3  O   UNL     1       2.424   4.211  -2.309  0.00  0.00    -0.272 OA
ATOM      4  N   UNL     1       2.341   4.215  -0.089  0.00  0.00    -0.198 N 
ATOM      5  C   UNL     1       2.857   4.561   1.105  0.00  0.00    +0.287 C 
ATOM      6  O   UNL     1       2.419   4.310   2.211  0.00  0.00    -0.262 OA
ATOM      7  S   UNL     1       4.334   5.474   0.686  0.00  0.00    -0.035 S 
ENDROOT
BRANCH   4   8
ATOM      8  C   UNL     1       1.155   3.474  -0.111  0.00  0.00    +0.052 A 
ATOM      9  C   UNL     1      -0.065   4.115  -0.143  0.00  0.00    +0.024 A 
ATOM     10  C   UNL     1      -1.251   3.387  -0.166  0.00  0.00    +0.002 A 
ATOM     11  C   UNL     1      -1.240   2.025  -0.162  0.00  0.00    +0.008 A 
ATOM     12  C   UNL     1      -0.018   1.334  -0.125  0.00  0.00    -0.016 A 
ATOM     13  C   UNL     1       1.196   2.064  -0.102  0.00  0.00    +0.004 A 
ATOM     14  C   UNL     1       2.417   1.372  -0.070  0.00  0.00    +0.010 A 
ATOM     15  C   UNL     1       2.420   0.010  -0.061  0.00  0.00    +0.001 A 
ATOM     16  C   UNL     1       1.226  -0.709  -0.084  0.00  0.00    +0.001 A 
ATOM     17  C   UNL     1       0.024  -0.071  -0.115  0.00  0.00    +0.008 A 
ENDBRANCH   4   8
BRANCH   1  18
ATOM     18  N   UNL     1       5.319   4.616  -1.717  0.00  0.00    -0.325 N 
ATOM     19  H   UNL     1       5.430   3.670  -1.533  0.00  0.00    +0.148 HD
BRANCH  18  23
ATOM     20  C   UNL     1       8.059   6.601  -4.144  0.00  0.00    +0.000 A 
ATOM     21  C   UNL     1       7.082   7.318  -3.477  0.00  0.00    +0.002 A 
ATOM     22  C   UNL     1       6.171   6.662  -2.671  0.00  0.00    +0.023 A 
ATOM     23  C   UNL     1       6.238   5.282  -2.531  0.00  0.00    +0.028 A 
ATOM     24  C   UNL     1       7.223   4.566  -3.199  0.00  0.00    +0.023 A 
ATOM     25  C   UNL     1       8.127   5.227  -4.007  0.00  0.00    +0.002 A 
ENDBRANCH  18  23
ENDBRANCH   1  18
TORSDOF 3
