REMARK  Name = ZINC06196517
REMARK  16 active torsions:
REMARK  status: ('A' for Active; 'I' for Inactive)
REMARK    1  A    between atoms: C_1  and  C_2
REMARK    2  A    between atoms: C_2  and  O_3
REMARK    3  A    between atoms: O_3  and  C_4
REMARK    4  A    between atoms: C_7  and  C_12
REMARK    5  A    between atoms: C_9  and  O_10
REMARK    6  A    between atoms: O_10  and  C_11
REMARK    7  A    between atoms: C_17  and  C_22
REMARK    8  A    between atoms: C_25  and  O_30
REMARK    9  A    between atoms: C_26  and  O_28
REMARK   10  A    between atoms: O_28  and  C_29
REMARK   11  A    between atoms: O_30  and  C_31
REMARK   12  A    between atoms: C_33  and  C_40
REMARK   13  A    between atoms: C_34  and  C_35
REMARK   14  A    between atoms: C_35  and  O_37
REMARK   15  A    between atoms: O_37  and  C_38
REMARK   16  A    between atoms: C_38  and  C_39
REMARK                            x       y       z     vdW  Elec       q    Type
REMARK                         _______ _______ _______ _____ _____    ______ ____
ROOT
ATOM      1  C   UNL     1       4.536  -3.522  -7.964  0.00  0.00    +0.092 C 
ATOM      2  C   UNL     1       3.903  -3.057  -6.676  0.00  0.00    +0.024 C 
ATOM      3  C   UNL     1       4.657  -2.833  -5.579  0.00  0.00    +0.016 C 
ATOM      4  C   UNL     1       4.033  -2.356  -4.291  0.00  0.00    +0.059 C 
ATOM      5  C   UNL     1       2.607  -2.900  -4.179  0.00  0.00    +0.032 C 
ATOM      6  C   UNL     1       1.805  -2.426  -5.396  0.00  0.00    +0.088 C 
ATOM      7  C   UNL     1       2.510  -2.869  -6.649  0.00  0.00    +0.162 C 
ATOM      8  O   UNL     1       1.862  -3.070  -7.657  0.00  0.00    -0.292 OA
ATOM      9  N   UNL     1       6.011  -3.036  -5.613  0.00  0.00    -0.321 N 
ATOM     10  C   UNL     1       6.574  -3.819  -6.582  0.00  0.00    +0.016 C 
ATOM     11  C   UNL     1       5.907  -4.080  -7.719  0.00  0.00    +0.065 C 
ATOM     12  C   UNL     1       7.952  -4.391  -6.375  0.00  0.00    +0.061 C 
ATOM     13  H   UNL     1       6.657  -2.569  -4.855  0.00  0.00    +0.152 HD
ENDROOT
BRANCH   1  17
ATOM     14  C   UNL     1       4.832  -0.210 -10.653  0.00  0.00    +0.162 A 
ATOM     15  C   UNL     1       5.471  -0.167  -9.424  0.00  0.00    +0.050 A 
ATOM     16  C   UNL     1       5.368  -1.237  -8.555  0.00  0.00    +0.008 A 
ATOM     17  C   UNL     1       4.639  -2.356  -8.913  0.00  0.00    -0.032 A 
ATOM     18  C   UNL     1       3.999  -2.404 -10.137  0.00  0.00    +0.054 A 
ATOM     19  C   UNL     1       4.093  -1.333 -11.011  0.00  0.00    +0.162 A 
BRANCH  19  20
ATOM     20  O   UNL     1       3.463  -1.379 -12.216  0.00  0.00    -0.491 OA
ATOM     21  C   UNL     1       2.722  -2.564 -12.516  0.00  0.00    +0.277 C 
ENDBRANCH  19  20
BRANCH  14  22
ATOM     22  O   UNL     1       4.926   0.844 -11.507  0.00  0.00    -0.489 OA
BRANCH  22  24
ATOM     23  C   UNL     1       5.692   3.042 -12.158  0.00  0.00    +0.048 C 
ATOM     24  C   UNL     1       5.702   1.964 -11.073  0.00  0.00    +0.226 C 
ENDBRANCH  22  24
ENDBRANCH  14  22
ENDBRANCH   1  17
BRANCH   5  25
ATOM     25  C   UNL     1       1.966  -2.383  -2.918  0.00  0.00    -0.040 A 
ATOM     26  C   UNL     1       1.825  -1.021  -2.723  0.00  0.00    +0.008 A 
ATOM     27  C   UNL     1       1.232  -0.542  -1.570  0.00  0.00    +0.049 A 
ATOM     28  C   UNL     1       0.787  -1.427  -0.601  0.00  0.00    +0.161 A 
ATOM     29  C   UNL     1       0.928  -2.797  -0.797  0.00  0.00    +0.162 A 
ATOM     30  C   UNL     1       1.518  -3.271  -1.958  0.00  0.00    +0.053 A 
BRANCH  29  31
ATOM     31  O   UNL     1       0.487  -3.670   0.149  0.00  0.00    -0.491 OA
ATOM     32  C   UNL     1       0.664  -5.062  -0.120  0.00  0.00    +0.277 C 
ENDBRANCH  29  31
BRANCH  28  33
ATOM     33  O   UNL     1       0.209  -0.957   0.537  0.00  0.00    -0.491 OA
ATOM     34  C   UNL     1       0.097   0.462   0.670  0.00  0.00    +0.277 C 
ENDBRANCH  28  33
ENDBRANCH   5  25
BRANCH  11  35
ATOM     35  C   UNL     1       6.508  -4.898  -8.704  0.00  0.00    +0.338 C 
ATOM     36  O   UNL     1       6.125  -6.042  -8.862  0.00  0.00    -0.245 OA
BRANCH  35  37
ATOM     37  O   UNL     1       7.507  -4.409  -9.469  0.00  0.00    -0.462 OA
BRANCH  37  38
ATOM     38  C   UNL     1       8.068  -5.290 -10.444  0.00  0.00    +0.229 C 
ATOM     39  C   UNL     1       9.178  -4.565 -11.207  0.00  0.00    +0.048 C 
ENDBRANCH  37  38
ENDBRANCH  35  37
ENDBRANCH  11  35
TORSDOF 10
