REMARK  Name = ZINC09973081
REMARK  11 active torsions:
REMARK  status: ('A' for Active; 'I' for Inactive)
REMARK    1  A    between atoms: C_1  and  C_2
REMARK    2  A    between atoms: C_2  and  O_3
REMARK    3  A    between atoms: O_3  and  C_4
REMARK    4  A    between atoms: C_4  and  C_6
REMARK    5  A    between atoms: C_9  and  N_12
REMARK    6  A    between atoms: C_13  and  C_15
REMARK    7  A    between atoms: C_15  and  C_16
REMARK    8  A    between atoms: N_22  and  N_23
REMARK    9  A    between atoms: C_30  and  C_34
REMARK   10  A    between atoms: C_31  and  C_32
REMARK   11  A    between atoms: C_31  and  C_33
REMARK                            x       y       z     vdW  Elec       q    Type
REMARK                         _______ _______ _______ _____ _____    ______ ____
ROOT
ATOM      1  C   UNL     1      -6.014   7.538   0.391  0.00  0.00    +0.149 C 
ATOM      2  C   UNL     1      -7.317   8.320   0.395  0.00  0.00    +0.233 C 
ATOM      3  O   UNL     1      -8.083   8.302  -0.545  0.00  0.00    -0.274 OA
ATOM      4  N   UNL     1      -7.564   9.021   1.489  0.00  0.00    -0.263 N 
ATOM      5  C   UNL     1      -6.699   9.045   2.561  0.00  0.00    +0.183 C 
ATOM      6  N   UNL     1      -6.830   9.696   3.696  0.00  0.00    -0.127 NA
ATOM      7  S   UNL     1      -5.357   7.983   2.048  0.00  0.00    -0.075 S 
ATOM      8  H   UNL     1      -8.384   9.537   1.538  0.00  0.00    +0.157 HD
ENDROOT
BRANCH   6   9
ATOM      9  N   UNL     1      -7.962  10.489   3.923  0.00  0.00    -0.156 NA
ATOM     10  C   UNL     1      -8.091  11.130   5.039  0.00  0.00    +0.048 C 
ATOM     11  C   UNL     1      -9.243  12.031   5.458  0.00  0.00    +0.057 C 
ATOM     12  C   UNL     1      -8.861  12.532   6.885  0.00  0.00    +0.001 C 
ATOM     13  C   UNL     1      -9.003  11.269   7.788  0.00  0.00    +0.005 C 
ATOM     14  C   UNL     1      -7.846  10.344   7.345  0.00  0.00    +0.013 C 
ATOM     15  C   UNL     1      -7.117  11.137   6.226  0.00  0.00    +0.013 C 
ATOM     16  C   UNL     1      -7.299  12.612   6.743  0.00  0.00    -0.021 C 
ATOM     17  C   UNL     1      -6.868  13.648   5.703  0.00  0.00    +0.012 C 
ATOM     18  C   UNL     1      -6.610  12.837   8.090  0.00  0.00    +0.012 C 
ATOM     19  C   UNL     1      -5.688  10.685   5.918  0.00  0.00    +0.018 C 
ENDBRANCH   6   9
BRANCH   1  20
ATOM     20  C   UNL     1      -6.271   6.034   0.282  0.00  0.00    +0.120 C 
BRANCH  20  22
ATOM     21  N   UNL     1      -4.936   3.964   0.049  0.00  0.00    -0.285 N 
ATOM     22  C   UNL     1      -4.957   5.307   0.158  0.00  0.00    +0.219 C 
ATOM     23  O   UNL     1      -3.917   5.931   0.157  0.00  0.00    -0.275 OA
ATOM     24  H   UNL     1      -5.769   3.471  -0.028  0.00  0.00    +0.155 HD
BRANCH  21  28
ATOM     25  C   UNL     1      -1.302   1.929   0.036  0.00  0.00    +0.059 A 
ATOM     26  C   UNL     1      -2.374   1.453  -0.725  0.00  0.00    +0.017 A 
ATOM     27  C   UNL     1      -3.575   2.125  -0.714  0.00  0.00    +0.024 A 
ATOM     28  C   UNL     1      -3.720   3.283   0.044  0.00  0.00    +0.033 A 
ATOM     29  C   UNL     1      -2.654   3.763   0.799  0.00  0.00    +0.024 A 
ATOM     30  C   UNL     1      -1.451   3.093   0.797  0.00  0.00    +0.017 A 
BRANCH  25  31
ATOM     31  C   UNL     1      -0.015   1.209   0.031  0.00  0.00    +0.339 C 
ATOM     32  O   UNL     1       0.917   1.627   0.689  0.00  0.00    -0.245 OA
BRANCH  31  33
ATOM     33  O   UNL     1       0.125   0.085  -0.698  0.00  0.00    -0.461 OA
BRANCH  33  35
ATOM     34  C   UNL     1       1.386  -1.823  -1.534  0.00  0.00    +0.048 C 
ATOM     35  C   UNL     1       1.418  -0.575  -0.650  0.00  0.00    +0.229 C 
ENDBRANCH  33  35
ENDBRANCH  31  33
ENDBRANCH  25  31
ENDBRANCH  21  28
ENDBRANCH  20  22
ENDBRANCH   1  20
TORSDOF 7
