REMARK  Name = ZINC60385497
REMARK  7 active torsions:
REMARK  status: ('A' for Active; 'I' for Inactive)
REMARK    1  A    between atoms: C_3  and  N_30
REMARK    2  A    between atoms: C_4  and  C_10
REMARK    3  A    between atoms: C_6  and  N_7
REMARK    4  A    between atoms: C_10  and  O_12
REMARK    5  A    between atoms: O_12  and  C_13
REMARK    6  A    between atoms: C_13  and  C_14
REMARK    7  A    between atoms: N_19  and  C_20
REMARK                            x       y       z     vdW  Elec       q    Type
REMARK                         _______ _______ _______ _____ _____    ______ ____
ROOT
ATOM      1  C   UNL     1       5.286  -3.766  -0.336  0.00  0.00    +0.258 C 
ATOM      2  O   UNL     1       4.226  -4.350  -0.406  0.00  0.00    -0.272 OA
ATOM      3  N   UNL     1       6.442  -4.458  -0.379  0.00  0.00    -0.237 N 
ATOM      4  C   UNL     1       6.419  -5.801  -0.499  0.00  0.00    +0.306 C 
ATOM      5  O   UNL     1       5.356  -6.386  -0.569  0.00  0.00    -0.252 OA
ATOM      6  N   UNL     1       7.574  -6.493  -0.541  0.00  0.00    -0.294 N 
ATOM      7  H   UNL     1       7.290  -3.991  -0.323  0.00  0.00    +0.159 HD
ATOM      8  H   UNL     1       8.422  -6.025  -0.485  0.00  0.00    +0.151 HD
ENDROOT
BRANCH   6   9
ATOM      9  C   UNL     1       7.550  -7.952  -0.672  0.00  0.00    +0.037 C 
ATOM     10  C   UNL     1       6.799  -8.558   0.516  0.00  0.00    +0.029 C 
ATOM     11  C   UNL     1       6.773 -10.082   0.379  0.00  0.00    -0.008 C 
ATOM     12  C   UNL     1       8.207 -10.616   0.355  0.00  0.00    +0.007 C 
ATOM     13  C   UNL     1       8.957 -10.010  -0.832  0.00  0.00    -0.008 C 
ATOM     14  C   UNL     1       8.983  -8.486  -0.696  0.00  0.00    +0.029 C 
ATOM     15  C   UNL     1       8.249 -10.393  -2.133  0.00  0.00    +0.007 C 
ATOM     16  C   UNL     1       6.815  -9.859  -2.109  0.00  0.00    -0.008 C 
ATOM     17  C   UNL     1       6.065 -10.465  -0.921  0.00  0.00    +0.007 C 
ATOM     18  C   UNL     1       6.841  -8.335  -1.973  0.00  0.00    +0.029 C 
ENDBRANCH   6   9
BRANCH   1  19
ATOM     19  C   UNL     1       5.312  -2.265  -0.202  0.00  0.00    +0.328 C 
BRANCH  19  20
ATOM     20  O   UNL     1       3.973  -1.766  -0.179  0.00  0.00    -0.452 OA
BRANCH  20  21
ATOM     21  C   UNL     1       3.819  -0.432  -0.063  0.00  0.00    +0.341 C 
ATOM     22  O   UNL     1       4.795   0.287   0.018  0.00  0.00    -0.245 OA
BRANCH  21  26
ATOM     23  C   UNL     1      -0.079   1.255   0.021  0.00  0.00    +0.034 A 
ATOM     24  C   UNL     1       1.021   2.087  -0.009  0.00  0.00    +0.026 A 
ATOM     25  C   UNL     1       2.301   1.548  -0.037  0.00  0.00    +0.039 A 
ATOM     26  C   UNL     1       2.467   0.153  -0.033  0.00  0.00    +0.082 A 
ATOM     27  C   UNL     1       1.342  -0.675  -0.002  0.00  0.00    +0.049 A 
ATOM     28  C   UNL     1       0.081  -0.121   0.025  0.00  0.00    +0.127 A 
BRANCH  28  29
ATOM     29  N   UNL     1      -1.109  -1.001   0.058  0.00  0.00    +0.056 N 
ATOM     30  O   UNL     1      -2.217  -0.518   0.082  0.00  0.00    -0.126 OA
ATOM     31  O   UNL     1      -0.972  -2.202   0.061  0.00  0.00    -0.126 OA
ENDBRANCH  28  29
BRANCH  25  32
ATOM     32  N   UNL     1       3.410   2.383  -0.068  0.00  0.00    -0.357 N 
ATOM     33  H   UNL     1       3.293   3.342  -0.153  0.00  0.00    +0.142 HD
ATOM     34  H   UNL     1       4.302   2.007  -0.006  0.00  0.00    +0.142 HD
ENDBRANCH  25  32
ENDBRANCH  21  26
ENDBRANCH  20  21
ENDBRANCH  19  20
ENDBRANCH   1  19
TORSDOF 7
