REMARK  Name = ZINC11666764
REMARK  10 active torsions:
REMARK  status: ('A' for Active; 'I' for Inactive)
REMARK    1  A    between atoms: C_10  and  C_11
REMARK    2  A    between atoms: C_10  and  N_57
REMARK    3  A    between atoms: C_11  and  C_13
REMARK    4  A    between atoms: C_11  and  O_29
REMARK    5  A    between atoms: C_13  and  O_14
REMARK    6  A    between atoms: O_14  and  C_15
REMARK    7  A    between atoms: C_20  and  C_21
REMARK    8  A    between atoms: C_21  and  N_59
REMARK    9  A    between atoms: C_22  and  C_23
REMARK   10  A    between atoms: C_22  and  N_59
REMARK                            x       y       z     vdW  Elec       q    Type
REMARK                         _______ _______ _______ _____ _____    ______ ____
ROOT
ATOM      1  O   UNL     1       3.045  -0.860  -0.275  0.00  0.00    -0.489 OA
ENDROOT
BRANCH   1   2
ATOM      2  C   UNL     1       3.290  -0.076   0.807  0.00  0.00    +0.122 A 
ATOM      3  C   UNL     1       3.872  -0.622   1.943  0.00  0.00    +0.046 A 
ATOM      4  C   UNL     1       4.121   0.177   3.042  0.00  0.00    +0.004 A 
ATOM      5  C   UNL     1       3.791   1.520   3.011  0.00  0.00    +0.000 A 
ATOM      6  C   UNL     1       3.216   2.067   1.879  0.00  0.00    +0.005 A 
ATOM      7  C   UNL     1       2.961   1.271   0.779  0.00  0.00    -0.023 A 
BRANCH   7   8
ATOM      8  C   UNL     1       2.329   1.867  -0.452  0.00  0.00    -0.043 C 
BRANCH   8   9
ATOM      9  N   UNL     1       0.889   1.548  -0.461  0.00  0.00    +0.384 N 
ATOM     10  H   UNL     1       0.451   1.940   0.381  0.00  0.00    -0.085 HD
ATOM     11  H   UNL     1       0.768   0.528  -0.466  0.00  0.00    -0.085 HD
BRANCH   9  12
ATOM     12  C   UNL     1       0.244   2.120  -1.657  0.00  0.00    -0.045 C 
BRANCH  12  13
ATOM     13  C   UNL     1      -1.223   1.779  -1.639  0.00  0.00    -0.046 A 
ATOM     14  C   UNL     1      -1.681   0.615  -2.239  0.00  0.00    +0.005 A 
ATOM     15  C   UNL     1      -3.039   0.340  -2.193  0.00  0.00    +0.020 A 
ATOM     16  C   UNL     1      -3.886   1.232  -1.564  0.00  0.00    +0.111 A 
ATOM     17  N   UNL     1      -3.416   2.331  -1.008  0.00  0.00    -0.263 NA
ATOM     18  C   UNL     1      -2.131   2.624  -1.028  0.00  0.00    +0.112 A 
ENDBRANCH  12  13
ENDBRANCH   9  12
ENDBRANCH   8   9
ENDBRANCH   7   8
ENDBRANCH   1   2
BRANCH   1  19
ATOM     19  C   UNL     1       3.410  -2.237  -0.175  0.00  0.00    +0.258 C 
BRANCH  19  20
ATOM     20  C   UNL     1       3.060  -2.954  -1.481  0.00  0.00    +0.135 C 
BRANCH  20  21
ATOM     21  O   UNL     1       3.859  -2.427  -2.543  0.00  0.00    -0.390 OA
ATOM     22  H   UNL     1       4.811  -2.530  -2.407  0.00  0.00    +0.210 HD
ENDBRANCH  20  21
BRANCH  20  23
ATOM     23  C   UNL     1       3.336  -4.451  -1.331  0.00  0.00    -0.043 C 
BRANCH  23  33
ATOM     24  C   UNL     1       2.258  -8.649  -6.077  0.00  0.00    +0.000 A 
ATOM     25  C   UNL     1       3.372  -9.057  -5.367  0.00  0.00    +0.000 A 
ATOM     26  C   UNL     1       3.774  -8.348  -4.253  0.00  0.00    +0.002 A 
ATOM     27  C   UNL     1       3.067  -7.228  -3.841  0.00  0.00    -0.061 A 
ATOM     28  C   UNL     1       1.958  -6.820  -4.551  0.00  0.00    -0.048 A 
ATOM     29  C   UNL     1       1.554  -7.534  -5.670  0.00  0.00    +0.004 A 
ATOM     30  C   UNL     1       1.161  -5.607  -4.147  0.00  0.00    +0.017 C 
ATOM     31  C   UNL     1       1.494  -5.221  -2.706  0.00  0.00    -0.074 C 
ATOM     32  C   UNL     1       3.542  -6.490  -2.617  0.00  0.00    -0.043 C 
ATOM     33  N   UNL     1       2.965  -5.135  -2.589  0.00  0.00    +0.384 N 
ATOM     34  H   UNL     1       3.334  -4.597  -3.382  0.00  0.00    -0.081 HD
ENDBRANCH  23  33
ENDBRANCH  20  23
ENDBRANCH  19  20
ENDBRANCH   1  19
TORSDOF 10
