REMARK  Name = ZINC35459825
REMARK  9 active torsions:
REMARK  status: ('A' for Active; 'I' for Inactive)
REMARK    1  A    between atoms: C_1  and  C_2
REMARK    2  A    between atoms: N_7  and  C_9
REMARK    3  A    between atoms: C_9  and  C_10
REMARK    4  A    between atoms: C_10  and  C_11
REMARK    5  A    between atoms: C_11  and  N_12
REMARK    6  A    between atoms: C_13  and  C_15
REMARK    7  A    between atoms: C_15  and  C_16
REMARK    8  A    between atoms: N_19  and  S_22
REMARK    9  A    between atoms: S_22  and  C_25
REMARK                            x       y       z     vdW  Elec       q    Type
REMARK                         _______ _______ _______ _____ _____    ______ ____
ROOT
ATOM      1  C   UNL     1       3.413  -8.107   4.322  0.00  0.00    +0.099 C 
ENDROOT
BRANCH   1   2
ATOM      2  C   UNL     1       4.220  -8.608   5.521  0.00  0.00    +0.000 C 
ATOM      3  C   UNL     1       3.442  -8.333   6.810  0.00  0.00    +0.021 C 
ATOM      4  C   UNL     1       4.269  -8.805   8.011  0.00  0.00    +0.110 C 
ATOM      5  N   UNL     1       4.628 -10.216   7.812  0.00  0.00    -0.176 NA
ATOM      6  C   UNL     1       5.299 -10.605   6.564  0.00  0.00    +0.110 C 
ATOM      7  C   UNL     1       4.461 -10.113   5.380  0.00  0.00    +0.021 C 
BRANCH   5   8
ATOM      8  S   UNL     1       4.284 -11.345   8.973  0.00  0.00    +0.067 S 
ATOM      9  O   UNL     1       5.197 -12.417   8.780  0.00  0.00    -0.152 OA
ATOM     10  O   UNL     1       4.183 -10.644  10.205  0.00  0.00    -0.152 OA
BRANCH   8  11
ATOM     11  C   UNL     1       2.679 -11.982   8.622  0.00  0.00    +0.144 A 
ATOM     12  C   UNL     1       2.331 -13.042   7.854  0.00  0.00    +0.038 A 
ATOM     13  C   UNL     1       0.992 -13.362   7.719  0.00  0.00    +0.030 A 
ATOM     14  C   UNL     1       0.068 -12.604   8.360  0.00  0.00    +0.080 A 
ATOM     15  S   UNL     1       1.090 -11.400   9.192  0.00  0.00    -0.057 S 
ATOM     16 CL   UNL     1      -1.661 -12.766   8.373  0.00  0.00    -0.076 Cl
ENDBRANCH   8  11
ENDBRANCH   5   8
ENDBRANCH   1   2
BRANCH   1  18
ATOM     17  N   UNL     1       2.604  -5.942   3.440  0.00  0.00    -0.315 N 
ATOM     18  C   UNL     1       3.280  -6.608   4.397  0.00  0.00    +0.213 C 
ATOM     19  O   UNL     1       3.782  -6.000   5.319  0.00  0.00    -0.276 OA
ATOM     20  H   UNL     1       2.203  -6.428   2.703  0.00  0.00    +0.149 HD
BRANCH  17  21
ATOM     21  C   UNL     1       2.475  -4.485   3.513  0.00  0.00    +0.102 C 
BRANCH  21  22
ATOM     22  C   UNL     1       1.668  -3.983   2.314  0.00  0.00    +0.000 C 
BRANCH  22  23
ATOM     23  C   UNL     1       1.534  -2.461   2.390  0.00  0.00    -0.077 C 
BRANCH  23  29
ATOM     24  C   UNL     1      -0.019   1.526   0.010  0.00  0.00    +0.005 C 
ATOM     25  C   UNL     1       0.002  -0.004   0.002  0.00  0.00    -0.031 C 
ATOM     26  C   UNL     1      -1.434  -0.535   0.015  0.00  0.00    -0.001 C 
ATOM     27  C   UNL     1      -1.402  -2.064   0.086  0.00  0.00    -0.018 C 
ATOM     28  C   UNL     1      -0.613  -2.496   1.324  0.00  0.00    -0.079 C 
ATOM     29  N   UNL     1       0.758  -1.980   1.239  0.00  0.00    +0.380 N 
ATOM     30  C   UNL     1       0.740  -0.512   1.242  0.00  0.00    -0.076 C 
ATOM     31  H   UNL     1       1.188  -2.307   0.386  0.00  0.00    -0.082 HD
ENDBRANCH  23  29
ENDBRANCH  22  23
ENDBRANCH  21  22
ENDBRANCH  17  21
ENDBRANCH   1  18
TORSDOF 8
