REMARK  Name = ZINC13552003
REMARK  5 active torsions:
REMARK  status: ('A' for Active; 'I' for Inactive)
REMARK    1  A    between atoms: C_4  and  C_7
REMARK    2  A    between atoms: C_7  and  C_8
REMARK    3  A    between atoms: C_8  and  C_10
REMARK    4  A    between atoms: C_8  and  N_23
REMARK    5  A    between atoms: N_12  and  C_13
REMARK                            x       y       z     vdW  Elec       q    Type
REMARK                         _______ _______ _______ _____ _____    ______ ____
ROOT
ATOM      1  C   UNL     1       3.983  -0.906   1.493  0.00  0.00    +0.165 C 
ENDROOT
BRANCH   1   2
ATOM      2  N   UNL     1       4.453   0.340   2.103  0.00  0.00    -0.287 N 
ATOM      3  C   UNL     1       3.578   1.163   2.714  0.00  0.00    +0.308 C 
ATOM      4  O   UNL     1       2.417   0.828   2.844  0.00  0.00    -0.252 OA
ATOM      5  N   UNL     1       3.990   2.358   3.181  0.00  0.00    -0.245 N 
ATOM      6  C   UNL     1       5.409   2.745   3.131  0.00  0.00    +0.211 C 
ATOM      7  C   UNL     1       5.780   3.420   4.427  0.00  0.00    +0.235 C 
ATOM      8  O   UNL     1       6.921   3.349   4.833  0.00  0.00    -0.274 OA
ATOM      9  N   UNL     1       4.862   4.100   5.138  0.00  0.00    -0.283 N 
ATOM     10  C   UNL     1       3.528   4.155   4.718  0.00  0.00    +0.055 A 
ATOM     11  C   UNL     1       3.079   3.277   3.726  0.00  0.00    +0.059 A 
ATOM     12  C   UNL     1       1.764   3.317   3.300  0.00  0.00    +0.025 A 
ATOM     13  C   UNL     1       0.891   4.237   3.854  0.00  0.00    +0.002 A 
ATOM     14  C   UNL     1       1.330   5.113   4.829  0.00  0.00    +0.002 A 
ATOM     15  C   UNL     1       2.648   5.071   5.271  0.00  0.00    +0.025 A 
ATOM     16  H   UNL     1       5.394   0.573   2.068  0.00  0.00    +0.151 HD
ATOM     17  H   UNL     1       5.128   4.557   5.951  0.00  0.00    +0.155 HD
ENDBRANCH   1   2
BRANCH   1  18
ATOM     18  C   UNL     1       5.117  -1.897   1.438  0.00  0.00    +0.238 C 
ATOM     19  O   UNL     1       6.210  -1.593   1.867  0.00  0.00    -0.273 OA
ATOM     20  N   UNL     1       4.916  -3.122   0.912  0.00  0.00    -0.284 N 
ATOM     21  H   UNL     1       4.027  -3.389   0.632  0.00  0.00    +0.155 HD
BRANCH  20  22
ATOM     22  C   UNL     1       5.992  -4.009   0.772  0.00  0.00    +0.037 A 
ATOM     23  C   UNL     1       6.046  -4.866  -0.319  0.00  0.00    +0.027 A 
ATOM     24  C   UNL     1       7.106  -5.741  -0.458  0.00  0.00    +0.051 A 
ATOM     25  C   UNL     1       8.118  -5.766   0.491  0.00  0.00    +0.162 A 
ATOM     26  C   UNL     1       8.068  -4.907   1.582  0.00  0.00    +0.164 A 
ATOM     27  C   UNL     1       7.005  -4.026   1.719  0.00  0.00    +0.072 A 
ATOM     28  O   UNL     1       9.055  -4.911   2.518  0.00  0.00    -0.485 OA
ATOM     29  C   UNL     1       9.913  -6.057   2.545  0.00  0.00    +0.270 C 
ATOM     30  C   UNL     1      10.335  -6.375   1.103  0.00  0.00    +0.270 C 
ATOM     31  O   UNL     1       9.153  -6.638   0.339  0.00  0.00    -0.485 OA
ENDBRANCH  20  22
ENDBRANCH   1  18
BRANCH   1  32
ATOM     32  C   UNL     1       3.485  -0.622   0.074  0.00  0.00    +0.067 C 
BRANCH  32  36
ATOM     33  C   UNL     1       0.053   1.915   0.248  0.00  0.00    +0.000 A 
ATOM     34  C   UNL     1       1.317   2.468   0.165  0.00  0.00    +0.000 A 
ATOM     35  C   UNL     1       2.428   1.647   0.108  0.00  0.00    +0.004 A 
ATOM     36  C   UNL     1       2.275   0.273   0.136  0.00  0.00    -0.045 A 
ATOM     37  C   UNL     1       1.010  -0.279   0.221  0.00  0.00    +0.004 A 
ATOM     38  C   UNL     1      -0.101   0.542   0.275  0.00  0.00    +0.000 A 
ENDBRANCH  32  36
ENDBRANCH   1  32
TORSDOF 5
