REMARK  Name = ZINC02263807
REMARK  8 active torsions:
REMARK  status: ('A' for Active; 'I' for Inactive)
REMARK    1  A    between atoms: C_1  and  C_2
REMARK    2  A    between atoms: C_5  and  N_8
REMARK    3  A    between atoms: C_11  and  C_15
REMARK    4  A    between atoms: C_11  and  N_19
REMARK    5  A    between atoms: C_20  and  C_22
REMARK    6  A    between atoms: C_22  and  C_23
REMARK    7  A    between atoms: C_22  and  C_24
REMARK    8  A    between atoms: C_22  and  C_25
REMARK                            x       y       z     vdW  Elec       q    Type
REMARK                         _______ _______ _______ _____ _____    ______ ____
ROOT
ATOM      1  N   UNL     1       0.057  -4.172  -0.021  0.00  0.00    -0.191 N 
ATOM      2  C   UNL     1       0.165  -4.934   1.086  0.00  0.00    +0.279 C 
ATOM      3  O   UNL     1       0.260  -4.551   2.232  0.00  0.00    -0.270 OA
ATOM      4  C   UNL     1       0.140  -6.370   0.599  0.00  0.00    +0.278 C 
ATOM      5  N   UNL     1       0.010  -6.237  -0.863  0.00  0.00    -0.263 N 
ATOM      6  C   UNL     1      -0.036  -4.919  -1.127  0.00  0.00    +0.315 C 
ATOM      7  O   UNL     1      -0.145  -4.458  -2.246  0.00  0.00    -0.252 OA
ATOM      8  H   UNL     1      -0.038  -6.960  -1.508  0.00  0.00    +0.153 HD
ENDROOT
BRANCH   1  13
ATOM      9  C   UNL     1      -0.018   1.503   0.010  0.00  0.00    +0.044 C 
ATOM     10  C   UNL     1       0.002  -0.004   0.002  0.00  0.00    -0.050 A 
ATOM     11  C   UNL     1       0.028  -0.687  -1.200  0.00  0.00    +0.005 A 
ATOM     12  C   UNL     1       0.046  -2.068  -1.211  0.00  0.00    +0.024 A 
ATOM     13  C   UNL     1       0.039  -2.771  -0.013  0.00  0.00    +0.046 A 
ATOM     14  C   UNL     1       0.014  -2.082   1.192  0.00  0.00    +0.024 A 
ATOM     15  C   UNL     1       0.001  -0.701   1.196  0.00  0.00    +0.005 A 
ENDBRANCH   1  13
BRANCH   4  16
ATOM     16  C   UNL     1      -1.062  -7.115   1.181  0.00  0.00    +0.436 C 
ATOM     17  F   UNL     1      -2.243  -6.481   0.781  0.00  0.00    -0.166 F 
ATOM     18  F   UNL     1      -1.062  -8.435   0.718  0.00  0.00    -0.166 F 
ATOM     19  F   UNL     1      -0.981  -7.112   2.578  0.00  0.00    -0.166 F 
ENDBRANCH   4  16
BRANCH   4  20
ATOM     20  N   UNL     1       1.389  -7.053   0.945  0.00  0.00    -0.279 N 
ATOM     21  C   UNL     1       1.757  -7.170   2.236  0.00  0.00    +0.220 C 
ATOM     22  O   UNL     1       1.055  -6.711   3.111  0.00  0.00    -0.275 OA
ATOM     23  H   UNL     1       1.951  -7.420   0.245  0.00  0.00    +0.151 HD
BRANCH  21  24
ATOM     24  C   UNL     1       3.042  -7.873   2.592  0.00  0.00    +0.039 C 
ATOM     25  C   UNL     1       3.222  -7.868   4.112  0.00  0.00    +0.020 C 
ATOM     26  C   UNL     1       2.990  -9.317   2.090  0.00  0.00    +0.020 C 
ATOM     27  C   UNL     1       4.219  -7.147   1.937  0.00  0.00    +0.020 C 
ENDBRANCH  21  24
ENDBRANCH   4  20
TORSDOF 4
