REMARK  Name = ZINC33770220
REMARK  4 active torsions:
REMARK  status: ('A' for Active; 'I' for Inactive)
REMARK    1  A    between atoms: C_4  and  N_7
REMARK    2  A    between atoms: C_8  and  C_9
REMARK    3  A    between atoms: N_19  and  N_20
REMARK    4  A    between atoms: C_21  and  C_22
REMARK                            x       y       z     vdW  Elec       q    Type
REMARK                         _______ _______ _______ _____ _____    ______ ____
ROOT
ATOM      1  N   UNL     1       1.910   8.239   0.133  0.00  0.00    -0.298 N 
ATOM      2  C   UNL     1       0.820   7.527   0.290  0.00  0.00    +0.143 C 
ATOM      3  N   UNL     1      -0.303   8.101   0.844  0.00  0.00    -0.262 N 
ATOM      4  H   UNL     1      -0.318   9.178   1.066  0.00  0.00    +0.190 HD
ATOM      5  H   UNL     1       2.840   7.755  -0.199  0.00  0.00    +0.154 HD
ENDROOT
BRANCH   2   6
ATOM      6  C   UNL     1       0.796   6.108  -0.127  0.00  0.00    +0.104 A 
ATOM      7  C   UNL     1       1.928   5.557  -0.750  0.00  0.00    +0.032 A 
ATOM      8  C   UNL     1       1.919   4.250  -1.140  0.00  0.00    +0.012 A 
ATOM      9  C   UNL     1       0.758   3.490  -0.898  0.00  0.00    +0.000 A 
ATOM     10  C   UNL     1       0.681   2.139  -1.272  0.00  0.00    +0.010 A 
ATOM     11  C   UNL     1      -0.457   1.435  -1.022  0.00  0.00    +0.001 A 
ATOM     12  C   UNL     1      -1.551   2.038  -0.405  0.00  0.00    +0.002 A 
ATOM     13  C   UNL     1      -1.511   3.343  -0.024  0.00  0.00    +0.028 A 
ATOM     14  C   UNL     1      -0.352   4.105  -0.264  0.00  0.00    +0.072 A 
ATOM     15  N   UNL     1      -0.287   5.388   0.095  0.00  0.00    -0.244 NA
ENDBRANCH   2   6
BRANCH   1  19
ATOM     16  C   UNL     1       1.851  12.306   0.886  0.00  0.00    +0.000 A 
ATOM     17  C   UNL     1       2.757  11.497   1.548  0.00  0.00    +0.002 A 
ATOM     18  C   UNL     1       2.783  10.140   1.303  0.00  0.00    +0.023 A 
ATOM     19  C   UNL     1       1.891   9.583   0.382  0.00  0.00    +0.032 A 
ATOM     20  C   UNL     1       0.983  10.408  -0.287  0.00  0.00    +0.023 A 
ATOM     21  C   UNL     1       0.965  11.762  -0.027  0.00  0.00    +0.002 A 
ENDBRANCH   1  19
BRANCH   3  22
ATOM     22  N   UNL     1      -1.426   7.312   1.124  0.00  0.00    -0.180 NA
ATOM     23  C   UNL     1      -2.473   7.846   1.677  0.00  0.00    +0.140 C 
BRANCH  23  24
ATOM     24  C   UNL     1      -3.595   6.993   2.107  0.00  0.00    -0.002 A 
ATOM     25  C   UNL     1      -3.486   5.602   2.034  0.00  0.00    +0.013 A 
ATOM     26  C   UNL     1      -4.535   4.806   2.442  0.00  0.00    +0.050 A 
ATOM     27  C   UNL     1      -5.706   5.381   2.916  0.00  0.00    +0.166 A 
ATOM     28  C   UNL     1      -5.823   6.769   2.986  0.00  0.00    +0.167 A 
ATOM     29  C   UNL     1      -4.773   7.573   2.584  0.00  0.00    +0.059 A 
ATOM     30  O   UNL     1      -7.058   7.077   3.481  0.00  0.00    -0.453 OA
ATOM     31  C   UNL     1      -7.539   5.867   4.095  0.00  0.00    +0.466 C 
ATOM     32  O   UNL     1      -6.867   4.823   3.366  0.00  0.00    -0.453 OA
ENDBRANCH  23  24
ENDBRANCH   3  22
TORSDOF 4
