REMARK  Name = ZINC13115964
REMARK  9 active torsions:
REMARK  status: ('A' for Active; 'I' for Inactive)
REMARK    1  A    between atoms: C_1  and  C_2
REMARK    2  A    between atoms: C_5  and  C_36
REMARK    3  A    between atoms: N_8  and  S_10
REMARK    4  A    between atoms: S_10  and  C_13
REMARK    5  A    between atoms: C_17  and  C_19
REMARK    6  A    between atoms: N_21  and  C_22
REMARK    7  A    between atoms: C_22  and  C_23
REMARK    8  A    between atoms: C_23  and  C_25
REMARK    9  A    between atoms: C_23  and  N_30
REMARK                            x       y       z     vdW  Elec       q    Type
REMARK                         _______ _______ _______ _____ _____    ______ ____
ROOT
ATOM      1  C   UNL     1       2.759  -3.418  -0.159  0.00  0.00    +0.106 A 
ATOM      2  C   UNL     1       2.290  -4.540  -0.821  0.00  0.00    +0.030 A 
ATOM      3  C   UNL     1       2.625  -4.760  -2.145  0.00  0.00    +0.022 A 
ATOM      4  C   UNL     1       3.432  -3.861  -2.814  0.00  0.00    +0.053 A 
ATOM      5  C   UNL     1       3.909  -2.727  -2.151  0.00  0.00    +0.057 A 
ATOM      6  C   UNL     1       3.560  -2.509  -0.817  0.00  0.00    +0.043 A 
ATOM      7 CL   UNL     1       3.854  -4.139  -4.475  0.00  0.00    -0.083 Cl
ENDROOT
BRANCH   5   8
ATOM      8  C   UNL     1       4.773  -1.760  -2.860  0.00  0.00    +0.246 C 
ATOM      9  O   UNL     1       5.070  -1.951  -4.023  0.00  0.00    -0.270 OA
ATOM     10  N   UNL     1       5.231  -0.668  -2.217  0.00  0.00    -0.312 N 
ATOM     11  H   UNL     1       4.993  -0.516  -1.289  0.00  0.00    +0.149 HD
BRANCH  10  12
ATOM     12  C   UNL     1       6.087   0.290  -2.920  0.00  0.00    +0.097 C 
BRANCH  12  13
ATOM     13  C   UNL     1       6.507   1.401  -1.956  0.00  0.00    +0.016 C 
BRANCH  13  14
ATOM     14  N   UNL     1       7.462   2.296  -2.626  0.00  0.00    +0.387 N 
ATOM     15  C   UNL     1       7.886   3.377  -1.700  0.00  0.00    -0.078 C 
ATOM     16  C   UNL     1       9.232   3.851  -2.302  0.00  0.00    -0.020 C 
ATOM     17  C   UNL     1       9.872   2.534  -2.799  0.00  0.00    -0.020 C 
ATOM     18  C   UNL     1       8.694   1.557  -2.974  0.00  0.00    -0.078 C 
ATOM     19  H   UNL     1       7.046   2.690  -3.456  0.00  0.00    -0.081 HD
ENDBRANCH  13  14
BRANCH  13  20
ATOM     20  C   UNL     1       5.292   2.188  -1.536  0.00  0.00    +0.093 A 
ATOM     21  C   UNL     1       4.627   2.046  -0.375  0.00  0.00    +0.043 A 
ATOM     22  C   UNL     1       3.562   2.976  -0.398  0.00  0.00    +0.041 A 
ATOM     23  C   UNL     1       3.640   3.630  -1.571  0.00  0.00    +0.195 A 
ATOM     24  O   UNL     1       4.694   3.152  -2.253  0.00  0.00    -0.469 OA
ENDBRANCH  13  20
ENDBRANCH  12  13
ENDBRANCH  10  12
ENDBRANCH   5   8
BRANCH   1  25
ATOM     25  S   UNL     1       2.325  -3.148   1.527  0.00  0.00    +0.061 S 
ATOM     26  O   UNL     1       3.330  -2.308   2.076  0.00  0.00    -0.153 OA
ATOM     27  O   UNL     1       2.013  -4.422   2.075  0.00  0.00    -0.153 OA
BRANCH  25  33
ATOM     28  C   UNL     1       0.010   1.239   0.450  0.00  0.00    +0.009 C 
ATOM     29  C   UNL     1       0.098  -0.287   0.380  0.00  0.00    +0.002 C 
ATOM     30  C   UNL     1      -1.308  -0.884   0.481  0.00  0.00    +0.009 C 
ATOM     31  C   UNL     1      -1.225  -2.409   0.379  0.00  0.00    +0.002 C 
ATOM     32  C   UNL     1      -0.385  -2.950   1.541  0.00  0.00    +0.112 C 
ATOM     33  N   UNL     1       0.919  -2.273   1.537  0.00  0.00    -0.176 NA
ATOM     34  C   UNL     1       0.953  -0.804   1.541  0.00  0.00    +0.112 C 
ATOM     35  C   UNL     1      -2.633  -3.003   0.447  0.00  0.00    +0.009 C 
ENDBRANCH  25  33
ENDBRANCH   1  25
TORSDOF 7
