REMARK  Name = ZINC59471573
REMARK  5 active torsions:
REMARK  status: ('A' for Active; 'I' for Inactive)
REMARK    1  A    between atoms: C_14  and  C_17
REMARK    2  A    between atoms: C_20  and  C_23
REMARK    3  A    between atoms: N_25  and  N_26
REMARK    4  A    between atoms: C_27  and  C_28
REMARK    5  A    between atoms: C_31  and  N_34
REMARK                            x       y       z     vdW  Elec       q    Type
REMARK                         _______ _______ _______ _____ _____    ______ ____
ROOT
ATOM      1  C   UNL     1       4.918  -2.493   0.680  0.00  0.00    -0.027 A 
ATOM      2  C   UNL     1       5.107  -1.935   1.932  0.00  0.00    +0.006 A 
ATOM      3  C   UNL     1       6.192  -2.308   2.699  0.00  0.00    +0.013 A 
ATOM      4  C   UNL     1       7.098  -3.251   2.210  0.00  0.00    +0.038 A 
ATOM      5  C   UNL     1       6.900  -3.809   0.946  0.00  0.00    +0.013 A 
ATOM      6  C   UNL     1       5.809  -3.431   0.191  0.00  0.00    +0.006 A 
ENDROOT
BRANCH   1  18
ATOM      7  C   UNL     1      -0.017   1.376   0.010  0.00  0.00    +0.000 A 
ATOM      8  C   UNL     1       1.170   2.087   0.002  0.00  0.00    +0.002 A 
ATOM      9  C   UNL     1       2.373   1.412  -0.019  0.00  0.00    +0.023 A 
ATOM     10  C   UNL     1       2.394   0.020  -0.031  0.00  0.00    +0.031 A 
ATOM     11  C   UNL     1       1.208  -0.691  -0.012  0.00  0.00    -0.019 A 
ATOM     12  C   UNL     1       0.002  -0.004   0.002  0.00  0.00    +0.006 A 
ATOM     13  C   UNL     1       1.172  -2.193   0.012  0.00  0.00    +0.049 C 
ATOM     14  C   UNL     1       0.262  -2.619   1.154  0.00  0.00    -0.023 C 
ATOM     15  C   UNL     1       0.967  -2.997   2.188  0.00  0.00    -0.030 C 
ATOM     16  C   UNL     1       2.450  -2.896   1.899  0.00  0.00    +0.033 C 
ATOM     17  C   UNL     1       2.524  -2.820   0.342  0.00  0.00    +0.029 C 
ATOM     18  C   UNL     1       3.731  -2.080  -0.153  0.00  0.00    +0.105 C 
ATOM     19  N   UNL     1       3.619  -0.637  -0.068  0.00  0.00    -0.336 N 
ATOM     20  H   UNL     1       4.431  -0.107  -0.061  0.00  0.00    +0.147 HD
ENDBRANCH   1  18
BRANCH   4  21
ATOM     21  C   UNL     1       8.262  -3.655   3.026  0.00  0.00    +0.263 C 
ATOM     22  O   UNL     1       8.432  -3.166   4.126  0.00  0.00    -0.268 OA
ATOM     23  N   UNL     1       9.135  -4.565   2.550  0.00  0.00    -0.203 N 
ATOM     24  H   UNL     1       9.000  -4.954   1.673  0.00  0.00    +0.178 HD
BRANCH  23  25
ATOM     25  N   UNL     1      10.238  -4.948   3.324  0.00  0.00    -0.187 NA
ATOM     26  C   UNL     1      11.079  -5.824   2.866  0.00  0.00    +0.138 C 
BRANCH  26  27
ATOM     27  C   UNL     1      12.241  -6.227   3.681  0.00  0.00    -0.005 A 
ATOM     28  C   UNL     1      12.436  -5.672   4.948  0.00  0.00    +0.012 A 
ATOM     29  C   UNL     1      13.524  -6.054   5.704  0.00  0.00    +0.033 A 
ATOM     30  C   UNL     1      14.422  -6.984   5.211  0.00  0.00    +0.126 A 
ATOM     31  C   UNL     1      14.235  -7.537   3.956  0.00  0.00    +0.033 A 
ATOM     32  C   UNL     1      13.148  -7.170   3.191  0.00  0.00    +0.012 A 
BRANCH  30  33
ATOM     33  N   UNL     1      15.588  -7.389   6.028  0.00  0.00    +0.056 N 
ATOM     34  O   UNL     1      15.754  -6.907   7.124  0.00  0.00    -0.126 OA
ATOM     35  O   UNL     1      16.374  -8.201   5.600  0.00  0.00    -0.126 OA
ENDBRANCH  30  33
ENDBRANCH  26  27
ENDBRANCH  23  25
ENDBRANCH   4  21
TORSDOF 5
