REMARK  Name = ZINC39440763
REMARK  11 active torsions:
REMARK  status: ('A' for Active; 'I' for Inactive)
REMARK    1  A    between atoms: C_1  and  C_2
REMARK    2  A    between atoms: C_2  and  C_4
REMARK    3  A    between atoms: C_2  and  O_10
REMARK    4  A    between atoms: O_10  and  C_11
REMARK    5  A    between atoms: C_11  and  C_12
REMARK    6  A    between atoms: C_12  and  C_13
REMARK    7  A    between atoms: C_13  and  N_14
REMARK    8  A    between atoms: C_15  and  C_17
REMARK    9  A    between atoms: C_22  and  N_23
REMARK   10  A    between atoms: N_23  and  S_24
REMARK   11  A    between atoms: S_24  and  C_27
REMARK                            x       y       z     vdW  Elec       q    Type
REMARK                         _______ _______ _______ _____ _____    ______ ____
ROOT
ATOM      1  C   UNL     1      -7.313  -2.386  -3.441  0.00  0.00    +0.059 A 
ATOM      2  C   UNL     1      -7.834  -2.404  -2.144  0.00  0.00    +0.015 A 
ATOM      3  C   UNL     1      -9.131  -2.813  -1.931  0.00  0.00    +0.001 A 
ATOM      4  C   UNL     1      -9.925  -3.209  -2.996  0.00  0.00    +0.002 A 
ATOM      5  C   UNL     1      -9.426  -3.198  -4.282  0.00  0.00    +0.025 A 
ATOM      6  C   UNL     1      -8.121  -2.781  -4.518  0.00  0.00    +0.060 A 
ENDROOT
BRANCH   1   8
ATOM      7  N   UNL     1      -5.152  -1.570  -2.640  0.00  0.00    -0.311 N 
ATOM      8  C   UNL     1      -5.925  -1.949  -3.677  0.00  0.00    +0.246 C 
ATOM      9  O   UNL     1      -5.477  -1.930  -4.807  0.00  0.00    -0.270 OA
ATOM     10  H   UNL     1      -5.509  -1.585  -1.738  0.00  0.00    +0.149 HD
BRANCH   7  11
ATOM     11  C   UNL     1      -3.773  -1.136  -2.874  0.00  0.00    +0.107 C 
BRANCH  11  12
ATOM     12  C   UNL     1      -3.122  -0.763  -1.540  0.00  0.00    +0.047 C 
BRANCH  12  13
ATOM     13  C   UNL     1      -1.681  -0.309  -1.785  0.00  0.00    +0.162 C 
BRANCH  13  14
ATOM     14  O   UNL     1      -1.073   0.038  -0.540  0.00  0.00    -0.372 OA
BRANCH  14  16
ATOM     15  C   UNL     1       0.310   1.995  -0.857  0.00  0.00    +0.043 C 
ATOM     16  C   UNL     1       0.281   0.478  -0.657  0.00  0.00    +0.145 C 
BRANCH  16  17
ATOM     17  C   UNL     1       1.035   0.122   0.599  0.00  0.00    -0.019 A 
ATOM     18  C   UNL     1       0.395   0.157   1.823  0.00  0.00    +0.006 A 
ATOM     19  C   UNL     1       1.086  -0.169   2.974  0.00  0.00    +0.000 A 
ATOM     20  C   UNL     1       2.418  -0.530   2.902  0.00  0.00    +0.000 A 
ATOM     21  C   UNL     1       3.059  -0.566   1.677  0.00  0.00    +0.000 A 
ATOM     22  C   UNL     1       2.366  -0.244   0.525  0.00  0.00    +0.006 A 
ENDBRANCH  16  17
ENDBRANCH  14  16
ENDBRANCH  13  14
ENDBRANCH  12  13
ENDBRANCH  11  12
ENDBRANCH   7  11
ENDBRANCH   1   8
BRANCH   6  23
ATOM     23  N   UNL     1      -7.618  -2.763  -5.812  0.00  0.00    -0.216 N 
ATOM     24  H   UNL     1      -6.688  -2.987  -5.974  0.00  0.00    +0.174 HD
BRANCH  23  25
ATOM     25  S   UNL     1      -8.605  -2.359  -7.079  0.00  0.00    +0.072 S 
ATOM     26  O   UNL     1      -7.780  -2.303  -8.235  0.00  0.00    -0.150 OA
ATOM     27  O   UNL     1      -9.742  -3.208  -6.995  0.00  0.00    -0.150 OA
BRANCH  25  28
ATOM     28  C   UNL     1      -9.180  -0.719  -6.789  0.00  0.00    +0.110 A 
ATOM     29  C   UNL     1     -10.411  -0.524  -6.033  0.00  0.00    +0.031 A 
ATOM     30  C   UNL     1     -10.906   0.706  -5.775  0.00  0.00    +0.027 A 
ATOM     31  C   UNL     1     -10.196   1.886  -6.263  0.00  0.00    +0.056 A 
ATOM     32  N   UNL     1     -10.393   3.178  -6.193  0.00  0.00    -0.268 N 
ATOM     33  C   UNL     1      -9.368   3.811  -6.855  0.00  0.00    +0.308 C 
ATOM     34  O   UNL     1      -9.252   5.012  -6.975  0.00  0.00    -0.252 OA
ATOM     35  N   UNL     1      -8.493   2.878  -7.360  0.00  0.00    -0.267 N 
ATOM     36  C   UNL     1      -8.931   1.686  -7.040  0.00  0.00    +0.058 A 
ATOM     37  C   UNL     1      -8.463   0.320  -7.269  0.00  0.00    +0.054 A 
ATOM     38  H   UNL     1      -7.689   3.070  -7.867  0.00  0.00    +0.156 HD
ATOM     39  H   UNL     1     -11.137   3.615  -5.750  0.00  0.00    +0.156 HD
ENDBRANCH  25  28
ENDBRANCH  23  25
ENDBRANCH   6  23
TORSDOF 10
