REMARK  Name = ZINC13388260
REMARK  8 active torsions:
REMARK  status: ('A' for Active; 'I' for Inactive)
REMARK    1  A    between atoms: C_1  and  C_2
REMARK    2  A    between atoms: C_8  and  N_10
REMARK    3  A    between atoms: N_10  and  C_11
REMARK    4  A    between atoms: N_16  and  C_19
REMARK    5  A    between atoms: C_22  and  N_25
REMARK    6  A    between atoms: C_29  and  N_33
REMARK    7  A    between atoms: N_33  and  C_34
REMARK    8  A    between atoms: C_40  and  C_42
REMARK                            x       y       z     vdW  Elec       q    Type
REMARK                         _______ _______ _______ _____ _____    ______ ____
ROOT
ATOM      1  C   UNL     1       5.489  -3.339   1.655  0.00  0.00    +0.044 A 
ATOM      2  C   UNL     1       4.551  -4.341   1.446  0.00  0.00    +0.026 A 
ATOM      3  C   UNL     1       4.962  -5.651   1.300  0.00  0.00    +0.026 A 
ATOM      4  C   UNL     1       6.313  -5.966   1.362  0.00  0.00    +0.044 A 
ATOM      5  C   UNL     1       7.251  -4.964   1.571  0.00  0.00    +0.026 A 
ATOM      6  C   UNL     1       6.840  -3.654   1.712  0.00  0.00    +0.026 A 
ENDROOT
BRANCH   1  11
ATOM      7  C   UNL     1       4.749   0.254   1.362  0.00  0.00    +0.026 C 
ATOM      8  C   UNL     1       4.090  -0.103   2.710  0.00  0.00    +0.090 C 
ATOM      9  C   UNL     1       4.376  -1.581   2.864  0.00  0.00    +0.225 C 
ATOM     10  O   UNL     1       4.028  -2.269   3.800  0.00  0.00    -0.275 OA
ATOM     11  N   UNL     1       5.072  -2.008   1.804  0.00  0.00    -0.212 N 
ATOM     12  C   UNL     1       5.338  -1.059   0.893  0.00  0.00    +0.213 C 
ATOM     13  O   UNL     1       5.951  -1.224  -0.140  0.00  0.00    -0.277 OA
BRANCH   7  14
ATOM     14  N   UNL     1       5.806   1.256   1.553  0.00  0.00    +0.389 N 
ATOM     15  H   UNL     1       6.534   0.870   2.136  0.00  0.00    -0.084 HD
ATOM     16  H   UNL     1       5.418   2.074   1.997  0.00  0.00    -0.084 HD
BRANCH  14  23
ATOM     17  C   UNL     1       7.076   3.834   1.182  0.00  0.00    +0.006 C 
ATOM     18  C   UNL     1       7.553   2.575   0.455  0.00  0.00    -0.028 C 
ATOM     19  C   UNL     1       8.140   2.962  -0.903  0.00  0.00    +0.002 C 
ATOM     20  C   UNL     1       7.068   3.660  -1.742  0.00  0.00    +0.000 C 
ATOM     21  C   UNL     1       5.885   2.712  -1.949  0.00  0.00    -0.002 C 
ATOM     22  C   UNL     1       5.298   2.325  -0.591  0.00  0.00    -0.015 C 
ATOM     23  C   UNL     1       6.370   1.627   0.248  0.00  0.00    -0.068 C 
ENDBRANCH  14  23
ENDBRANCH   7  14
ENDBRANCH   1  11
BRANCH   4  24
ATOM     24  N   UNL     1       6.730  -7.298   1.215  0.00  0.00    -0.212 N 
ATOM     25  C   UNL     1       6.437  -8.252   2.107  0.00  0.00    +0.225 C 
ATOM     26  O   UNL     1       5.795  -8.090   3.123  0.00  0.00    -0.275 OA
ATOM     27  C   UNL     1       7.034  -9.564   1.647  0.00  0.00    +0.090 C 
ATOM     28  C   UNL     1       7.730  -9.199   0.320  0.00  0.00    +0.026 C 
ATOM     29  C   UNL     1       7.448  -7.720   0.167  0.00  0.00    +0.213 C 
ATOM     30  O   UNL     1       7.817  -7.027  -0.757  0.00  0.00    -0.277 OA
BRANCH  28  31
ATOM     31  N   UNL     1       7.145  -9.954  -0.795  0.00  0.00    +0.389 N 
ATOM     32  H   UNL     1       6.148  -9.797  -0.821  0.00  0.00    -0.084 HD
ATOM     33  H   UNL     1       7.556  -9.644  -1.663  0.00  0.00    -0.084 HD
BRANCH  31  34
ATOM     34  C   UNL     1       7.411 -11.386  -0.610  0.00  0.00    -0.068 C 
ATOM     35  C   UNL     1       8.916 -11.643  -0.712  0.00  0.00    -0.015 C 
ATOM     36  C   UNL     1       9.194 -13.135  -0.519  0.00  0.00    -0.002 C 
ATOM     37  C   UNL     1       8.466 -13.933  -1.603  0.00  0.00    +0.000 C 
ATOM     38  C   UNL     1       6.961 -13.677  -1.502  0.00  0.00    +0.002 C 
ATOM     39  C   UNL     1       6.684 -12.185  -1.694  0.00  0.00    -0.028 C 
ATOM     40  C   UNL     1       7.184 -11.747  -3.072  0.00  0.00    +0.006 C 
ENDBRANCH  31  34
ENDBRANCH  28  31
ENDBRANCH   4  24
TORSDOF 6
