REMARK  Name = ZINC44017216
REMARK  8 active torsions:
REMARK  status: ('A' for Active; 'I' for Inactive)
REMARK    1  A    between atoms: C_1  and  C_2
REMARK    2  A    between atoms: C_2  and  C_3
REMARK    3  A    between atoms: C_2  and  C_4
REMARK    4  A    between atoms: C_2  and  N_5
REMARK    5  A    between atoms: C_6  and  C_8
REMARK    6  A    between atoms: C_11  and  N_14
REMARK    7  A    between atoms: N_17  and  C_18
REMARK    8  A    between atoms: N_17  and  C_19
REMARK                            x       y       z     vdW  Elec       q    Type
REMARK                         _______ _______ _______ _____ _____    ______ ____
ROOT
ATOM      1  N   UNL     1       4.612  -1.950  -6.069  0.00  0.00    -0.269 N 
ATOM      2  C   UNL     1       5.862  -1.529  -6.341  0.00  0.00    +0.307 C 
ATOM      3  O   UNL     1       6.456  -0.831  -5.543  0.00  0.00    -0.252 OA
ATOM      4  N   UNL     1       6.455  -1.883  -7.499  0.00  0.00    -0.281 N 
ATOM      5  C   UNL     1       5.740  -2.724  -8.461  0.00  0.00    +0.134 C 
ATOM      6  H   UNL     1       4.163  -2.561  -6.675  0.00  0.00    +0.156 HD
ENDROOT
BRANCH   4   7
ATOM      7  C   UNL     1       7.815  -1.425  -7.795  0.00  0.00    +0.108 C 
ATOM      8  C   UNL     1       8.750  -2.632  -8.020  0.00  0.00    +0.032 C 
ATOM      9  C   UNL     1       9.713  -2.109  -9.106  0.00  0.00    +0.037 C 
ATOM     10  C   UNL     1       8.929  -1.051  -9.853  0.00  0.00    -0.042 A 
ATOM     11  C   UNL     1       7.838  -0.655  -9.099  0.00  0.00    -0.024 A 
ATOM     12  C   UNL     1       6.975   0.311  -9.585  0.00  0.00    +0.006 A 
ATOM     13  C   UNL     1       7.199   0.884 -10.822  0.00  0.00    +0.000 A 
ATOM     14  C   UNL     1       8.288   0.492 -11.577  0.00  0.00    +0.000 A 
ATOM     15  C   UNL     1       9.152  -0.477 -11.094  0.00  0.00    +0.004 A 
ENDBRANCH   4   7
BRANCH   1  19
ATOM     16  C   UNL     1       2.673  -0.630  -2.627  0.00  0.00    +0.037 A 
ATOM     17  C   UNL     1       4.052  -0.856  -2.611  0.00  0.00    +0.015 A 
ATOM     18  C   UNL     1       4.690  -1.292  -3.750  0.00  0.00    +0.024 A 
ATOM     19  C   UNL     1       3.962  -1.508  -4.917  0.00  0.00    +0.035 A 
ATOM     20  C   UNL     1       2.590  -1.285  -4.936  0.00  0.00    +0.024 A 
ATOM     21  C   UNL     1       1.945  -0.854  -3.799  0.00  0.00    +0.015 A 
BRANCH  16  23
ATOM     22  N   UNL     1       2.689   0.052  -0.278  0.00  0.00    -0.307 N 
ATOM     23  C   UNL     1       1.986  -0.163  -1.407  0.00  0.00    +0.244 C 
ATOM     24  O   UNL     1       0.785   0.028  -1.421  0.00  0.00    -0.270 OA
ATOM     25  H   UNL     1       3.647  -0.100  -0.267  0.00  0.00    +0.150 HD
BRANCH  22  27
ATOM     26  C   UNL     1       0.949  -0.509   1.347  0.00  0.00    +0.031 C 
ATOM     27  C   UNL     1       2.008   0.516   0.933  0.00  0.00    +0.026 C 
ATOM     28  C   UNL     1       1.334   1.861   0.655  0.00  0.00    +0.031 C 
ATOM     29  C   UNL     1       3.027   0.680   2.062  0.00  0.00    +0.031 C 
ENDBRANCH  22  27
ENDBRANCH  16  23
ENDBRANCH   1  19
TORSDOF 4
