REMARK  Name = ZINC04563896
REMARK  6 active torsions:
REMARK  status: ('A' for Active; 'I' for Inactive)
REMARK    1  A    between atoms: C_1  and  O_2
REMARK    2  A    between atoms: O_2  and  C_3
REMARK    3  A    between atoms: C_3  and  C_4
REMARK    4  A    between atoms: C_4  and  N_5
REMARK    5  A    between atoms: C_6  and  C_20
REMARK    6  A    between atoms: C_8  and  C_18
REMARK                            x       y       z     vdW  Elec       q    Type
REMARK                         _______ _______ _______ _____ _____    ______ ____
ROOT
ATOM      1  N   UNL     1      -1.342   1.969   3.527  0.00  0.00    -0.287 N 
ATOM      2  C   UNL     1      -0.816   0.949   4.432  0.00  0.00    +0.127 C 
ATOM      3  C   UNL     1       0.671   1.182   4.708  0.00  0.00    +0.158 C 
ATOM      4  C   UNL     1       0.900   2.609   5.130  0.00  0.00    -0.019 A 
ATOM      5  C   UNL     1       1.898   2.926   6.026  0.00  0.00    +0.005 A 
ATOM      6  C   UNL     1       2.119   4.247   6.377  0.00  0.00    +0.000 A 
ATOM      7  C   UNL     1       1.342   5.255   5.833  0.00  0.00    +0.001 A 
ATOM      8  C   UNL     1       0.334   4.950   4.940  0.00  0.00    +0.013 A 
ATOM      9  C   UNL     1       0.105   3.621   4.589  0.00  0.00    +0.041 A 
ATOM     10  C   UNL     1      -0.976   3.260   3.648  0.00  0.00    +0.247 C 
ATOM     11  O   UNL     1      -1.529   4.119   2.989  0.00  0.00    -0.270 OA
ENDROOT
BRANCH   2  12
ATOM     12  C   UNL     1      -1.579   0.999   5.731  0.00  0.00    -0.001 A 
ATOM     13  C   UNL     1      -2.305   2.030   6.191  0.00  0.00    +0.089 A 
ATOM     14  N   UNL     1      -2.853   1.710   7.404  0.00  0.00    -0.360 N 
ATOM     15  H   UNL     1      -3.418   2.296   7.932  0.00  0.00    +0.165 HD
ATOM     16  C   UNL     1      -2.484   0.433   7.762  0.00  0.00    +0.047 A 
ATOM     17  C   UNL     1      -1.674  -0.070   6.727  0.00  0.00    +0.005 A 
ATOM     18  C   UNL     1      -1.143  -1.358   6.823  0.00  0.00    +0.010 A 
ATOM     19  C   UNL     1      -1.422  -2.128   7.917  0.00  0.00    +0.001 A 
ATOM     20  C   UNL     1      -2.225  -1.637   8.937  0.00  0.00    +0.002 A 
ATOM     21  C   UNL     1      -2.755  -0.367   8.867  0.00  0.00    +0.026 A 
ENDBRANCH   2  12
BRANCH   3  22
ATOM     22  C   UNL     1       1.463   0.897   3.458  0.00  0.00    +0.365 C 
ATOM     23  O   UNL     1       1.004   1.174   2.376  0.00  0.00    -0.246 OA
ATOM     24  O   UNL     1       2.679   0.335   3.548  0.00  0.00    -0.246 OA
ENDBRANCH   3  22
BRANCH   1  25
ATOM     25  C   UNL     1      -2.286   1.583   2.476  0.00  0.00    +0.137 C 
BRANCH  25  26
ATOM     26  C   UNL     1      -3.708   1.592   3.039  0.00  0.00    +0.178 C 
BRANCH  26  28
ATOM     27  C   UNL     1      -5.391   3.048   3.930  0.00  0.00    +0.194 C 
ATOM     28  O   UNL     1      -4.073   2.928   3.390  0.00  0.00    -0.381 OA
ENDBRANCH  26  28
ENDBRANCH  25  26
ENDBRANCH   1  25
TORSDOF 5
