REMARK  Name = ZINC59016458
REMARK  6 active torsions:
REMARK  status: ('A' for Active; 'I' for Inactive)
REMARK    1  A    between atoms: C_3  and  C_6
REMARK    2  A    between atoms: N_7  and  N_8
REMARK    3  A    between atoms: C_11  and  S_14
REMARK    4  A    between atoms: S_14  and  C_15
REMARK    5  A    between atoms: C_15  and  C_16
REMARK    6  A    between atoms: N_18  and  C_19
REMARK                            x       y       z     vdW  Elec       q    Type
REMARK                         _______ _______ _______ _____ _____    ______ ____
ROOT
ATOM      1  N   UNL     1       6.047   1.424  -0.074  0.00  0.00    -0.205 N 
ATOM      2  C   UNL     1       7.095   0.524  -0.086  0.00  0.00    +0.232 A 
ATOM      3  N   UNL     1       6.989  -0.788  -0.088  0.00  0.00    -0.186 NA
ATOM      4  C   UNL     1       8.208  -1.338  -0.101  0.00  0.00    +0.211 A 
ATOM      5  N   UNL     1       9.107  -0.383  -0.107  0.00  0.00    -0.144 NA
ATOM      6  N   UNL     1       8.409   0.836  -0.103  0.00  0.00    -0.245 N 
ATOM      7  H   UNL     1       6.226   2.378  -0.078  0.00  0.00    +0.177 HD
ATOM      8  H   UNL     1       8.795   1.726  -0.110  0.00  0.00    +0.192 HD
ENDROOT
BRANCH   1  10
ATOM      9  C   UNL     1       3.738   1.807  -0.045  0.00  0.00    +0.145 C 
ATOM     10  N   UNL     1       4.725   0.960  -0.056  0.00  0.00    -0.187 NA
BRANCH   9  13
ATOM     11  C   UNL     1      -0.016   1.355   0.003  0.00  0.00    +0.008 A 
ATOM     12  C   UNL     1       1.175   2.045  -0.013  0.00  0.00    +0.017 A 
ATOM     13  C   UNL     1       2.354   1.321  -0.027  0.00  0.00    +0.032 A 
ATOM     14  S   UNL     1       1.752  -0.360  -0.017  0.00  0.00    -0.096 S 
ATOM     15  C   UNL     1       0.003  -0.003   0.005  0.00  0.00    +0.046 A 
ENDBRANCH   9  13
ENDBRANCH   1  10
BRANCH   4  16
ATOM     16  S   UNL     1       8.551  -3.067  -0.108  0.00  0.00    -0.075 S 
BRANCH  16  17
ATOM     17  C   UNL     1      10.363  -3.154  -0.125  0.00  0.00    +0.173 C 
BRANCH  17  18
ATOM     18  C   UNL     1      10.796  -4.598  -0.133  0.00  0.00    +0.227 C 
ATOM     19  O   UNL     1       9.964  -5.480  -0.126  0.00  0.00    -0.275 OA
ATOM     20  N   UNL     1      12.107  -4.907  -0.146  0.00  0.00    -0.285 N 
ATOM     21  H   UNL     1      12.771  -4.204  -0.219  0.00  0.00    +0.155 HD
BRANCH  20  22
ATOM     22  C   UNL     1      12.511  -6.244  -0.055  0.00  0.00    +0.036 A 
ATOM     23  C   UNL     1      13.670  -6.575   0.636  0.00  0.00    +0.043 A 
ATOM     24  C   UNL     1      14.066  -7.896   0.725  0.00  0.00    +0.044 A 
ATOM     25  C   UNL     1      13.310  -8.889   0.126  0.00  0.00    +0.040 A 
ATOM     26  C   UNL     1      12.156  -8.562  -0.563  0.00  0.00    +0.044 A 
ATOM     27  C   UNL     1      11.752  -7.242  -0.650  0.00  0.00    +0.043 A 
ATOM     28 CL   UNL     1      11.210  -9.809  -1.313  0.00  0.00    -0.083 Cl
ATOM     29 CL   UNL     1      15.515  -8.311   1.587  0.00  0.00    -0.083 Cl
ENDBRANCH  20  22
ENDBRANCH  17  18
ENDBRANCH  16  17
ENDBRANCH   4  16
TORSDOF 6
