REMARK  Name = ZINC11066659
REMARK  10 active torsions:
REMARK  status: ('A' for Active; 'I' for Inactive)
REMARK    1  A    between atoms: C_1  and  C_2
REMARK    2  A    between atoms: C_2  and  O_3
REMARK    3  A    between atoms: O_3  and  C_4
REMARK    4  A    between atoms: C_9  and  N_10
REMARK    5  A    between atoms: C_11  and  C_13
REMARK    6  A    between atoms: C_13  and  O_14
REMARK    7  A    between atoms: O_14  and  C_15
REMARK    8  A    between atoms: C_18  and  C_24
REMARK    9  A    between atoms: C_20  and  N_21
REMARK   10  A    between atoms: C_26  and  C_29
REMARK                            x       y       z     vdW  Elec       q    Type
REMARK                         _______ _______ _______ _____ _____    ______ ____
ROOT
ATOM      1  N   UNL     1      -0.077  -2.779  -0.021  0.00  0.00    -0.280 N 
ATOM      2  C   UNL     1      -0.079  -4.030  -0.521  0.00  0.00    +0.255 C 
ATOM      3  O   UNL     1      -1.082  -4.475  -1.038  0.00  0.00    -0.272 OA
ATOM      4  H   UNL     1       0.746  -2.394   0.320  0.00  0.00    +0.155 HD
ENDROOT
BRANCH   1  10
ATOM      5  C   UNL     1      -1.209  -0.642   0.023  0.00  0.00    +0.142 A 
ATOM      6  C   UNL     1      -2.386   0.089   0.048  0.00  0.00    +0.055 A 
ATOM      7  C   UNL     1      -3.601  -0.561   0.061  0.00  0.00    +0.001 A 
ATOM      8  C   UNL     1      -3.669  -1.949   0.046  0.00  0.00    +0.126 A 
ATOM      9  C   UNL     1      -2.486  -2.682   0.025  0.00  0.00    +0.073 A 
ATOM     10  C   UNL     1      -1.263  -2.034   0.007  0.00  0.00    +0.079 A 
ATOM     11  O   UNL     1      -4.962  -2.380   0.049  0.00  0.00    -0.488 OA
ATOM     12  C   UNL     1      -5.814  -1.316   0.506  0.00  0.00    +0.175 C 
ATOM     13  C   UNL     1      -5.028  -0.048   0.099  0.00  0.00    +0.083 C 
ATOM     14  C   UNL     1      -5.993  -1.380   2.024  0.00  0.00    +0.052 C 
BRANCH   5  15
ATOM     15  O   UNL     1      -0.007  -0.004   0.007  0.00  0.00    -0.490 OA
BRANCH  15  17
ATOM     16  C   UNL     1       1.402   1.959  -0.002  0.00  0.00    +0.048 C 
ATOM     17  C   UNL     1      -0.031   1.425   0.018  0.00  0.00    +0.226 C 
ENDBRANCH  15  17
ENDBRANCH   5  15
ENDBRANCH   1  10
BRANCH   2  18
ATOM     18  C   UNL     1       1.165  -4.877  -0.438  0.00  0.00    +0.325 C 
BRANCH  18  19
ATOM     19  O   UNL     1       0.913  -6.152  -1.032  0.00  0.00    -0.480 OA
BRANCH  19  20
ATOM     20  C   UNL     1       1.940  -7.043  -1.040  0.00  0.00    +0.151 A 
ATOM     21  C   UNL     1       3.166  -6.694  -0.493  0.00  0.00    +0.048 A 
ATOM     22  C   UNL     1       4.207  -7.602  -0.498  0.00  0.00    +0.007 A 
ATOM     23  C   UNL     1       4.030  -8.855  -1.058  0.00  0.00    -0.048 A 
ATOM     24  C   UNL     1       2.811  -9.203  -1.609  0.00  0.00    +0.039 A 
ATOM     25  C   UNL     1       1.765  -8.299  -1.601  0.00  0.00    +0.168 A 
ATOM     26  C   UNL     1       5.169  -9.841  -1.068  0.00  0.00    +0.044 C 
BRANCH  25  27
ATOM     27  N   UNL     1       0.460  -8.672  -2.191  0.00  0.00    +0.060 N 
ATOM     28  O   UNL     1       0.307  -9.776  -2.683  0.00  0.00    -0.126 OA
ATOM     29  O   UNL     1      -0.461  -7.876  -2.184  0.00  0.00    -0.126 OA
ENDBRANCH  25  27
ENDBRANCH  19  20
ENDBRANCH  18  19
ENDBRANCH   2  18
TORSDOF 7
