REMARK  Name = ZINC59008500
REMARK  5 active torsions:
REMARK  status: ('A' for Active; 'I' for Inactive)
REMARK    1  A    between atoms: C_1  and  C_2
REMARK    2  A    between atoms: C_2  and  C_18
REMARK    3  A    between atoms: N_5  and  C_9
REMARK    4  A    between atoms: C_9  and  C_10
REMARK    5  A    between atoms: C_21  and  N_24
REMARK                            x       y       z     vdW  Elec       q    Type
REMARK                         _______ _______ _______ _____ _____    ______ ____
ROOT
ATOM      1  C   UNL     1      -0.019   1.526   0.010  0.00  0.00    +0.047 C 
ATOM      2  C   UNL     1       0.002  -0.004   0.002  0.00  0.00    +0.135 C 
ATOM      3  C   UNL     1      -1.403  -0.557   0.139  0.00  0.00    +0.251 C 
ATOM      4  O   UNL     1      -2.332  -0.392  -0.621  0.00  0.00    -0.272 OA
ATOM      5  N   UNL     1      -1.403  -1.272   1.282  0.00  0.00    -0.219 N 
ATOM      6  C   UNL     1      -0.206  -1.247   1.879  0.00  0.00    +0.310 C 
ATOM      7  O   UNL     1       0.040  -1.819   2.924  0.00  0.00    -0.252 OA
ATOM      8  N   UNL     1       0.695  -0.520   1.195  0.00  0.00    -0.281 N 
ATOM      9  H   UNL     1       1.621  -0.365   1.440  0.00  0.00    +0.152 HD
ENDROOT
BRANCH   2  10
ATOM     10  C   UNL     1       0.657  -0.517  -1.255  0.00  0.00    -0.015 A 
ATOM     11  C   UNL     1      -0.107  -0.772  -2.378  0.00  0.00    +0.008 A 
ATOM     12  C   UNL     1       0.493  -1.242  -3.530  0.00  0.00    +0.033 A 
ATOM     13  C   UNL     1       1.859  -1.457  -3.560  0.00  0.00    +0.126 A 
ATOM     14  C   UNL     1       2.623  -1.202  -2.437  0.00  0.00    +0.033 A 
ATOM     15  C   UNL     1       2.023  -0.727  -1.286  0.00  0.00    +0.008 A 
BRANCH  13  16
ATOM     16  N   UNL     1       2.502  -1.962  -4.794  0.00  0.00    +0.056 N 
ATOM     17  O   UNL     1       1.833  -2.186  -5.776  0.00  0.00    -0.126 OA
ATOM     18  O   UNL     1       3.696  -2.150  -4.820  0.00  0.00    -0.126 OA
ENDBRANCH  13  16
ENDBRANCH   2  10
BRANCH   5  19
ATOM     19  C   UNL     1      -2.569  -1.986   1.805  0.00  0.00    +0.156 C 
BRANCH  19  20
ATOM     20  C   UNL     1      -2.585  -3.391   1.260  0.00  0.00    +0.007 A 
ATOM     21  C   UNL     1      -3.399  -3.708   0.189  0.00  0.00    +0.023 A 
ATOM     22  C   UNL     1      -3.413  -4.997  -0.311  0.00  0.00    +0.018 A 
ATOM     23  C   UNL     1      -2.612  -5.970   0.259  0.00  0.00    +0.018 A 
ATOM     24  C   UNL     1      -1.797  -5.655   1.329  0.00  0.00    +0.040 A 
ATOM     25  C   UNL     1      -1.778  -4.363   1.827  0.00  0.00    +0.128 A 
ATOM     26  F   UNL     1      -0.977  -4.053   2.870  0.00  0.00    -0.205 F 
ATOM     27 BR   UNL     1      -4.529  -5.430  -1.776  0.00  0.00    -0.050 Br
ENDBRANCH  19  20
ENDBRANCH   5  19
TORSDOF 4
