REMARK  Name = ZINC17887903
REMARK  8 active torsions:
REMARK  status: ('A' for Active; 'I' for Inactive)
REMARK    1  A    between atoms: C_1  and  O_2
REMARK    2  A    between atoms: O_2  and  C_3
REMARK    3  A    between atoms: C_6  and  N_9
REMARK    4  A    between atoms: C_13  and  S_17
REMARK    5  A    between atoms: S_17  and  C_18
REMARK    6  A    between atoms: N_20  and  N_21
REMARK    7  A    between atoms: C_22  and  C_23
REMARK    8  A    between atoms: C_27  and  N_29
REMARK                            x       y       z     vdW  Elec       q    Type
REMARK                         _______ _______ _______ _____ _____    ______ ____
ROOT
ATOM      1  C   UNL     1       1.994  -6.620   6.110  0.00  0.00    +0.146 C 
ATOM      2  N   UNL     1       2.530  -6.910   4.957  0.00  0.00    -0.380 N 
ATOM      3  N   UNL     1       1.214  -7.551   6.759  0.00  0.00    -0.217 N 
ATOM      4  H   UNL     1       2.380  -7.781   4.557  0.00  0.00    +0.158 HD
ATOM      5  H   UNL     1       0.815  -7.335   7.617  0.00  0.00    +0.176 HD
ATOM      6  H   UNL     1       3.080  -6.255   4.499  0.00  0.00    +0.158 HD
ENDROOT
BRANCH   3   7
ATOM      7  N   UNL     1       0.997  -8.809   6.182  0.00  0.00    -0.188 NA
ATOM      8  C   UNL     1       0.262  -9.686   6.794  0.00  0.00    +0.138 C 
BRANCH   8   9
ATOM      9  C   UNL     1       0.033 -11.010   6.187  0.00  0.00    -0.003 A 
ATOM     10  C   UNL     1       0.611 -11.326   4.955  0.00  0.00    +0.009 A 
ATOM     11  C   UNL     1       0.394 -12.566   4.392  0.00  0.00    +0.003 A 
ATOM     12  C   UNL     1      -0.396 -13.497   5.045  0.00  0.00    +0.033 A 
ATOM     13  C   UNL     1      -0.971 -13.191   6.266  0.00  0.00    +0.127 A 
ATOM     14  C   UNL     1      -0.757 -11.956   6.843  0.00  0.00    +0.042 A 
BRANCH  13  15
ATOM     15  N   UNL     1      -1.814 -14.193   6.956  0.00  0.00    +0.056 N 
ATOM     16  O   UNL     1      -1.998 -15.277   6.454  0.00  0.00    -0.126 OA
ATOM     17  O   UNL     1      -2.318 -13.927   8.023  0.00  0.00    -0.126 OA
ENDBRANCH  13  15
ENDBRANCH   8   9
ENDBRANCH   3   7
BRANCH   1  18
ATOM     18  S   UNL     1       2.266  -5.038   6.836  0.00  0.00    -0.078 S 
BRANCH  18  23
ATOM     19  N   UNL     1       2.540  -2.504   4.233  0.00  0.00    -0.209 N 
ATOM     20  C   UNL     1       3.193  -1.830   5.187  0.00  0.00    +0.228 C 
ATOM     21  O   UNL     1       3.307  -0.624   5.242  0.00  0.00    -0.275 OA
ATOM     22  C   UNL     1       3.767  -2.810   6.186  0.00  0.00    +0.120 C 
ATOM     23  C   UNL     1       3.328  -4.183   5.639  0.00  0.00    +0.149 C 
ATOM     24  C   UNL     1       2.547  -3.834   4.391  0.00  0.00    +0.240 C 
ATOM     25  O   UNL     1       2.014  -4.631   3.649  0.00  0.00    -0.274 OA
BRANCH  19  29
ATOM     26  C   UNL     1       0.625  -0.618   1.043  0.00  0.00    +0.120 A 
ATOM     27  C   UNL     1      -0.122  -1.279   2.007  0.00  0.00    +0.047 A 
ATOM     28  C   UNL     1       0.512  -1.904   3.063  0.00  0.00    +0.027 A 
ATOM     29  C   UNL     1       1.896  -1.870   3.160  0.00  0.00    +0.044 A 
ATOM     30  C   UNL     1       2.643  -1.208   2.195  0.00  0.00    +0.027 A 
ATOM     31  C   UNL     1       2.009  -0.588   1.137  0.00  0.00    +0.047 A 
BRANCH  26  33
ATOM     32  C   UNL     1      -1.426  -0.074  -0.030  0.00  0.00    +0.277 C 
ATOM     33  O   UNL     1       0.001  -0.003   0.003  0.00  0.00    -0.495 OA
ENDBRANCH  26  33
ENDBRANCH  19  29
ENDBRANCH  18  23
ENDBRANCH   1  18
TORSDOF 7
