REMARK  Name = ZINC36660404
REMARK  10 active torsions:
REMARK  status: ('A' for Active; 'I' for Inactive)
REMARK    1  A    between atoms: C_1  and  N_2
REMARK    2  A    between atoms: N_2  and  C_3
REMARK    3  A    between atoms: N_2  and  C_4
REMARK    4  A    between atoms: C_4  and  C_5
REMARK    5  A    between atoms: C_5  and  N_6
REMARK    6  A    between atoms: C_17  and  C_19
REMARK    7  A    between atoms: N_24  and  S_25
REMARK    8  A    between atoms: S_25  and  C_28
REMARK    9  A    between atoms: C_31  and  O_34
REMARK   10  A    between atoms: O_34  and  C_35
REMARK                            x       y       z     vdW  Elec       q    Type
REMARK                         _______ _______ _______ _____ _____    ______ ____
ROOT
ATOM      1  N   UNL     1      -2.231  -2.542   0.348  0.00  0.00    -0.251 N 
ATOM      2  C   UNL     1      -2.757  -2.494  -0.933  0.00  0.00    +0.168 A 
ATOM      3  N   UNL     1      -2.241  -1.960  -2.015  0.00  0.00    -0.224 NA
ATOM      4  C   UNL     1      -2.871  -1.987  -3.209  0.00  0.00    +0.080 A 
ATOM      5  C   UNL     1      -2.428  -1.452  -4.442  0.00  0.00    +0.030 A 
ATOM      6  C   UNL     1      -3.197  -1.565  -5.571  0.00  0.00    +0.022 A 
ATOM      7  C   UNL     1      -4.430  -2.203  -5.548  0.00  0.00    +0.042 A 
ATOM      8  C   UNL     1      -4.894  -2.738  -4.359  0.00  0.00    +0.037 A 
ATOM      9  C   UNL     1      -4.129  -2.629  -3.223  0.00  0.00    +0.042 A 
ATOM     10  S   UNL     1      -4.308  -3.148  -1.534  0.00  0.00    -0.052 S 
ATOM     11 CL   UNL     1      -5.380  -2.328  -6.995  0.00  0.00    -0.084 Cl
ATOM     12  C   UNL     1      -2.919  -3.148   1.336  0.00  0.00    +0.240 C 
ATOM     13  O   UNL     1      -3.953  -3.731   1.087  0.00  0.00    -0.273 OA
ENDROOT
BRANCH  12  14
ATOM     14  C   UNL     1      -2.404  -3.101   2.752  0.00  0.00    +0.166 C 
ATOM     15  C   UNL     1      -1.489  -4.316   3.018  0.00  0.00    +0.031 C 
ATOM     16  C   UNL     1      -1.849  -4.710   4.474  0.00  0.00    +0.019 C 
ATOM     17  C   UNL     1      -3.367  -4.402   4.513  0.00  0.00    +0.110 C 
ATOM     18  N   UNL     1      -3.527  -3.182   3.696  0.00  0.00    -0.165 NA
BRANCH  18  19
ATOM     19  S   UNL     1      -4.764  -2.087   3.821  0.00  0.00    +0.062 S 
ATOM     20  O   UNL     1      -5.184  -2.102   5.178  0.00  0.00    -0.153 OA
ATOM     21  O   UNL     1      -4.323  -0.901   3.173  0.00  0.00    -0.153 OA
BRANCH  19  22
ATOM     22  C   UNL     1      -6.109  -2.710   2.869  0.00  0.00    +0.106 A 
ATOM     23  C   UNL     1      -6.282  -2.293   1.562  0.00  0.00    +0.032 A 
ATOM     24  C   UNL     1      -7.337  -2.780   0.815  0.00  0.00    +0.047 A 
ATOM     25  C   UNL     1      -8.222  -3.688   1.376  0.00  0.00    +0.120 A 
ATOM     26  C   UNL     1      -8.046  -4.106   2.687  0.00  0.00    +0.047 A 
ATOM     27  C   UNL     1      -6.987  -3.620   3.429  0.00  0.00    +0.032 A 
BRANCH  25  28
ATOM     28  O   UNL     1      -9.261  -4.169   0.642  0.00  0.00    -0.495 OA
ATOM     29  C   UNL     1     -10.133  -5.101   1.285  0.00  0.00    +0.277 C 
ENDBRANCH  25  28
ENDBRANCH  19  22
ENDBRANCH  18  19
ENDBRANCH  12  14
BRANCH   1  30
ATOM     30  C   UNL     1      -0.928  -1.935   0.628  0.00  0.00    +0.097 C 
BRANCH  30  31
ATOM     31  C   UNL     1      -1.119  -0.461   0.989  0.00  0.00    -0.060 C 
BRANCH  31  33
ATOM     32  C   UNL     1       0.019   1.589   1.498  0.00  0.00    -0.097 C 
ATOM     33  N   UNL     1       0.189   0.148   1.270  0.00  0.00    +0.377 N 
ATOM     34  C   UNL     1       0.770  -0.473   2.468  0.00  0.00    -0.097 C 
ATOM     35  H   UNL     1       0.803   0.002   0.483  0.00  0.00    -0.083 HD
ENDBRANCH  31  33
ENDBRANCH  30  31
ENDBRANCH   1  30
TORSDOF 7
