REMARK  Name = ZINC40708498
REMARK  4 active torsions:
REMARK  status: ('A' for Active; 'I' for Inactive)
REMARK    1  A    between atoms: C_4  and  N_18
REMARK    2  A    between atoms: C_5  and  N_7
REMARK    3  A    between atoms: N_7  and  C_8
REMARK    4  A    between atoms: N_19  and  C_20
REMARK                            x       y       z     vdW  Elec       q    Type
REMARK                         _______ _______ _______ _____ _____    ______ ____
ROOT
ATOM      1  C   UNL     1      -0.016   1.313   0.009  0.00  0.00    +0.225 A 
ATOM      2  N   UNL     1       1.092   2.027   0.003  0.00  0.00    -0.219 NA
ATOM      3  C   UNL     1       2.285   1.438  -0.012  0.00  0.00    +0.145 A 
ATOM      4  C   UNL     1       2.351   0.044  -0.020  0.00  0.00    +0.105 A 
ATOM      5  C   UNL     1       1.153  -0.673  -0.013  0.00  0.00    +0.145 A 
ATOM      6  N   UNL     1       0.002  -0.004   0.002  0.00  0.00    -0.219 NA
ATOM      7  N   UNL     1       3.448   2.200  -0.019  0.00  0.00    -0.325 N 
ATOM      8  H   UNL     1       4.314   1.762  -0.030  0.00  0.00    +0.148 HD
ENDROOT
BRANCH   7   9
ATOM      9  C   UNL     1       3.366   3.662  -0.011  0.00  0.00    +0.072 C 
ATOM     10  C   UNL     1       3.198   4.172  -1.444  0.00  0.00    +0.022 C 
ATOM     11  C   UNL     1       3.112   5.699  -1.436  0.00  0.00    +0.002 C 
ATOM     12  C   UNL     1       4.394   6.279  -0.836  0.00  0.00    +0.000 C 
ATOM     13  C   UNL     1       4.562   5.769   0.597  0.00  0.00    +0.002 C 
ATOM     14  C   UNL     1       4.648   4.242   0.589  0.00  0.00    +0.022 C 
ENDBRANCH   7   9
BRANCH   4  15
ATOM     15  N   UNL     1       3.588  -0.620  -0.036  0.00  0.00    -0.353 N 
ATOM     16  H   UNL     1       4.413  -0.109  -0.041  0.00  0.00    +0.143 HD
ATOM     17  H   UNL     1       3.619  -1.590  -0.041  0.00  0.00    +0.143 HD
ENDBRANCH   4  15
BRANCH   5  18
ATOM     18  N   UNL     1       1.162  -2.062  -0.020  0.00  0.00    -0.322 N 
ATOM     19  H   UNL     1       2.005  -2.542  -0.031  0.00  0.00    +0.148 HD
BRANCH  18  20
ATOM     20  C   UNL     1      -0.102  -2.803  -0.012  0.00  0.00    +0.034 C 
ATOM     21  C   UNL     1      -0.919  -2.431  -1.252  0.00  0.00    +0.029 C 
ATOM     22  C   UNL     1      -2.239  -3.205  -1.243  0.00  0.00    -0.008 C 
ATOM     23  C   UNL     1      -1.950  -4.707  -1.254  0.00  0.00    +0.007 C 
ATOM     24  C   UNL     1      -1.133  -5.079  -0.015  0.00  0.00    -0.008 C 
ATOM     25  C   UNL     1       0.187  -4.305  -0.024  0.00  0.00    +0.029 C 
ATOM     26  C   UNL     1      -1.926  -4.721   1.244  0.00  0.00    +0.007 C 
ATOM     27  C   UNL     1      -2.215  -3.219   1.255  0.00  0.00    -0.008 C 
ATOM     28  C   UNL     1      -3.031  -2.847   0.016  0.00  0.00    +0.007 C 
ATOM     29  C   UNL     1      -0.895  -2.446   1.247  0.00  0.00    +0.029 C 
ENDBRANCH  18  20
ENDBRANCH   5  18
TORSDOF 4
