REMARK  Name = ZINC20085988
REMARK  13 active torsions:
REMARK  status: ('A' for Active; 'I' for Inactive)
REMARK    1  A    between atoms: C_1  and  O_2
REMARK    2  A    between atoms: O_2  and  C_3
REMARK    3  A    between atoms: C_6  and  C_11
REMARK    4  A    between atoms: C_8  and  O_9
REMARK    5  A    between atoms: O_9  and  C_10
REMARK    6  A    between atoms: C_16  and  C_26
REMARK    7  A    between atoms: C_23  and  O_24
REMARK    8  A    between atoms: C_28  and  O_36
REMARK    9  A    between atoms: C_29  and  O_34
REMARK   10  A    between atoms: C_30  and  O_32
REMARK   11  A    between atoms: O_32  and  C_33
REMARK   12  A    between atoms: O_34  and  C_35
REMARK   13  A    between atoms: O_36  and  C_37
REMARK                            x       y       z     vdW  Elec       q    Type
REMARK                         _______ _______ _______ _____ _____    ______ ____
ROOT
ATOM      1  C   UNL     1       2.507  -2.501  -4.386  0.00  0.00    +0.032 C 
ATOM      2  C   UNL     1       3.972  -2.066  -4.459  0.00  0.00    +0.059 C 
ATOM      3  C   UNL     1       4.634  -2.698  -5.662  0.00  0.00    +0.017 C 
ATOM      4  C   UNL     1       3.925  -2.969  -6.779  0.00  0.00    +0.024 C 
ATOM      5  C   UNL     1       4.551  -3.597  -8.005  0.00  0.00    +0.093 C 
ATOM      6  C   UNL     1       6.048  -3.537  -7.897  0.00  0.00    +0.067 A 
ATOM      7  C   UNL     1       6.687  -3.241  -6.722  0.00  0.00    +0.126 A 
ATOM      8  N   UNL     1       8.012  -3.271  -6.956  0.00  0.00    -0.260 N 
ATOM      9  H   UNL     1       8.712  -3.103  -6.305  0.00  0.00    +0.190 HD
ATOM     10  N   UNL     1       8.201  -3.589  -8.311  0.00  0.00    -0.134 NA
ATOM     11  C   UNL     1       7.021  -3.747  -8.869  0.00  0.00    +0.237 A 
ATOM     12  N   UNL     1       5.975  -2.970  -5.559  0.00  0.00    -0.303 N 
ATOM     13  C   UNL     1       2.550  -2.681  -6.848  0.00  0.00    +0.162 C 
ATOM     14  O   UNL     1       1.943  -2.927  -7.872  0.00  0.00    -0.292 OA
ATOM     15  C   UNL     1       1.814  -2.077  -5.686  0.00  0.00    +0.088 C 
ATOM     16  H   UNL     1       6.416  -2.973  -4.695  0.00  0.00    +0.153 HD
ENDROOT
BRANCH   1  20
ATOM     17  C   UNL     1       0.606  -0.608  -1.056  0.00  0.00    +0.161 A 
ATOM     18  C   UNL     1       1.173   0.159  -2.062  0.00  0.00    +0.049 A 
ATOM     19  C   UNL     1       1.787  -0.456  -3.137  0.00  0.00    +0.008 A 
ATOM     20  C   UNL     1       1.837  -1.836  -3.212  0.00  0.00    -0.040 A 
ATOM     21  C   UNL     1       1.273  -2.606  -2.212  0.00  0.00    +0.053 A 
ATOM     22  C   UNL     1       0.662  -1.996  -1.129  0.00  0.00    +0.162 A 
BRANCH  17  24
ATOM     23  C   UNL     1      -0.017   1.425   0.010  0.00  0.00    +0.277 C 
ATOM     24  O   UNL     1       0.002  -0.004   0.002  0.00  0.00    -0.491 OA
ENDBRANCH  17  24
BRANCH  22  25
ATOM     25  O   UNL     1       0.112  -2.753  -0.142  0.00  0.00    -0.491 OA
ATOM     26  C   UNL     1       0.206  -4.171  -0.283  0.00  0.00    +0.277 C 
ENDBRANCH  22  25
ENDBRANCH   1  20
BRANCH   5  27
ATOM     27  C   UNL     1       4.114  -5.035  -8.111  0.00  0.00    -0.028 A 
ATOM     28  C   UNL     1       4.405  -5.920  -7.089  0.00  0.00    +0.054 A 
ATOM     29  C   UNL     1       4.005  -7.245  -7.182  0.00  0.00    +0.165 A 
ATOM     30  C   UNL     1       3.311  -7.682  -8.304  0.00  0.00    +0.204 A 
ATOM     31  C   UNL     1       3.020  -6.789  -9.329  0.00  0.00    +0.165 A 
ATOM     32  C   UNL     1       3.419  -5.465  -9.225  0.00  0.00    +0.054 A 
BRANCH  31  33
ATOM     33  O   UNL     1       2.341  -7.212 -10.428  0.00  0.00    -0.491 OA
ATOM     34  C   UNL     1       2.077  -6.240 -11.441  0.00  0.00    +0.277 C 
ENDBRANCH  31  33
BRANCH  30  35
ATOM     35  O   UNL     1       2.917  -8.982  -8.399  0.00  0.00    -0.488 OA
ATOM     36  C   UNL     1       1.628  -9.309  -7.877  0.00  0.00    +0.277 C 
ENDBRANCH  30  35
BRANCH  29  37
ATOM     37  O   UNL     1       4.292  -8.115  -6.177  0.00  0.00    -0.491 OA
ATOM     38  C   UNL     1       5.009  -7.596  -5.055  0.00  0.00    +0.277 C 
ENDBRANCH  29  37
ENDBRANCH   5  27
BRANCH  11  39
ATOM     39  O   UNL     1       6.791  -4.062 -10.172  0.00  0.00    -0.491 OA
ATOM     40  H   UNL     1       6.706  -3.294 -10.753  0.00  0.00    +0.294 HD
ENDBRANCH  11  39
TORSDOF 8
