REMARK  Name = ZINC01076624
REMARK  7 active torsions:
REMARK  status: ('A' for Active; 'I' for Inactive)
REMARK    1  A    between atoms: C_1  and  C_2
REMARK    2  A    between atoms: C_2  and  C_33
REMARK    3  A    between atoms: C_6  and  C_21
REMARK    4  A    between atoms: C_8  and  C_19
REMARK    5  A    between atoms: C_9  and  N_18
REMARK    6  A    between atoms: N_10  and  C_11
REMARK    7  A    between atoms: C_24  and  N_27
REMARK                            x       y       z     vdW  Elec       q    Type
REMARK                         _______ _______ _______ _____ _____    ______ ____
ROOT
ATOM      1  C   UNL     1       1.873   4.290  -2.413  0.00  0.00    +0.011 C 
ATOM      2  C   UNL     1       2.825   3.392  -3.204  0.00  0.00    -0.023 C 
ATOM      3  C   UNL     1       4.133   3.218  -2.428  0.00  0.00    +0.058 C 
ATOM      4  C   UNL     1       3.852   2.553  -1.103  0.00  0.00    +0.025 C 
ATOM      5  C   UNL     1       2.831   1.681  -0.965  0.00  0.00    +0.025 C 
ATOM      6  C   UNL     1       2.555   1.013   0.358  0.00  0.00    +0.097 C 
ATOM      7  C   UNL     1       3.744   1.106   1.269  0.00  0.00    +0.077 C 
ATOM      8  C   UNL     1       4.733   2.007   1.044  0.00  0.00    +0.107 C 
ATOM      9  N   UNL     1       4.663   2.852  -0.040  0.00  0.00    -0.260 N 
ATOM     10  C   UNL     1       1.992   1.371  -2.050  0.00  0.00    +0.162 C 
ATOM     11  O   UNL     1       1.090   0.570  -1.897  0.00  0.00    -0.292 OA
ATOM     12  C   UNL     1       2.189   2.011  -3.397  0.00  0.00    +0.086 C 
ATOM     13  C   UNL     1       3.116   4.024  -4.567  0.00  0.00    +0.011 C 
ENDROOT
BRANCH   9  14
ATOM     14  C   UNL     1       5.426   4.026  -0.057  0.00  0.00    +0.041 A 
ATOM     15  C   UNL     1       4.897   5.207   0.447  0.00  0.00    +0.024 A 
ATOM     16  C   UNL     1       5.652   6.363   0.430  0.00  0.00    +0.003 A 
ATOM     17  C   UNL     1       6.934   6.346  -0.088  0.00  0.00    +0.020 A 
ATOM     18  C   UNL     1       7.465   5.171  -0.590  0.00  0.00    +0.043 A 
ATOM     19  C   UNL     1       6.715   4.010  -0.571  0.00  0.00    +0.043 A 
ATOM     20 CL   UNL     1       9.075   5.154  -1.239  0.00  0.00    -0.083 Cl
ENDBRANCH   9  14
BRANCH   6  21
ATOM     21  C   UNL     1       1.376   1.684   1.014  0.00  0.00    -0.035 A 
ATOM     22  C   UNL     1       0.235   0.956   1.296  0.00  0.00    +0.007 A 
ATOM     23  C   UNL     1      -0.849   1.573   1.893  0.00  0.00    +0.033 A 
ATOM     24  C   UNL     1      -0.788   2.915   2.217  0.00  0.00    +0.126 A 
ATOM     25  C   UNL     1       0.353   3.643   1.936  0.00  0.00    +0.033 A 
ATOM     26  C   UNL     1       1.435   3.027   1.335  0.00  0.00    +0.007 A 
BRANCH  24  27
ATOM     27  N   UNL     1      -1.946   3.574   2.860  0.00  0.00    +0.056 N 
ATOM     28  O   UNL     1      -1.894   4.758   3.143  0.00  0.00    -0.126 OA
ATOM     29  O   UNL     1      -2.952   2.933   3.108  0.00  0.00    -0.126 OA
ENDBRANCH  24  27
ENDBRANCH   6  21
BRANCH   8  30
ATOM     30  N   UNL     1       5.807   2.076   1.900  0.00  0.00    -0.345 N 
ATOM     31  H   UNL     1       6.471   2.774   1.789  0.00  0.00    +0.144 HD
ATOM     32  H   UNL     1       5.899   1.428   2.615  0.00  0.00    +0.144 HD
ENDBRANCH   8  30
BRANCH   7  33
ATOM     33  C   UNL     1       3.836   0.229   2.397  0.00  0.00    +0.099 C 
ATOM     34  N   UNL     1       3.909  -0.468   3.292  0.00  0.00    -0.191 NA
ENDBRANCH   7  33
TORSDOF 5
