REMARK  Name = ZINC20693953
REMARK  6 active torsions:
REMARK  status: ('A' for Active; 'I' for Inactive)
REMARK    1  A    between atoms: C_1  and  C_2
REMARK    2  A    between atoms: C_3  and  N_27
REMARK    3  A    between atoms: C_9  and  C_18
REMARK    4  A    between atoms: C_22  and  O_25
REMARK    5  A    between atoms: C_23  and  O_24
REMARK    6  A    between atoms: O_25  and  C_26
REMARK                            x       y       z     vdW  Elec       q    Type
REMARK                         _______ _______ _______ _____ _____    ______ ____
ROOT
ATOM      1  C   UNL     1       1.604   8.088  -1.429  0.00  0.00    +0.048 C 
ATOM      2  C   UNL     1       1.385   7.759   0.025  0.00  0.00    +0.001 A 
ATOM      3  C   UNL     1       0.641   8.611   0.810  0.00  0.00    +0.131 A 
ATOM      4  C   UNL     1       0.433   8.322   2.147  0.00  0.00    +0.033 A 
ATOM      5  C   UNL     1       0.970   7.170   2.689  0.00  0.00    +0.008 A 
ATOM      6  C   UNL     1       1.708   6.307   1.907  0.00  0.00    -0.019 A 
ATOM      7  C   UNL     1       1.939   6.594   0.559  0.00  0.00    +0.037 A 
ATOM      8  N   UNL     1       2.694   5.791  -0.293  0.00  0.00    -0.336 N 
ATOM      9  C   UNL     1       3.183   4.517   0.259  0.00  0.00    +0.109 C 
ATOM     10  C   UNL     1       3.600   4.783   1.690  0.00  0.00    +0.029 C 
ATOM     11  C   UNL     1       2.262   5.047   2.449  0.00  0.00    +0.049 C 
ATOM     12  C   UNL     1       2.646   4.888   3.873  0.00  0.00    -0.023 C 
ATOM     13  C   UNL     1       3.668   4.043   3.943  0.00  0.00    -0.030 C 
ATOM     14  C   UNL     1       4.072   3.595   2.536  0.00  0.00    +0.033 C 
ATOM     15  H   UNL     1       2.930   6.067  -1.331  0.00  0.00    +0.147 HD
ENDROOT
BRANCH   9  16
ATOM     16  C   UNL     1       2.083   3.488   0.228  0.00  0.00    +0.018 A 
ATOM     17  C   UNL     1       0.763   3.889   0.130  0.00  0.00    +0.009 A 
ATOM     18  C   UNL     1      -0.249   2.947   0.101  0.00  0.00    +0.004 A 
ATOM     19  C   UNL     1       0.055   1.600   0.164  0.00  0.00    +0.049 A 
ATOM     20  C   UNL     1       1.375   1.191   0.267  0.00  0.00    +0.162 A 
ATOM     21  C   UNL     1       2.393   2.139   0.297  0.00  0.00    +0.163 A 
BRANCH  21  22
ATOM     22  O   UNL     1       3.691   1.743   0.394  0.00  0.00    -0.503 OA
ATOM     23  H   UNL     1       3.936   0.672   0.449  0.00  0.00    +0.292 HD
ENDBRANCH  21  22
BRANCH  20  24
ATOM     24  O   UNL     1       1.675  -0.134   0.334  0.00  0.00    -0.491 OA
ATOM     25  C   UNL     1       0.579  -1.050   0.299  0.00  0.00    +0.277 C 
ENDBRANCH  20  24
ENDBRANCH   9  16
BRANCH   3  26
ATOM     26  N   UNL     1       0.061   9.839   0.222  0.00  0.00    +0.057 N 
ATOM     27  O   UNL     1      -0.495  10.653   0.938  0.00  0.00    -0.126 OA
ATOM     28  O   UNL     1       0.141  10.036  -0.977  0.00  0.00    -0.126 OA
ENDBRANCH   3  26
TORSDOF 4
