REMARK  Name = ZINC45068037
REMARK  4 active torsions:
REMARK  status: ('A' for Active; 'I' for Inactive)
REMARK    1  A    between atoms: C_6  and  N_7
REMARK    2  A    between atoms: C_11  and  S_13
REMARK    3  A    between atoms: S_13  and  C_14
REMARK    4  A    between atoms: C_14  and  C_15
REMARK                            x       y       z     vdW  Elec       q    Type
REMARK                         _______ _______ _______ _____ _____    ______ ____
ROOT
ATOM      1  C   UNL     1       6.633   2.522  -0.048  0.00  0.00    +0.175 C 
ENDROOT
BRANCH   1   2
ATOM      2  C   UNL     1       8.131   2.681  -0.061  0.00  0.00    +0.229 C 
ATOM      3  O   UNL     1       8.845   1.701  -0.073  0.00  0.00    -0.275 OA
ATOM      4  N   UNL     1       8.678   3.913  -0.060  0.00  0.00    -0.264 N 
ATOM      5  C   UNL     1      10.060   4.060  -0.072  0.00  0.00    +0.165 A 
ATOM      6  N   UNL     1      10.981   3.122  -0.092  0.00  0.00    -0.229 NA
ATOM      7  C   UNL     1      12.279   3.411  -0.102  0.00  0.00    +0.054 A 
ATOM      8  C   UNL     1      12.569   4.738  -0.090  0.00  0.00    +0.014 A 
ATOM      9  S   UNL     1      10.962   5.483  -0.073  0.00  0.00    -0.057 S 
ATOM     10  C   UNL     1      13.916   5.377  -0.095  0.00  0.00    +0.044 C 
ATOM     11  C   UNL     1      14.958   4.302   0.254  0.00  0.00    +0.006 C 
ATOM     12  C   UNL     1      14.684   3.056  -0.593  0.00  0.00    +0.006 C 
ATOM     13  C   UNL     1      13.395   2.376  -0.127  0.00  0.00    +0.056 C 
ATOM     14  H   UNL     1       8.107   4.697  -0.050  0.00  0.00    +0.157 HD
ENDBRANCH   1   2
BRANCH   1  15
ATOM     15  S   UNL     1       6.212   0.757  -0.053  0.00  0.00    -0.058 S 
BRANCH  15  23
ATOM     16  C   UNL     1      -0.017   1.382   0.010  0.00  0.00    +0.036 A 
ATOM     17  C   UNL     1       1.164   2.098   0.002  0.00  0.00    +0.051 A 
ATOM     18  C   UNL     1       2.377   1.429  -0.013  0.00  0.00    +0.156 A 
ATOM     19  C   UNL     1       2.400   0.026  -0.021  0.00  0.00    +0.113 A 
ATOM     20  C   UNL     1       1.200  -0.685  -0.013  0.00  0.00    +0.064 A 
ATOM     21  C   UNL     1       0.002  -0.004   0.002  0.00  0.00    +0.128 A 
ATOM     22  N   UNL     1       3.711  -0.341  -0.035  0.00  0.00    -0.203 NA
ATOM     23  C   UNL     1       4.450   0.739  -0.036  0.00  0.00    +0.258 A 
ATOM     24  O   UNL     1       3.668   1.833  -0.023  0.00  0.00    -0.431 OA
BRANCH  21  25
ATOM     25  N   UNL     1      -1.272  -0.757   0.010  0.00  0.00    +0.056 N 
ATOM     26  O   UNL     1      -2.325  -0.163   0.023  0.00  0.00    -0.126 OA
ATOM     27  O   UNL     1      -1.260  -1.966   0.004  0.00  0.00    -0.126 OA
ENDBRANCH  21  25
ENDBRANCH  15  23
ENDBRANCH   1  15
TORSDOF 4
