REMARK  Name = ZINC04260692
REMARK  5 active torsions:
REMARK  status: ('A' for Active; 'I' for Inactive)
REMARK    1  A    between atoms: C_1  and  C_2
REMARK    2  A    between atoms: C_2  and  C_3
REMARK    3  A    between atoms: C_2  and  C_4
REMARK    4  A    between atoms: C_7  and  N_10
REMARK    5  A    between atoms: C_20  and  C_22
REMARK                            x       y       z     vdW  Elec       q    Type
REMARK                         _______ _______ _______ _____ _____    ______ ____
ROOT
ATOM      1  N   UNL     1       0.002  -0.004   0.002  0.00  0.00    -0.193 N 
ATOM      2  C   UNL     1       1.135  -0.512  -0.505  0.00  0.00    +0.250 C 
ATOM      3  O   UNL     1       1.082  -1.522  -1.173  0.00  0.00    -0.273 OA
ATOM      4  C   UNL     1       2.470   0.138  -0.266  0.00  0.00    +0.183 C 
ATOM      5  C   UNL     1       2.294   1.650  -0.032  0.00  0.00    +0.105 C 
ATOM      6  C   UNL     1       2.171   2.185  -1.494  0.00  0.00    +0.043 C 
ATOM      7  C   UNL     1       3.112   1.253  -2.287  0.00  0.00    +0.111 C 
ATOM      8  N   UNL     1       3.275   0.023  -1.498  0.00  0.00    -0.284 N 
ATOM      9  C   UNL     1       4.034  -1.036  -1.844  0.00  0.00    +0.254 C 
ATOM     10  O   UNL     1       4.094  -2.006  -1.112  0.00  0.00    -0.269 OA
ATOM     11  N   UNL     1       1.086   1.946   0.703  0.00  0.00    -0.293 N 
ATOM     12  C   UNL     1      -0.002   1.166   0.661  0.00  0.00    +0.313 C 
ATOM     13  O   UNL     1      -1.016   1.526   1.226  0.00  0.00    -0.252 OA
ATOM     14  H   UNL     1       1.066   2.742   1.258  0.00  0.00    +0.151 HD
ENDROOT
BRANCH   1  18
ATOM     15  C   UNL     1      -3.572  -2.096  -0.476  0.00  0.00    -0.045 A 
ATOM     16  C   UNL     1      -3.197  -1.149  -1.410  0.00  0.00    +0.006 A 
ATOM     17  C   UNL     1      -2.013  -0.454  -1.255  0.00  0.00    +0.024 A 
ATOM     18  C   UNL     1      -1.200  -0.708  -0.159  0.00  0.00    +0.045 A 
ATOM     19  C   UNL     1      -1.576  -1.664   0.775  0.00  0.00    +0.024 A 
ATOM     20  C   UNL     1      -2.764  -2.352   0.616  0.00  0.00    +0.006 A 
BRANCH  15  22
ATOM     21  C   UNL     1      -4.569  -4.351  -0.748  0.00  0.00    +0.012 C 
ATOM     22  C   UNL     1      -4.864  -2.853  -0.649  0.00  0.00    +0.013 C 
ATOM     23  C   UNL     1      -5.773  -2.591   0.554  0.00  0.00    +0.012 C 
ENDBRANCH  15  22
ENDBRANCH   1  18
BRANCH   9  24
ATOM     24  C   UNL     1       4.786  -1.020  -3.102  0.00  0.00    +0.074 A 
ATOM     25  C   UNL     1       5.619  -1.991  -3.635  0.00  0.00    +0.021 A 
ATOM     26  C   UNL     1       6.204  -1.717  -4.846  0.00  0.00    +0.008 A 
ATOM     27  C   UNL     1       5.952  -0.526  -5.450  0.00  0.00    +0.046 A 
ATOM     28  S   UNL     1       4.873   0.259  -4.343  0.00  0.00    -0.092 S 
ENDBRANCH   9  24
TORSDOF 3
