REMARK  Name = ZINC48798287
REMARK  3 active torsions:
REMARK  status: ('A' for Active; 'I' for Inactive)
REMARK    1  A    between atoms: C_6  and  N_7
REMARK    2  A    between atoms: N_7  and  S_8
REMARK    3  A    between atoms: S_8  and  C_11
REMARK                            x       y       z     vdW  Elec       q    Type
REMARK                         _______ _______ _______ _____ _____    ______ ____
ROOT
ATOM      1  C   UNL     1      -0.017   1.386   0.010  0.00  0.00    +0.027 A 
ATOM      2  C   UNL     1       1.166   2.102   0.002  0.00  0.00    +0.016 A 
ATOM      3  C   UNL     1       2.380   1.429  -0.013  0.00  0.00    +0.049 A 
ATOM      4  C   UNL     1       2.404   0.018  -0.021  0.00  0.00    +0.051 A 
ATOM      5  C   UNL     1       1.217  -0.691  -0.013  0.00  0.00    +0.040 A 
ATOM      6  C   UNL     1       0.002  -0.004   0.002  0.00  0.00    +0.075 A 
ATOM      7  C   UNL     1       3.833  -0.362  -0.037  0.00  0.00    +0.251 C 
ATOM      8  O   UNL     1       4.265  -1.497  -0.048  0.00  0.00    -0.270 OA
ATOM      9  N   UNL     1       4.573   0.761  -0.038  0.00  0.00    -0.248 N 
ATOM     10  C   UNL     1       3.792   1.856  -0.025  0.00  0.00    +0.251 C 
ATOM     11  O   UNL     1       4.184   3.006  -0.023  0.00  0.00    -0.270 OA
ATOM     12  H   UNL     1       5.543   0.779  -0.048  0.00  0.00    +0.158 HD
ENDROOT
BRANCH   6  13
ATOM     13  N   UNL     1      -1.194  -0.713   0.010  0.00  0.00    -0.097 NA
BRANCH  13  14
ATOM     14  S   UNL     1      -2.638   0.099   0.029  0.00  0.00    +0.098 S 
ATOM     15  O   UNL     1      -2.709   0.772   1.279  0.00  0.00    -0.148 OA
ATOM     16  O   UNL     1      -2.734   0.785  -1.212  0.00  0.00    -0.148 OA
BRANCH  14  17
ATOM     17  C   UNL     1      -3.917  -1.112   0.035  0.00  0.00    +0.149 A 
ATOM     18  C   UNL     1      -4.530  -1.701   1.091  0.00  0.00    +0.038 A 
ATOM     19  C   UNL     1      -5.520  -2.637   0.856  0.00  0.00    +0.025 A 
ATOM     20  C   UNL     1      -5.848  -2.938  -0.425  0.00  0.00    +0.057 A 
ATOM     21  S   UNL     1      -4.747  -1.877  -1.348  0.00  0.00    -0.061 S 
ATOM     22 BR   UNL     1      -7.141  -4.159  -1.068  0.00  0.00    -0.043 Br
ENDBRANCH  14  17
ENDBRANCH  13  14
ENDBRANCH   6  13
TORSDOF 3
