REMARK  Name = ZINC04738548
REMARK  6 active torsions:
REMARK  status: ('A' for Active; 'I' for Inactive)
REMARK    1  A    between atoms: C_1  and  C_2
REMARK    2  A    between atoms: C_2  and  C_3
REMARK    3  A    between atoms: C_2  and  C_4
REMARK    4  A    between atoms: C_7  and  N_10
REMARK    5  A    between atoms: C_11  and  C_12
REMARK    6  A    between atoms: N_19  and  C_22
REMARK                            x       y       z     vdW  Elec       q    Type
REMARK                         _______ _______ _______ _____ _____    ______ ____
ROOT
ATOM      1  C   UNL     1       0.032   1.415   0.489  0.00  0.00    +0.203 C 
ATOM      2  C   UNL     1      -0.009   0.017  -0.097  0.00  0.00    +0.238 C 
ATOM      3  O   UNL     1      -1.043  -0.614  -0.148  0.00  0.00    -0.274 OA
ATOM      4  N   UNL     1       1.149  -0.499  -0.560  0.00  0.00    -0.238 N 
ATOM      5  C   UNL     1       2.299   0.183  -0.511  0.00  0.00    +0.319 C 
ATOM      6  O   UNL     1       3.294  -0.357  -0.951  0.00  0.00    -0.251 OA
ATOM      7  N   UNL     1       2.433   1.419  -0.015  0.00  0.00    -0.193 N 
ATOM      8  C   UNL     1       1.385   2.100   0.496  0.00  0.00    +0.245 C 
ATOM      9  O   UNL     1       1.522   3.219   0.943  0.00  0.00    -0.274 OA
ATOM     10  H   UNL     1       1.148  -1.392  -0.939  0.00  0.00    +0.159 HD
ENDROOT
BRANCH   7  11
ATOM     11  C   UNL     1       3.698   2.023  -0.025  0.00  0.00    +0.046 A 
ATOM     12  C   UNL     1       4.098   2.781  -1.117  0.00  0.00    +0.027 A 
ATOM     13  C   UNL     1       5.342   3.380  -1.123  0.00  0.00    +0.040 A 
ATOM     14  C   UNL     1       6.196   3.214  -0.045  0.00  0.00    +0.124 A 
ATOM     15  C   UNL     1       5.802   2.454   1.043  0.00  0.00    +0.040 A 
ATOM     16  C   UNL     1       4.556   1.859   1.055  0.00  0.00    +0.027 A 
ATOM     17  F   UNL     1       7.416   3.795  -0.056  0.00  0.00    -0.205 F 
ENDBRANCH   7  11
BRANCH   1  19
ATOM     18  N   UNL     1      -1.916   2.850   0.311  0.00  0.00    -0.259 NA
ATOM     19  C   UNL     1      -0.926   2.279  -0.290  0.00  0.00    +0.106 C 
BRANCH  18  23
ATOM     20  C   UNL     1      -4.550   5.223  -1.831  0.00  0.00    -0.045 A 
ATOM     21  C   UNL     1      -5.037   4.302  -0.920  0.00  0.00    +0.006 A 
ATOM     22  C   UNL     1      -4.165   3.509  -0.204  0.00  0.00    +0.028 A 
ATOM     23  C   UNL     1      -2.789   3.636  -0.399  0.00  0.00    +0.064 A 
ATOM     24  C   UNL     1      -2.304   4.570  -1.315  0.00  0.00    +0.028 A 
ATOM     25  C   UNL     1      -3.187   5.355  -2.029  0.00  0.00    +0.006 A 
BRANCH  20  27
ATOM     26  C   UNL     1      -5.228   7.561  -2.305  0.00  0.00    +0.012 C 
ATOM     27  C   UNL     1      -5.508   6.088  -2.609  0.00  0.00    +0.013 C 
ATOM     28  C   UNL     1      -5.325   5.832  -4.106  0.00  0.00    +0.012 C 
ENDBRANCH  20  27
ENDBRANCH  18  23
ENDBRANCH   1  19
TORSDOF 4
