REMARK  Name = ZINC20731366
REMARK  3 active torsions:
REMARK  status: ('A' for Active; 'I' for Inactive)
REMARK    1  A    between atoms: C_2  and  C_3
REMARK    2  A    between atoms: C_3  and  N_4
REMARK    3  A    between atoms: N_22  and  C_23
REMARK                            x       y       z     vdW  Elec       q    Type
REMARK                         _______ _______ _______ _____ _____    ______ ____
ROOT
ATOM      1  N   UNL     1      -1.423  -1.652  -1.175  0.00  0.00    -0.266 N 
ATOM      2  C   UNL     1      -2.079  -1.334  -2.352  0.00  0.00    +0.041 A 
ATOM      3  C   UNL     1      -2.752  -0.163  -2.702  0.00  0.00    +0.024 A 
ATOM      4  C   UNL     1      -3.326  -0.114  -3.963  0.00  0.00    +0.002 A 
ATOM      5  C   UNL     1      -3.241  -1.171  -4.845  0.00  0.00    +0.000 A 
ATOM      6  C   UNL     1      -2.573  -2.344  -4.509  0.00  0.00    +0.007 A 
ATOM      7  C   UNL     1      -2.000  -2.400  -3.257  0.00  0.00    -0.006 A 
ATOM      8  C   UNL     1      -1.220  -3.475  -2.569  0.00  0.00    +0.112 C 
ATOM      9  C   UNL     1      -0.883  -2.889  -1.215  0.00  0.00    +0.236 C 
ATOM     10  O   UNL     1      -0.250  -3.429  -0.333  0.00  0.00    -0.274 OA
ATOM     11  C   UNL     1       0.063  -3.801  -3.330  0.00  0.00    +0.122 C 
ATOM     12  C   UNL     1      -0.209  -4.720  -4.488  0.00  0.00    +0.220 C 
ATOM     13  O   UNL     1       0.408  -4.564  -5.520  0.00  0.00    -0.275 OA
ATOM     14  N   UNL     1      -1.119  -5.715  -4.416  0.00  0.00    -0.270 N 
ATOM     15  C   UNL     1      -1.961  -5.763  -3.306  0.00  0.00    +0.133 A 
ATOM     16  C   UNL     1      -2.036  -4.727  -2.411  0.00  0.00    +0.032 A 
ATOM     17  C   UNL     1      -2.951  -5.077  -1.428  0.00  0.00    +0.141 A 
ATOM     18  N   UNL     1      -3.425  -6.268  -1.711  0.00  0.00    -0.173 NA
ATOM     19  N   UNL     1      -2.822  -6.717  -2.898  0.00  0.00    -0.217 N 
ATOM     20  H   UNL     1      -1.185  -6.379  -5.119  0.00  0.00    +0.156 HD
ENDROOT
BRANCH  19  21
ATOM     21  C   UNL     1      -3.071  -7.938  -3.541  0.00  0.00    +0.086 A 
ATOM     22  C   UNL     1      -2.011  -8.733  -3.957  0.00  0.00    +0.029 A 
ATOM     23  C   UNL     1      -2.259  -9.935  -4.590  0.00  0.00    +0.002 A 
ATOM     24  C   UNL     1      -3.561 -10.348  -4.810  0.00  0.00    +0.002 A 
ATOM     25  C   UNL     1      -4.618  -9.559  -4.397  0.00  0.00    +0.022 A 
ATOM     26  C   UNL     1      -4.377  -8.357  -3.758  0.00  0.00    +0.066 A 
ATOM     27 CL   UNL     1      -5.705  -7.370  -3.234  0.00  0.00    -0.081 Cl
ENDBRANCH  19  21
BRANCH   1  28
ATOM     28  C   UNL     1      -1.321  -0.751  -0.025  0.00  0.00    +0.140 C 
BRANCH  28  30
ATOM     29  C   UNL     1      -0.179   1.405  -0.116  0.00  0.00    +0.005 C 
ATOM     30  C   UNL     1      -0.085   0.099  -0.161  0.00  0.00    -0.015 C 
ENDBRANCH  28  30
ENDBRANCH   1  28
TORSDOF 3
