REMARK  Name = ZINC63180117
REMARK  7 active torsions:
REMARK  status: ('A' for Active; 'I' for Inactive)
REMARK    1  A    between atoms: C_1  and  C_2
REMARK    2  A    between atoms: N_10  and  N_11
REMARK    3  A    between atoms: C_12  and  C_14
REMARK    4  A    between atoms: C_14  and  C_15
REMARK    5  A    between atoms: C_15  and  C_16
REMARK    6  A    between atoms: C_18  and  C_27
REMARK    7  A    between atoms: C_19  and  C_21
REMARK                            x       y       z     vdW  Elec       q    Type
REMARK                         _______ _______ _______ _____ _____    ______ ____
ROOT
ATOM      1  C   UNL     1      -4.982  -5.216   4.596  0.00  0.00    +0.105 C 
ENDROOT
BRANCH   1   2
ATOM      2  C   UNL     1      -6.423  -5.633   4.747  0.00  0.00    +0.197 A 
ATOM      3  N   UNL     1      -6.955  -6.697   4.219  0.00  0.00    -0.213 NA
ATOM      4  C   UNL     1      -8.259  -6.751   4.564  0.00  0.00    +0.117 A 
ATOM      5  C   UNL     1      -8.515  -5.645   5.349  0.00  0.00    +0.163 A 
ATOM      6  O   UNL     1      -7.349  -4.969   5.451  0.00  0.00    -0.439 OA
BRANCH   5   7
ATOM      7  C   UNL     1      -9.806  -5.277   5.962  0.00  0.00    +0.019 A 
ATOM      8  C   UNL     1     -10.550  -6.233   6.657  0.00  0.00    +0.011 A 
ATOM      9  C   UNL     1     -11.756  -5.882   7.227  0.00  0.00    +0.001 A 
ATOM     10  C   UNL     1     -12.228  -4.586   7.113  0.00  0.00    +0.000 A 
ATOM     11  C   UNL     1     -11.496  -3.634   6.426  0.00  0.00    +0.001 A 
ATOM     12  C   UNL     1     -10.286  -3.970   5.855  0.00  0.00    +0.011 A 
ENDBRANCH   5   7
BRANCH   4  13
ATOM     13  C   UNL     1      -9.231  -7.798   4.173  0.00  0.00    +0.004 A 
ATOM     14  C   UNL     1     -10.521  -7.444   3.779  0.00  0.00    +0.010 A 
ATOM     15  C   UNL     1     -11.422  -8.424   3.416  0.00  0.00    +0.001 A 
ATOM     16  C   UNL     1     -11.048  -9.755   3.443  0.00  0.00    +0.000 A 
ATOM     17  C   UNL     1      -9.770 -10.113   3.833  0.00  0.00    +0.001 A 
ATOM     18  C   UNL     1      -8.858  -9.142   4.193  0.00  0.00    +0.010 A 
ENDBRANCH   4  13
ENDBRANCH   1   2
BRANCH   1  19
ATOM     19  C   UNL     1      -4.839  -4.312   3.371  0.00  0.00    +0.106 C 
BRANCH  19  21
ATOM     20  N   UNL     1      -3.033  -3.090   2.202  0.00  0.00    -0.234 N 
ATOM     21  C   UNL     1      -3.399  -3.895   3.220  0.00  0.00    +0.230 C 
ATOM     22  O   UNL     1      -2.569  -4.283   4.014  0.00  0.00    -0.274 OA
ATOM     23  H   UNL     1      -3.697  -2.780   1.567  0.00  0.00    +0.173 HD
BRANCH  20  32
ATOM     24  C   UNL     1      -0.427   1.247  -0.930  0.00  0.00    +0.044 C 
ATOM     25  C   UNL     1      -0.494  -0.281  -0.971  0.00  0.00    +0.210 C 
ATOM     26  C   UNL     1      -1.949  -0.691  -0.836  0.00  0.00    +0.265 C 
ATOM     27  O   UNL     1      -2.793  -0.311  -1.623  0.00  0.00    -0.271 OA
ATOM     28  N   UNL     1      -2.258  -1.493   0.195  0.00  0.00    -0.145 NA
ATOM     29  C   UNL     1      -1.324  -1.889   1.033  0.00  0.00    +0.218 C 
ATOM     30  N   UNL     1      -0.012  -1.539   0.937  0.00  0.00    -0.253 N 
ATOM     31  N   UNL     1       0.433  -0.806   0.045  0.00  0.00    -0.197 NA
ATOM     32  N   UNL     1      -1.694  -2.703   2.062  0.00  0.00    -0.235 N 
ATOM     33  H   UNL     1      -1.030  -3.013   2.697  0.00  0.00    +0.173 HD
ATOM     34  H   UNL     1       0.605  -1.881   1.602  0.00  0.00    +0.191 HD
ENDBRANCH  20  32
ENDBRANCH  19  21
ENDBRANCH   1  19
TORSDOF 6
