REMARK  Name = ZINC36024505
REMARK  9 active torsions:
REMARK  status: ('A' for Active; 'I' for Inactive)
REMARK    1  A    between atoms: C_1  and  C_2
REMARK    2  A    between atoms: C_2  and  C_3
REMARK    3  A    between atoms: C_3  and  C_5
REMARK    4  A    between atoms: C_3  and  N_6
REMARK    5  A    between atoms: C_9  and  C_29
REMARK    6  A    between atoms: N_15  and  S_18
REMARK    7  A    between atoms: S_18  and  C_21
REMARK    8  A    between atoms: C_29  and  C_30
REMARK    9  A    between atoms: C_29  and  C_31
REMARK                            x       y       z     vdW  Elec       q    Type
REMARK                         _______ _______ _______ _____ _____    ______ ____
ROOT
ATOM      1  N   UNL     1       2.216  -0.001   1.042  0.00  0.00    -0.311 N 
ATOM      2  C   UNL     1       3.005  -0.159  -0.041  0.00  0.00    +0.201 C 
ATOM      3  O   UNL     1       2.699  -0.737  -1.063  0.00  0.00    -0.277 OA
ATOM      4  C   UNL     1       4.336   0.506   0.234  0.00  0.00    +0.022 C 
ATOM      5  N   UNL     1       4.370   0.692   1.705  0.00  0.00    +0.401 N 
ATOM      6  C   UNL     1       2.936   0.761   2.065  0.00  0.00    +0.006 C 
ATOM      7  C   UNL     1       2.720   0.135   3.442  0.00  0.00    +0.023 C 
ATOM      8  C   UNL     1       1.229   0.173   3.789  0.00  0.00    +0.109 C 
ATOM      9  N   UNL     1       0.749   1.556   3.664  0.00  0.00    -0.177 NA
ATOM     10  C   UNL     1       0.976   2.272   2.401  0.00  0.00    +0.109 C 
ATOM     11  C   UNL     1       2.470   2.216   2.065  0.00  0.00    +0.023 C 
ATOM     12  H   UNL     1       4.816  -0.095   2.153  0.00  0.00    -0.082 HD
ATOM     13  H   UNL     1       4.837   1.553   1.945  0.00  0.00    -0.082 HD
ENDROOT
BRANCH   9  14
ATOM     14  S   UNL     1      -0.032   2.296   4.923  0.00  0.00    +0.061 S 
ATOM     15  O   UNL     1      -0.831   3.326   4.357  0.00  0.00    -0.153 OA
ATOM     16  O   UNL     1      -0.582   1.259   5.725  0.00  0.00    -0.153 OA
BRANCH  14  17
ATOM     17  C   UNL     1       1.197   3.092   5.903  0.00  0.00    +0.107 A 
ATOM     18  C   UNL     1       1.803   2.409   6.941  0.00  0.00    +0.030 A 
ATOM     19  C   UNL     1       2.766   3.033   7.711  0.00  0.00    +0.023 A 
ATOM     20  C   UNL     1       3.126   4.341   7.442  0.00  0.00    +0.059 A 
ATOM     21  C   UNL     1       2.520   5.025   6.402  0.00  0.00    +0.061 A 
ATOM     22  C   UNL     1       1.559   4.398   5.630  0.00  0.00    +0.050 A 
ATOM     23 CL   UNL     1       2.969   6.668   6.064  0.00  0.00    -0.082 Cl
ATOM     24 CL   UNL     1       4.336   5.126   8.409  0.00  0.00    -0.082 Cl
ENDBRANCH  14  17
ENDBRANCH   9  14
BRANCH   4  25
ATOM     25  C   UNL     1       5.486  -0.395  -0.219  0.00  0.00    -0.023 C 
ATOM     26  C   UNL     1       5.383  -0.634  -1.727  0.00  0.00    +0.006 C 
ATOM     27  C   UNL     1       6.820   0.281   0.101  0.00  0.00    +0.006 C 
ENDBRANCH   4  25
BRANCH   1  28
ATOM     28  C   UNL     1       0.848  -0.509   1.173  0.00  0.00    +0.071 C 
ATOM     29  C   UNL     1       0.885  -1.947   1.694  0.00  0.00    +0.028 C 
BRANCH  28  31
ATOM     30  C   UNL     1       0.069   0.966  -0.687  0.00  0.00    +0.005 C 
ATOM     31  C   UNL     1       0.160  -0.479  -0.194  0.00  0.00    +0.019 C 
ENDBRANCH  28  31
ENDBRANCH   1  28
TORSDOF 5
