REMARK  Name = ZINC22083088
REMARK  7 active torsions:
REMARK  status: ('A' for Active; 'I' for Inactive)
REMARK    1  A    between atoms: C_1  and  C_2
REMARK    2  A    between atoms: N_10  and  N_14
REMARK    3  A    between atoms: C_15  and  C_17
REMARK    4  A    between atoms: C_17  and  S_18
REMARK    5  A    between atoms: S_18  and  C_19
REMARK    6  A    between atoms: C_22  and  C_25
REMARK    7  A    between atoms: N_23  and  C_24
REMARK                            x       y       z     vdW  Elec       q    Type
REMARK                         _______ _______ _______ _____ _____    ______ ____
ROOT
ATOM      1  N   UNL     1      -0.800   0.383   2.384  0.00  0.00    -0.223 N 
ATOM      2  C   UNL     1      -1.176   0.865   1.183  0.00  0.00    +0.240 C 
ATOM      3  O   UNL     1      -2.183   1.534   1.086  0.00  0.00    -0.273 OA
ATOM      4  H   UNL     1       0.113  -0.225   2.472  0.00  0.00    +0.174 HD
ENDROOT
BRANCH   1  14
ATOM      5  C   UNL     1      -5.362   1.383   8.801  0.00  0.00    +0.007 C 
ATOM      6  C   UNL     1      -4.749   0.621   7.624  0.00  0.00    -0.014 C 
ATOM      7  C   UNL     1      -5.119   1.322   6.315  0.00  0.00    +0.006 C 
ATOM      8  C   UNL     1      -4.515   0.553   5.137  0.00  0.00    +0.035 C 
ATOM      9  C   UNL     1      -3.000   0.492   5.290  0.00  0.00    +0.114 C 
ATOM     10  C   UNL     1      -2.616  -0.182   6.602  0.00  0.00    +0.035 C 
ATOM     11  C   UNL     1      -3.227   0.590   7.774  0.00  0.00    +0.006 C 
ATOM     12  C   UNL     1      -2.382  -0.241   4.121  0.00  0.00    +0.263 C 
ATOM     13  O   UNL     1      -2.574  -1.391   3.791  0.00  0.00    -0.271 OA
ATOM     14  N   UNL     1      -1.572   0.656   3.521  0.00  0.00    -0.137 N 
ATOM     15  C   UNL     1      -1.593   1.837   4.150  0.00  0.00    +0.326 C 
ATOM     16  O   UNL     1      -0.941   2.801   3.800  0.00  0.00    -0.251 OA
ATOM     17  N   UNL     1      -2.419   1.839   5.214  0.00  0.00    -0.284 N 
ATOM     18  H   UNL     1      -2.700   2.601   5.955  0.00  0.00    +0.151 HD
ENDBRANCH   1  14
BRANCH   2  19
ATOM     19  C   UNL     1      -0.346   0.571  -0.040  0.00  0.00    +0.174 C 
BRANCH  19  20
ATOM     20  S   UNL     1      -1.106   1.350  -1.487  0.00  0.00    -0.077 S 
BRANCH  20  21
ATOM     21  C   UNL     1       0.037   0.859  -2.735  0.00  0.00    +0.192 A 
ATOM     22  N   UNL     1       1.118   0.132  -2.559  0.00  0.00    -0.122 NA
ATOM     23  N   UNL     1       1.720  -0.041  -3.681  0.00  0.00    -0.128 NA
ATOM     24  C   UNL     1       1.066   0.572  -4.640  0.00  0.00    +0.167 A 
ATOM     25  N   UNL     1      -0.032   1.167  -4.063  0.00  0.00    -0.305 N 
ATOM     26  C   UNL     1      -1.061   1.966  -4.734  0.00  0.00    +0.153 C 
BRANCH  24  27
ATOM     27  C   UNL     1       1.439   0.616  -6.070  0.00  0.00    +0.054 A 
ATOM     28  C   UNL     1       1.423   1.828  -6.762  0.00  0.00    +0.014 A 
ATOM     29  C   UNL     1       1.772   1.861  -8.096  0.00  0.00    +0.001 A 
ATOM     30  C   UNL     1       2.139   0.698  -8.749  0.00  0.00    +0.003 A 
ATOM     31  C   UNL     1       2.158  -0.507  -8.071  0.00  0.00    +0.039 A 
ATOM     32  C   UNL     1       1.816  -0.555  -6.733  0.00  0.00    +0.134 A 
ATOM     33  F   UNL     1       1.840  -1.732  -6.069  0.00  0.00    -0.205 F 
ENDBRANCH  24  27
ENDBRANCH  20  21
ENDBRANCH  19  20
ENDBRANCH   2  19
TORSDOF 5
