REMARK  Name = ZINC67306510
REMARK  11 active torsions:
REMARK  status: ('A' for Active; 'I' for Inactive)
REMARK    1  A    between atoms: C_1  and  C_2
REMARK    2  A    between atoms: C_2  and  C_3
REMARK    3  A    between atoms: C_3  and  C_25
REMARK    4  A    between atoms: N_6  and  C_10
REMARK    5  A    between atoms: C_10  and  C_11
REMARK    6  A    between atoms: N_13  and  C_14
REMARK    7  A    between atoms: C_14  and  C_16
REMARK    8  A    between atoms: C_14  and  C_17
REMARK    9  A    between atoms: C_18  and  C_24
REMARK   10  A    between atoms: N_20  and  C_23
REMARK   11  A    between atoms: C_21  and  C_22
REMARK                            x       y       z     vdW  Elec       q    Type
REMARK                         _______ _______ _______ _____ _____    ______ ____
ROOT
ATOM      1  C   UNL     1      -0.363  -0.591   1.424  0.00  0.00    +0.138 C 
ATOM      2  C   UNL     1      -0.763   0.023   2.750  0.00  0.00    +0.251 C 
ATOM      3  O   UNL     1      -1.847  -0.041   3.290  0.00  0.00    -0.272 OA
ATOM      4  N   UNL     1       0.336   0.656   3.206  0.00  0.00    -0.215 N 
ATOM      5  C   UNL     1       1.365   0.528   2.360  0.00  0.00    +0.310 C 
ATOM      6  O   UNL     1       2.463   1.011   2.554  0.00  0.00    -0.252 OA
ATOM      7  N   UNL     1       1.048  -0.197   1.272  0.00  0.00    -0.281 N 
ATOM      8  H   UNL     1       1.635  -0.416   0.531  0.00  0.00    +0.152 HD
ENDROOT
BRANCH   1   9
ATOM      9  C   UNL     1      -0.491  -2.092   1.471  0.00  0.00    -0.015 A 
ATOM     10  C   UNL     1      -1.659  -2.699   1.048  0.00  0.00    +0.006 A 
ATOM     11  C   UNL     1      -1.777  -4.076   1.091  0.00  0.00    +0.000 A 
ATOM     12  C   UNL     1      -0.727  -4.845   1.556  0.00  0.00    +0.000 A 
ATOM     13  C   UNL     1       0.441  -4.238   1.978  0.00  0.00    +0.000 A 
ATOM     14  C   UNL     1       0.560  -2.862   1.931  0.00  0.00    +0.006 A 
ENDBRANCH   1   9
BRANCH   1  16
ATOM     15  C   UNL     1      -1.004   1.499   0.216  0.00  0.00    +0.007 C 
ATOM     16  C   UNL     1      -1.208  -0.015   0.286  0.00  0.00    +0.037 C 
ENDBRANCH   1  16
BRANCH   4  17
ATOM     17  C   UNL     1       0.397   1.393   4.470  0.00  0.00    +0.213 C 
BRANCH  17  18
ATOM     18  C   UNL     1       0.821   0.461   5.575  0.00  0.00    +0.231 C 
ATOM     19  O   UNL     1       1.050  -0.704   5.331  0.00  0.00    -0.274 OA
ATOM     20  N   UNL     1       0.946   0.923   6.835  0.00  0.00    -0.307 N 
ATOM     21  H   UNL     1       0.763   1.855   7.031  0.00  0.00    +0.149 HD
BRANCH  20  22
ATOM     22  C   UNL     1       1.359   0.017   7.910  0.00  0.00    +0.104 C 
ATOM     23  C   UNL     1       0.179  -0.872   8.309  0.00  0.00    +0.033 C 
BRANCH  22  24
ATOM     24  C   UNL     1       1.806   0.823   9.103  0.00  0.00    +0.016 A 
ATOM     25  C   UNL     1       1.111   1.889   9.682  0.00  0.00    +0.065 A 
ATOM     26  N   UNL     1       1.813   2.333  10.694  0.00  0.00    -0.176 NA
ATOM     27  N   UNL     1       2.978   1.561  10.789  0.00  0.00    -0.271 N 
ATOM     28  C   UNL     1       2.947   0.638   9.806  0.00  0.00    +0.041 A 
ATOM     29  C   UNL     1       3.998  -0.408   9.535  0.00  0.00    +0.065 C 
ATOM     30  C   UNL     1       4.040   1.724  11.786  0.00  0.00    +0.172 C 
ATOM     31  C   UNL     1      -0.216   2.434   9.222  0.00  0.00    +0.068 C 
ENDBRANCH  22  24
ENDBRANCH  20  22
ENDBRANCH  17  18
ENDBRANCH   4  17
TORSDOF 6
