REMARK  Name = ZINC67384453
REMARK  7 active torsions:
REMARK  status: ('A' for Active; 'I' for Inactive)
REMARK    1  A    between atoms: C_1  and  C_2
REMARK    2  A    between atoms: C_2  and  C_4
REMARK    3  A    between atoms: C_2  and  N_14
REMARK    4  A    between atoms: N_17  and  C_18
REMARK    5  A    between atoms: C_18  and  C_19
REMARK    6  A    between atoms: C_19  and  C_20
REMARK    7  A    between atoms: C_20  and  C_21
REMARK                            x       y       z     vdW  Elec       q    Type
REMARK                         _______ _______ _______ _____ _____    ______ ____
ROOT
ATOM      1  N   UNL     1       0.711  -0.489   1.189  0.00  0.00    -0.293 N 
ATOM      2  C   UNL     1       2.054  -0.600   1.174  0.00  0.00    +0.300 C 
ATOM      3  O   UNL     1       2.677  -0.297   0.175  0.00  0.00    -0.253 OA
ATOM      4  N   UNL     1       2.706  -1.046   2.266  0.00  0.00    -0.299 N 
ATOM      5  H   UNL     1       0.213  -0.731   1.986  0.00  0.00    +0.151 HD
ATOM      6  H   UNL     1       2.208  -1.288   3.062  0.00  0.00    +0.150 HD
ENDROOT
BRANCH   1   8
ATOM      7  C   UNL     1      -0.019   1.526   0.010  0.00  0.00    +0.033 C 
ATOM      8  C   UNL     1       0.002  -0.004   0.002  0.00  0.00    +0.102 C 
BRANCH   8   9
ATOM      9  C   UNL     1      -1.412  -0.526   0.013  0.00  0.00    -0.024 A 
ATOM     10  C   UNL     1      -2.122  -0.570   1.198  0.00  0.00    +0.009 A 
ATOM     11  C   UNL     1      -3.418  -1.049   1.212  0.00  0.00    +0.050 A 
ATOM     12  C   UNL     1      -4.010  -1.486   0.036  0.00  0.00    +0.162 A 
ATOM     13  C   UNL     1      -3.297  -1.439  -1.155  0.00  0.00    +0.162 A 
ATOM     14  C   UNL     1      -1.998  -0.953  -1.163  0.00  0.00    +0.055 A 
ATOM     15  O   UNL     1      -3.862  -1.855  -2.322  0.00  0.00    -0.485 OA
ATOM     16  C   UNL     1      -5.031  -2.675  -2.214  0.00  0.00    +0.270 C 
ATOM     17  C   UNL     1      -5.974  -2.035  -1.187  0.00  0.00    +0.270 C 
ATOM     18  O   UNL     1      -5.286  -1.959   0.067  0.00  0.00    -0.485 OA
ENDBRANCH   8   9
ENDBRANCH   1   8
BRANCH   4  19
ATOM     19  C   UNL     1       4.166  -1.166   2.249  0.00  0.00    +0.106 C 
BRANCH  19  20
ATOM     20  C   UNL     1       4.649  -1.692   3.602  0.00  0.00    +0.026 C 
BRANCH  20  21
ATOM     21  C   UNL     1       6.174  -1.817   3.585  0.00  0.00    +0.078 C 
BRANCH  21  22
ATOM     22  C   UNL     1       6.651  -2.334   4.918  0.00  0.00    +0.134 A 
ATOM     23  N   UNL     1       6.976  -1.614   5.958  0.00  0.00    -0.134 NA
ATOM     24  N   UNL     1       7.330  -2.386   6.927  0.00  0.00    -0.134 NA
ATOM     25  C   UNL     1       7.243  -3.629   6.547  0.00  0.00    +0.133 A 
ATOM     26  N   UNL     1       6.817  -3.630   5.263  0.00  0.00    -0.315 N 
ATOM     27  C   UNL     1       6.599  -4.806   4.418  0.00  0.00    +0.125 C 
ATOM     28  C   UNL     1       6.233  -6.003   5.299  0.00  0.00    +0.022 C 
ATOM     29  C   UNL     1       7.504  -6.736   5.728  0.00  0.00    +0.002 C 
ATOM     30  C   UNL     1       8.402  -5.814   6.548  0.00  0.00    +0.008 C 
ATOM     31  C   UNL     1       7.543  -4.855   7.370  0.00  0.00    +0.076 C 
ENDBRANCH  21  22
ENDBRANCH  20  21
ENDBRANCH  19  20
ENDBRANCH   4  19
TORSDOF 6
