REMARK  Name = ZINC24349636
REMARK  10 active torsions:
REMARK  status: ('A' for Active; 'I' for Inactive)
REMARK    1  A    between atoms: C_1  and  C_2
REMARK    2  A    between atoms: C_2  and  C_3
REMARK    3  A    between atoms: C_3  and  C_4
REMARK    4  A    between atoms: C_4  and  N_5
REMARK    5  A    between atoms: C_6  and  C_27
REMARK    6  A    between atoms: C_8  and  C_14
REMARK    7  A    between atoms: N_16  and  N_17
REMARK    8  A    between atoms: C_18  and  C_20
REMARK    9  A    between atoms: C_32  and  O_33
REMARK   10  A    between atoms: O_33  and  C_34
REMARK                            x       y       z     vdW  Elec       q    Type
REMARK                         _______ _______ _______ _____ _____    ______ ____
ROOT
ATOM      1  N   UNL     1       2.869   2.395   0.120  0.00  0.00    -0.294 N 
ATOM      2  C   UNL     1       1.996   3.409   0.698  0.00  0.00    +0.122 C 
ATOM      3  C   UNL     1       2.822   4.500   1.381  0.00  0.00    +0.102 C 
ATOM      4  C   UNL     1       3.894   4.991   0.399  0.00  0.00    +0.024 C 
ATOM      5  C   UNL     1       4.895   3.857   0.169  0.00  0.00    +0.097 C 
ATOM      6  C   UNL     1       4.162   2.584  -0.143  0.00  0.00    +0.216 C 
ATOM      7  O   UNL     1       4.780   1.679  -0.663  0.00  0.00    -0.276 OA
ENDROOT
BRANCH   2   8
ATOM      8  C   UNL     1       1.087   2.765   1.713  0.00  0.00    +0.015 A 
ATOM      9  C   UNL     1      -0.265   3.049   1.709  0.00  0.00    +0.009 A 
ATOM     10  C   UNL     1      -1.099   2.458   2.640  0.00  0.00    +0.001 A 
ATOM     11  C   UNL     1      -0.582   1.587   3.581  0.00  0.00    +0.004 A 
ATOM     12  C   UNL     1       0.768   1.296   3.586  0.00  0.00    +0.046 A 
ATOM     13  C   UNL     1       1.608   1.887   2.652  0.00  0.00    +0.125 A 
BRANCH  13  14
ATOM     14  O   UNL     1       2.938   1.607   2.659  0.00  0.00    -0.495 OA
ATOM     15  C   UNL     1       3.403   0.694   3.655  0.00  0.00    +0.277 C 
ENDBRANCH  13  14
ENDBRANCH   2   8
BRANCH   3  16
ATOM     16  C   UNL     1       1.925   5.648   1.765  0.00  0.00    +0.234 C 
ATOM     17  O   UNL     1       1.022   5.985   1.028  0.00  0.00    -0.274 OA
ATOM     18  N   UNL     1       2.126   6.301   2.927  0.00  0.00    -0.234 N 
ATOM     19  H   UNL     1       2.944   5.995   3.595  0.00  0.00    +0.173 HD
BRANCH  18  20
ATOM     20  N   UNL     1       1.291   7.368   3.285  0.00  0.00    -0.230 N 
ATOM     21  C   UNL     1       1.492   8.020   4.447  0.00  0.00    +0.260 C 
ATOM     22  O   UNL     1       2.396   7.682   5.185  0.00  0.00    -0.269 OA
ATOM     23  H   UNL     1       0.472   7.673   2.617  0.00  0.00    +0.173 HD
BRANCH  21  24
ATOM     24  C   UNL     1       0.611   9.146   4.824  0.00  0.00    +0.038 A 
ATOM     25  C   UNL     1      -0.425   9.540   3.975  0.00  0.00    +0.014 A 
ATOM     26  C   UNL     1      -1.246  10.588   4.335  0.00  0.00    +0.021 A 
ATOM     27  C   UNL     1      -1.038  11.256   5.530  0.00  0.00    +0.041 A 
ATOM     28  C   UNL     1      -0.008  10.873   6.373  0.00  0.00    +0.021 A 
ATOM     29  C   UNL     1       0.817   9.823   6.027  0.00  0.00    +0.014 A 
ATOM     30 CL   UNL     1      -2.071  12.578   5.973  0.00  0.00    -0.084 Cl
ENDBRANCH  21  24
ENDBRANCH  18  20
ENDBRANCH   3  16
BRANCH   1  31
ATOM     31  C   UNL     1       2.289   1.086  -0.191  0.00  0.00    +0.108 C 
BRANCH  31  32
ATOM     32  C   UNL     1       1.837   1.063  -1.652  0.00  0.00    +0.019 C 
BRANCH  32  34
ATOM     33  C   UNL     1       0.780  -0.328  -3.438  0.00  0.00    +0.004 C 
ATOM     34  C   UNL     1       1.231  -0.304  -1.977  0.00  0.00    -0.002 C 
ENDBRANCH  32  34
ENDBRANCH  31  32
ENDBRANCH   1  31
TORSDOF 8
