REMARK  Name = ZINC64870703
REMARK  9 active torsions:
REMARK  status: ('A' for Active; 'I' for Inactive)
REMARK    1  A    between atoms: C_1  and  C_2
REMARK    2  A    between atoms: C_2  and  C_3
REMARK    3  A    between atoms: C_2  and  C_4
REMARK    4  A    between atoms: C_4  and  C_5
REMARK    5  A    between atoms: C_5  and  N_6
REMARK    6  A    between atoms: C_12  and  C_19
REMARK    7  A    between atoms: C_22  and  C_25
REMARK    8  A    between atoms: C_30  and  O_31
REMARK    9  A    between atoms: O_31  and  C_32
REMARK                            x       y       z     vdW  Elec       q    Type
REMARK                         _______ _______ _______ _____ _____    ______ ____
ROOT
ATOM      1  N   UNL     1      -2.790  -2.565  -0.111  0.00  0.00    -0.261 N 
ATOM      2  C   UNL     1      -3.367  -2.891   1.066  0.00  0.00    +0.264 A 
ATOM      3  O   UNL     1      -2.760  -2.770   2.113  0.00  0.00    -0.267 OA
ATOM      4  C   UNL     1      -4.750  -3.399   1.049  0.00  0.00    +0.063 A 
ATOM      5  C   UNL     1      -5.414  -3.756   2.220  0.00  0.00    +0.016 A 
ATOM      6  C   UNL     1      -6.709  -4.225   2.150  0.00  0.00    +0.009 A 
ATOM      7  C   UNL     1      -7.349  -4.342   0.926  0.00  0.00    +0.006 A 
ATOM      8  C   UNL     1      -6.702  -3.991  -0.242  0.00  0.00    +0.034 A 
ATOM      9  C   UNL     1      -5.400  -3.517  -0.192  0.00  0.00    +0.056 A 
ATOM     10  N   UNL     1      -4.714  -3.153  -1.342  0.00  0.00    -0.307 N 
ATOM     11  H   UNL     1      -5.150  -3.229  -2.205  0.00  0.00    +0.170 HD
ATOM     12  C   UNL     1      -3.454  -2.691  -1.270  0.00  0.00    +0.330 A 
ATOM     13  O   UNL     1      -2.890  -2.378  -2.301  0.00  0.00    -0.246 OA
ENDROOT
BRANCH   7  14
ATOM     14  C   UNL     1      -8.764  -4.857   0.869  0.00  0.00    +0.274 C 
ATOM     15  N   UNL     1      -9.018  -5.769   1.991  0.00  0.00    -0.339 N 
ATOM     16  C   UNL     1      -9.975  -5.278   2.718  0.00  0.00    +0.138 C 
ATOM     17  N   UNL     1     -10.430  -4.087   2.208  0.00  0.00    -0.247 N 
ATOM     18  O   UNL     1      -9.694  -3.776   1.034  0.00  0.00    -0.243 OA
ATOM     19  H   UNL     1     -11.139  -3.545   2.589  0.00  0.00    +0.196 HD
ATOM     20  H   UNL     1      -8.548  -6.601   2.162  0.00  0.00    +0.164 HD
BRANCH  16  21
ATOM     21  C   UNL     1     -10.508  -5.920   3.938  0.00  0.00    +0.058 A 
ATOM     22  C   UNL     1      -9.977  -7.132   4.382  0.00  0.00    +0.015 A 
ATOM     23  C   UNL     1     -10.478  -7.726   5.521  0.00  0.00    +0.001 A 
ATOM     24  C   UNL     1     -11.507  -7.125   6.227  0.00  0.00    +0.004 A 
ATOM     25  C   UNL     1     -12.041  -5.926   5.798  0.00  0.00    +0.046 A 
ATOM     26  C   UNL     1     -11.544  -5.313   4.657  0.00  0.00    +0.131 A 
BRANCH  26  27
ATOM     27  O   UNL     1     -12.064  -4.132   4.238  0.00  0.00    -0.494 OA
ATOM     28  C   UNL     1     -13.119  -3.572   5.022  0.00  0.00    +0.277 C 
ENDBRANCH  26  27
ENDBRANCH  16  21
ENDBRANCH   7  14
BRANCH   1  29
ATOM     29  C   UNL     1      -1.416  -2.058  -0.121  0.00  0.00    +0.130 C 
BRANCH  29  30
ATOM     30  C   UNL     1      -1.433  -0.534   0.013  0.00  0.00    +0.025 C 
BRANCH  30  32
ATOM     31  C   UNL     1      -0.019   1.526   0.010  0.00  0.00    +0.007 C 
ATOM     32  C   UNL     1       0.002  -0.004   0.002  0.00  0.00    -0.016 C 
ATOM     33  C   UNL     1       0.742  -0.511   1.242  0.00  0.00    +0.007 C 
ENDBRANCH  30  32
ENDBRANCH  29  30
ENDBRANCH   1  29
TORSDOF 6
