REMARK  Name = ZINC08672228
REMARK  4 active torsions:
REMARK  status: ('A' for Active; 'I' for Inactive)
REMARK    1  A    between atoms: C_6  and  N_7
REMARK    2  A    between atoms: C_16  and  C_25
REMARK    3  A    between atoms: C_16  and  C_29
REMARK    4  A    between atoms: C_17  and  C_19
REMARK                            x       y       z     vdW  Elec       q    Type
REMARK                         _______ _______ _______ _____ _____    ______ ____
ROOT
ATOM      1  N   UNL     1      -1.276   3.904   0.680  0.00  0.00    -0.250 N 
ATOM      2  C   UNL     1      -0.256   4.032  -0.231  0.00  0.00    +0.124 A 
ATOM      3  C   UNL     1       0.766   3.129  -0.234  0.00  0.00    +0.098 A 
ATOM      4  C   UNL     1       0.754   2.085   0.708  0.00  0.00    +0.262 A 
ATOM      5  O   UNL     1       1.659   1.268   0.730  0.00  0.00    -0.267 OA
ATOM      6  N   UNL     1      -0.264   1.996   1.586  0.00  0.00    -0.274 N 
ATOM      7  H   UNL     1      -0.273   1.256   2.260  0.00  0.00    +0.173 HD
ATOM      8  C   UNL     1      -1.268   2.891   1.566  0.00  0.00    +0.335 A 
ATOM      9  O   UNL     1      -2.180   2.786   2.364  0.00  0.00    -0.246 OA
ATOM     10  C   UNL     1       1.885   3.240  -1.230  0.00  0.00    +0.264 C 
ATOM     11  C   UNL     1       0.916   5.381  -1.804  0.00  0.00    +0.106 C 
ATOM     12  N   UNL     1      -0.253   5.064  -1.141  0.00  0.00    -0.286 N 
ATOM     13  H   UNL     1      -1.065   5.564  -1.315  0.00  0.00    +0.155 HD
ATOM     14  N   UNL     1       1.985   4.585  -1.898  0.00  0.00    -0.348 N 
ATOM     15  H   UNL     1       2.832   4.877  -2.401  0.00  0.00    +0.162 HD
ENDROOT
BRANCH   1  21
ATOM     16  C   UNL     1      -3.465   4.590  -0.082  0.00  0.00    +0.028 A 
ATOM     17  C   UNL     1      -4.505   5.499  -0.072  0.00  0.00    +0.022 A 
ATOM     18  C   UNL     1      -4.412   6.651   0.689  0.00  0.00    +0.041 A 
ATOM     19  C   UNL     1      -3.279   6.893   1.447  0.00  0.00    +0.022 A 
ATOM     20  C   UNL     1      -2.239   5.984   1.445  0.00  0.00    +0.028 A 
ATOM     21  C   UNL     1      -2.330   4.828   0.683  0.00  0.00    +0.053 A 
ATOM     22 CL   UNL     1      -5.717   7.795   0.692  0.00  0.00    -0.084 Cl
ENDBRANCH   1  21
BRANCH  11  23
ATOM     23  C   UNL     1       1.032   6.697  -2.475  0.00  0.00    +0.016 A 
ATOM     24  C   UNL     1      -0.024   7.612  -2.450  0.00  0.00    +0.031 A 
ATOM     25  C   UNL     1       0.129   8.829  -3.084  0.00  0.00    +0.111 A 
ATOM     26  N   UNL     1       1.248   9.127  -3.716  0.00  0.00    -0.263 NA
ATOM     27  C   UNL     1       2.265   8.291  -3.768  0.00  0.00    +0.111 A 
ATOM     28  C   UNL     1       2.199   7.055  -3.157  0.00  0.00    +0.031 A 
ENDBRANCH  11  23
BRANCH  10  29
ATOM     29  C   UNL     1       3.216   2.997  -0.516  0.00  0.00    +0.426 C 
ATOM     30  F   UNL     1       3.367   1.629  -0.264  0.00  0.00    -0.167 F 
ATOM     31  F   UNL     1       4.267   3.440  -1.326  0.00  0.00    -0.167 F 
ATOM     32  F   UNL     1       3.232   3.699   0.694  0.00  0.00    -0.167 F 
ENDBRANCH  10  29
BRANCH  10  33
ATOM     33  C   UNL     1       1.698   2.177  -2.314  0.00  0.00    +0.426 C 
ATOM     34  F   UNL     1       0.472   2.379  -2.958  0.00  0.00    -0.167 F 
ATOM     35  F   UNL     1       2.736   2.274  -3.246  0.00  0.00    -0.167 F 
ATOM     36  F   UNL     1       1.713   0.906  -1.729  0.00  0.00    -0.167 F 
ENDBRANCH  10  33
TORSDOF 4
