REMARK  Name = ZINC19848984
REMARK  6 active torsions:
REMARK  status: ('A' for Active; 'I' for Inactive)
REMARK    1  A    between atoms: C_1  and  C_2
REMARK    2  A    between atoms: C_2  and  C_3
REMARK    3  A    between atoms: C_3  and  C_30
REMARK    4  A    between atoms: C_8  and  C_11
REMARK    5  A    between atoms: C_16  and  O_17
REMARK    6  A    between atoms: N_20  and  C_23
REMARK                            x       y       z     vdW  Elec       q    Type
REMARK                         _______ _______ _______ _____ _____    ______ ____
ROOT
ATOM      1  C   UNL     1       5.987   0.503  -0.228  0.00  0.00    +0.048 C 
ATOM      2  C   UNL     1       4.602   0.682   0.346  0.00  0.00    +0.086 C 
ATOM      3  C   UNL     1       3.903  -0.526  -0.394  0.00  0.00    +0.077 C 
ATOM      4  C   UNL     1       4.851  -1.630  -0.097  0.00  0.00    -0.023 C 
ATOM      5  N   UNL     1       6.202  -0.978  -0.098  0.00  0.00    +0.396 N 
ATOM      6  C   UNL     1       2.514  -0.264  -0.018  0.00  0.00    +0.229 C 
ATOM      7  O   UNL     1       1.649  -1.075   0.232  0.00  0.00    -0.275 OA
ATOM      8  N   UNL     1       2.405   1.104  -0.015  0.00  0.00    -0.210 N 
ATOM      9  C   UNL     1       3.624   1.729  -0.024  0.00  0.00    +0.229 C 
ATOM     10  O   UNL     1       3.853   2.892  -0.280  0.00  0.00    -0.275 OA
ATOM     11  H   UNL     1       6.801  -1.338  -0.947  0.00  0.00    -0.083 HD
ATOM     12  H   UNL     1       6.732  -1.190   0.842  0.00  0.00    -0.083 HD
ENDROOT
BRANCH   8  13
ATOM     13  C   UNL     1       1.180   1.787   0.000  0.00  0.00    +0.045 A 
ATOM     14  C   UNL     1      -0.013   1.076   0.008  0.00  0.00    +0.024 A 
ATOM     15  C   UNL     1      -1.218   1.750   0.017  0.00  0.00    +0.003 A 
ATOM     16  C   UNL     1      -1.238   3.133   0.030  0.00  0.00    +0.020 A 
ATOM     17  C   UNL     1      -0.051   3.845   0.023  0.00  0.00    +0.043 A 
ATOM     18  C   UNL     1       1.158   3.174   0.008  0.00  0.00    +0.044 A 
ATOM     19 CL   UNL     1      -0.081   5.580   0.033  0.00  0.00    -0.083 Cl
ENDBRANCH   8  13
BRANCH   4  20
ATOM     20  C   UNL     1       4.557  -2.226   1.256  0.00  0.00    -0.019 A 
ATOM     21  C   UNL     1       5.201  -1.744   2.379  0.00  0.00    +0.005 A 
ATOM     22  C   UNL     1       4.927  -2.288   3.621  0.00  0.00    +0.000 A 
ATOM     23  C   UNL     1       4.017  -3.322   3.740  0.00  0.00    +0.004 A 
ATOM     24  C   UNL     1       3.374  -3.810   2.619  0.00  0.00    +0.045 A 
ATOM     25  C   UNL     1       3.643  -3.263   1.373  0.00  0.00    +0.118 A 
BRANCH  25  26
ATOM     26  O   UNL     1       3.011  -3.742   0.269  0.00  0.00    -0.507 OA
ATOM     27  H   UNL     1       2.287  -4.564   0.363  0.00  0.00    +0.292 HD
ENDBRANCH  25  26
ENDBRANCH   4  20
BRANCH   1  28
ATOM     28  C   UNL     1       6.026   0.925  -1.674  0.00  0.00    +0.346 C 
ATOM     29  O   UNL     1       5.224   1.727  -2.091  0.00  0.00    -0.248 OA
ATOM     30  O   UNL     1       6.950   0.410  -2.499  0.00  0.00    -0.248 OA
ENDBRANCH   1  28
BRANCH   1  32
ATOM     31  C   UNL     1       8.409   1.078  -0.017  0.00  0.00    +0.003 C 
ATOM     32  C   UNL     1       7.020   1.281   0.591  0.00  0.00    -0.004 C 
ENDBRANCH   1  32
TORSDOF 5
