REMARK  Name = ZINC40826125
REMARK  7 active torsions:
REMARK  status: ('A' for Active; 'I' for Inactive)
REMARK    1  A    between atoms: C_1  and  C_2
REMARK    2  A    between atoms: C_6  and  C_7
REMARK    3  A    between atoms: N_9  and  N_10
REMARK    4  A    between atoms: N_10  and  C_11
REMARK    5  A    between atoms: N_21  and  N_22
REMARK    6  A    between atoms: N_22  and  S_23
REMARK    7  A    between atoms: S_23  and  C_26
REMARK                            x       y       z     vdW  Elec       q    Type
REMARK                         _______ _______ _______ _____ _____    ______ ____
ROOT
ATOM      1  C   UNL     1      -0.018   1.503   0.010  0.00  0.00    +0.048 C 
ATOM      2  C   UNL     1       0.002  -0.004   0.002  0.00  0.00    +0.009 A 
ATOM      3  C   UNL     1       0.009  -0.838  -1.122  0.00  0.00    +0.042 A 
ATOM      4  C   UNL     1       0.027  -2.136  -0.673  0.00  0.00    +0.115 A 
ATOM      5  O   UNL     1       0.035  -2.112   0.658  0.00  0.00    -0.454 OA
ATOM      6  C   UNL     1       0.024  -0.830   1.091  0.00  0.00    +0.194 A 
ATOM      7  C   UNL     1       0.034  -3.325  -1.601  0.00  0.00    +0.075 C 
ATOM      8  C   UNL     1      -0.491  -2.901  -2.975  0.00  0.00    +0.014 C 
ATOM      9  C   UNL     1       0.279  -1.684  -3.496  0.00  0.00    +0.058 C 
ATOM     10  C   UNL     1       0.000  -0.511  -2.567  0.00  0.00    +0.071 C 
ATOM     11  N   UNL     1      -0.228   0.687  -3.008  0.00  0.00    -0.170 NA
ENDROOT
BRANCH   6  12
ATOM     12  C   UNL     1       0.031  -0.400   2.494  0.00  0.00    +0.296 C 
ATOM     13  O   UNL     1       0.016   0.786   2.766  0.00  0.00    -0.265 OA
ATOM     14  N   UNL     1       0.053  -1.318   3.480  0.00  0.00    -0.230 N 
ATOM     15  H   UNL     1       0.065  -2.263   3.263  0.00  0.00    +0.173 HD
BRANCH  14  16
ATOM     16  N   UNL     1       0.060  -0.906   4.820  0.00  0.00    -0.264 N 
ATOM     17  H   UNL     1       0.048   0.039   5.037  0.00  0.00    +0.170 HD
BRANCH  16  18
ATOM     18  C   UNL     1       0.083  -1.857   5.842  0.00  0.00    +0.044 A 
ATOM     19  C   UNL     1       0.106  -3.212   5.533  0.00  0.00    +0.024 A 
ATOM     20  C   UNL     1       0.129  -4.149   6.546  0.00  0.00    +0.002 A 
ATOM     21  C   UNL     1       0.130  -3.742   7.868  0.00  0.00    +0.000 A 
ATOM     22  C   UNL     1       0.107  -2.395   8.179  0.00  0.00    +0.002 A 
ATOM     23  C   UNL     1       0.090  -1.452   7.171  0.00  0.00    +0.024 A 
ENDBRANCH  16  18
ENDBRANCH  14  16
ENDBRANCH   6  12
BRANCH  11  24
ATOM     24  N   UNL     1      -0.224   0.939  -4.386  0.00  0.00    -0.136 N 
ATOM     25  H   UNL     1      -0.050   0.217  -5.010  0.00  0.00    +0.197 HD
BRANCH  24  26
ATOM     26  S   UNL     1      -0.514   2.469  -4.949  0.00  0.00    +0.086 S 
ATOM     27  O   UNL     1      -0.301   2.432  -6.353  0.00  0.00    -0.149 OA
ATOM     28  O   UNL     1      -1.746   2.885  -4.376  0.00  0.00    -0.149 OA
BRANCH  26  29
ATOM     29  C   UNL     1       0.733   3.517  -4.277  0.00  0.00    +0.110 A 
ATOM     30  C   UNL     1       0.529   4.141  -3.060  0.00  0.00    +0.031 A 
ATOM     31  C   UNL     1       1.506   4.963  -2.533  0.00  0.00    +0.040 A 
ATOM     32  C   UNL     1       2.690   5.161  -3.223  0.00  0.00    +0.124 A 
ATOM     33  C   UNL     1       2.893   4.536  -4.441  0.00  0.00    +0.040 A 
ATOM     34  C   UNL     1       1.916   3.710  -4.965  0.00  0.00    +0.031 A 
ATOM     35  F   UNL     1       3.646   5.965  -2.708  0.00  0.00    -0.205 F 
ENDBRANCH  26  29
ENDBRANCH  24  26
ENDBRANCH  11  24
TORSDOF 6
