REMARK  Name = ZINC47921116
REMARK  9 active torsions:
REMARK  status: ('A' for Active; 'I' for Inactive)
REMARK    1  A    between atoms: C_1  and  C_2
REMARK    2  A    between atoms: N_5  and  C_8
REMARK    3  A    between atoms: C_8  and  C_10
REMARK    4  A    between atoms: C_8  and  C_24
REMARK    5  A    between atoms: C_10  and  N_11
REMARK    6  A    between atoms: N_14  and  C_15
REMARK    7  A    between atoms: C_15  and  C_17
REMARK    8  A    between atoms: C_15  and  C_18
REMARK    9  A    between atoms: C_18  and  N_19
REMARK                            x       y       z     vdW  Elec       q    Type
REMARK                         _______ _______ _______ _____ _____    ______ ____
ROOT
ATOM      1  C   UNL     1       0.082  -4.402   2.621  0.00  0.00    +0.095 C 
ENDROOT
BRANCH   1   2
ATOM      2  N   UNL     1       0.238  -5.859   2.589  0.00  0.00    -0.301 N 
ATOM      3  C   UNL     1       0.851  -6.493   3.607  0.00  0.00    +0.300 C 
ATOM      4  O   UNL     1       1.275  -5.857   4.553  0.00  0.00    -0.253 OA
ATOM      5  N   UNL     1       0.995  -7.833   3.578  0.00  0.00    -0.295 N 
ATOM      6  H   UNL     1      -0.101  -6.366   1.835  0.00  0.00    +0.150 HD
ATOM      7  H   UNL     1       0.656  -8.341   2.823  0.00  0.00    +0.151 HD
BRANCH   5   8
ATOM      8  C   UNL     1       1.662  -8.523   4.685  0.00  0.00    +0.091 C 
ATOM      9  C   UNL     1       3.175  -8.503   4.460  0.00  0.00    +0.029 C 
BRANCH   8  10
ATOM     10  C   UNL     1       1.175  -9.972   4.750  0.00  0.00    +0.144 C 
BRANCH  10  11
ATOM     11  N   UNL     1      -0.252  -9.993   5.083  0.00  0.00    -0.337 N 
ATOM     12  C   UNL     1      -0.791 -10.036   6.340  0.00  0.00    +0.104 A 
ATOM     13  C   UNL     1      -2.130 -10.041   6.189  0.00  0.00    +0.101 A 
ATOM     14  N   UNL     1      -2.400 -10.003   4.876  0.00  0.00    -0.352 N 
ATOM     15  C   UNL     1      -1.279  -9.970   4.207  0.00  0.00    +0.173 A 
ATOM     16  H   UNL     1      -3.287  -9.998   4.485  0.00  0.00    +0.166 HD
ENDBRANCH  10  11
ENDBRANCH   8  10
ENDBRANCH   5   8
ENDBRANCH   1   2
BRANCH   1  17
ATOM     17  C   UNL     1      -0.755  -3.952   1.422  0.00  0.00    -0.013 C 
BRANCH  17  22
ATOM     18  C   UNL     1      -0.655   1.640   0.307  0.00  0.00    +0.007 C 
ATOM     19  C   UNL     1      -0.508   0.121   0.195  0.00  0.00    -0.018 C 
ATOM     20  C   UNL     1      -1.882  -0.539   0.343  0.00  0.00    -0.015 C 
ATOM     21  C   UNL     1      -1.718  -2.060   0.309  0.00  0.00    -0.078 C 
ATOM     22  N   UNL     1      -0.847  -2.486   1.411  0.00  0.00    +0.386 N 
ATOM     23  C   UNL     1       0.494  -1.915   1.236  0.00  0.00    -0.078 C 
ATOM     24  C   UNL     1       0.414  -0.388   1.306  0.00  0.00    -0.015 C 
ATOM     25  H   UNL     1      -1.235  -2.169   2.287  0.00  0.00    -0.081 HD
ENDBRANCH  17  22
BRANCH  17  26
ATOM     26  C   UNL     1      -2.138  -4.542   1.524  0.00  0.00    -0.022 A 
ATOM     27  C   UNL     1      -2.651  -5.629   0.898  0.00  0.00    +0.009 A 
ATOM     28  C   UNL     1      -3.962  -5.990   1.147  0.00  0.00    +0.008 A 
ATOM     29  C   UNL     1      -4.695  -5.246   2.011  0.00  0.00    +0.045 A 
ATOM     30  S   UNL     1      -3.523  -3.994   2.508  0.00  0.00    -0.103 S 
ENDBRANCH  17  26
ENDBRANCH   1  17
TORSDOF 7
