REMARK  Name = ZINC04289943
REMARK  8 active torsions:
REMARK  status: ('A' for Active; 'I' for Inactive)
REMARK    1  A    between atoms: C_1  and  C_2
REMARK    2  A    between atoms: C_9  and  N_14
REMARK    3  A    between atoms: C_10  and  C_11
REMARK    4  A    between atoms: C_15  and  C_17
REMARK    5  A    between atoms: C_17  and  C_19
REMARK    6  A    between atoms: C_17  and  N_22
REMARK    7  A    between atoms: C_19  and  C_20
REMARK    8  A    between atoms: C_19  and  C_21
REMARK                            x       y       z     vdW  Elec       q    Type
REMARK                         _______ _______ _______ _____ _____    ______ ____
ROOT
ATOM      1  N   UNL     1       1.123  -6.271  -1.887  0.00  0.00    -0.278 N 
ATOM      2  C   UNL     1       1.838  -6.251  -3.029  0.00  0.00    +0.239 C 
ATOM      3  O   UNL     1       1.829  -5.264  -3.733  0.00  0.00    -0.273 OA
ATOM      4  H   UNL     1       1.086  -7.079  -1.352  0.00  0.00    +0.155 HD
ENDROOT
BRANCH   1  12
ATOM      5  C   UNL     1      -2.660   0.304   0.023  0.00  0.00    +0.008 C 
ATOM      6  C   UNL     1      -2.340  -1.180  -0.167  0.00  0.00    -0.009 C 
ATOM      7  C   UNL     1      -1.921  -1.791   1.173  0.00  0.00    +0.008 C 
ATOM      8  C   UNL     1      -1.838  -3.313   1.048  0.00  0.00    +0.037 C 
ATOM      9  C   UNL     1      -0.954  -3.660  -0.144  0.00  0.00    -0.023 A 
ATOM     10  C   UNL     1      -0.690  -2.746  -1.103  0.00  0.00    -0.004 A 
ATOM     11  S   UNL     1       0.355  -3.590  -2.256  0.00  0.00    -0.077 S 
ATOM     12  C   UNL     1       0.440  -5.136  -1.477  0.00  0.00    +0.084 A 
ATOM     13  C   UNL     1      -0.342  -4.962  -0.344  0.00  0.00    +0.068 A 
ATOM     14  C   UNL     1      -1.181  -1.333  -1.164  0.00  0.00    +0.046 C 
BRANCH  13  15
ATOM     15  C   UNL     1      -0.541  -6.052   0.616  0.00  0.00    +0.244 C 
ATOM     16  O   UNL     1      -1.474  -6.822   0.478  0.00  0.00    -0.270 OA
ATOM     17  N   UNL     1       0.308  -6.202   1.652  0.00  0.00    -0.325 N 
ATOM     18  H   UNL     1       1.051  -5.588   1.763  0.00  0.00    +0.145 HD
ATOM     19  H   UNL     1       0.176  -6.923   2.288  0.00  0.00    +0.145 HD
ENDBRANCH  13  15
ENDBRANCH   1  12
BRANCH   2  20
ATOM     20  C   UNL     1       2.649  -7.456  -3.432  0.00  0.00    +0.173 C 
BRANCH  20  21
ATOM     21  N   UNL     1       3.157  -7.270  -4.793  0.00  0.00    -0.222 N 
ATOM     22  C   UNL     1       4.048  -6.328  -5.151  0.00  0.00    +0.255 C 
ATOM     23  O   UNL     1       4.551  -5.509  -4.407  0.00  0.00    -0.270 OA
ATOM     24  C   UNL     1       4.315  -6.457  -6.599  0.00  0.00    +0.049 A 
ATOM     25  C   UNL     1       5.124  -5.781  -7.498  0.00  0.00    +0.014 A 
ATOM     26  C   UNL     1       5.139  -6.162  -8.830  0.00  0.00    +0.001 A 
ATOM     27  C   UNL     1       4.353  -7.212  -9.267  0.00  0.00    +0.001 A 
ATOM     28  C   UNL     1       3.539  -7.898  -8.379  0.00  0.00    +0.014 A 
ATOM     29  C   UNL     1       3.514  -7.528  -7.044  0.00  0.00    +0.049 A 
ATOM     30  C   UNL     1       2.791  -8.016  -5.851  0.00  0.00    +0.255 C 
ATOM     31  O   UNL     1       1.998  -8.936  -5.829  0.00  0.00    -0.270 OA
ENDBRANCH  20  21
BRANCH  20  32
ATOM     32  C   UNL     1       3.824  -7.626  -2.467  0.00  0.00    +0.013 C 
ATOM     33  C   UNL     1       3.295  -7.768  -1.038  0.00  0.00    +0.009 C 
ATOM     34  C   UNL     1       4.617  -8.878  -2.844  0.00  0.00    +0.009 C 
ENDBRANCH  20  32
ENDBRANCH   2  20
TORSDOF 5
