REMARK  Name = ZINC64053558
REMARK  10 active torsions:
REMARK  status: ('A' for Active; 'I' for Inactive)
REMARK    1  A    between atoms: C_1  and  C_2
REMARK    2  A    between atoms: C_2  and  O_3
REMARK    3  A    between atoms: O_3  and  C_4
REMARK    4  A    between atoms: C_9  and  N_12
REMARK    5  A    between atoms: C_13  and  C_15
REMARK    6  A    between atoms: N_21  and  C_24
REMARK    7  A    between atoms: C_24  and  C_26
REMARK    8  A    between atoms: C_24  and  C_27
REMARK    9  A    between atoms: C_27  and  C_28
REMARK   10  A    between atoms: C_28  and  C_29
REMARK                            x       y       z     vdW  Elec       q    Type
REMARK                         _______ _______ _______ _____ _____    ______ ____
ROOT
ATOM      1  C   UNL     1      -8.048  -5.282   3.161  0.00  0.00    +0.082 C 
ATOM      2  C   UNL     1      -9.527  -5.077   2.827  0.00  0.00    +0.020 C 
ATOM      3  C   UNL     1      -8.926  -6.481   2.810  0.00  0.00    -0.021 C 
ATOM      4  C   UNL     1      -9.313  -7.440   3.941  0.00  0.00    -0.011 C 
ATOM      5  C   UNL     1      -8.314  -8.602   3.959  0.00  0.00    -0.078 C 
ATOM      6  N   UNL     1      -8.293  -9.251   2.643  0.00  0.00    +0.381 N 
ATOM      7  C   UNL     1      -7.752  -8.333   1.634  0.00  0.00    -0.078 C 
ATOM      8  C   UNL     1      -8.710  -7.152   1.449  0.00  0.00    -0.011 C 
ATOM      9  H   UNL     1      -9.232  -9.515   2.385  0.00  0.00    -0.081 HD
ENDROOT
BRANCH   1  11
ATOM     10  N   UNL     1      -5.767  -5.289   2.205  0.00  0.00    -0.312 N 
ATOM     11  C   UNL     1      -7.035  -4.838   2.138  0.00  0.00    +0.217 C 
ATOM     12  O   UNL     1      -7.361  -4.074   1.254  0.00  0.00    -0.275 OA
ATOM     13  H   UNL     1      -5.506  -5.899   2.912  0.00  0.00    +0.149 HD
BRANCH  10  19
ATOM     14  C   UNL     1      -1.502  -5.880  -1.042  0.00  0.00    +0.403 C 
ATOM     15  O   UNL     1      -1.667  -6.500  -2.074  0.00  0.00    -0.226 OA
ATOM     16  N   UNL     1      -2.538  -5.234  -0.470  0.00  0.00    -0.267 N 
ATOM     17  C   UNL     1      -2.352  -4.476   0.775  0.00  0.00    +0.113 C 
ATOM     18  C   UNL     1      -3.376  -4.961   1.805  0.00  0.00    +0.041 C 
ATOM     19  C   UNL     1      -4.782  -4.857   1.210  0.00  0.00    +0.076 C 
ATOM     20  C   UNL     1      -4.881  -5.752  -0.028  0.00  0.00    +0.041 C 
ATOM     21  C   UNL     1      -3.873  -5.271  -1.082  0.00  0.00    +0.113 C 
BRANCH  14  22
ATOM     22  O   UNL     1      -0.284  -5.838  -0.470  0.00  0.00    -0.451 OA
BRANCH  22  24
ATOM     23  C   UNL     1       2.067  -6.383  -0.338  0.00  0.00    +0.048 C 
ATOM     24  C   UNL     1       0.768  -6.545  -1.130  0.00  0.00    +0.230 C 
ENDBRANCH  22  24
ENDBRANCH  14  22
ENDBRANCH  10  19
ENDBRANCH   1  11
BRANCH   6  25
ATOM     25  C   UNL     1      -7.452 -10.454   2.707  0.00  0.00    -0.071 C 
ATOM     26  C   UNL     1      -6.072 -10.083   3.252  0.00  0.00    -0.013 C 
BRANCH  25  27
ATOM     27  C   UNL     1      -8.105 -11.484   3.632  0.00  0.00    -0.011 C 
BRANCH  27  28
ATOM     28  C   UNL     1      -9.429 -11.950   3.021  0.00  0.00    +0.031 C 
BRANCH  28  29
ATOM     29  C   UNL     1     -10.010 -13.055   3.866  0.00  0.00    -0.042 C 
ATOM     30  C   UNL     1     -10.930 -12.928   4.849  0.00  0.00    -0.001 A 
ATOM     31  C   UNL     1     -11.637 -11.768   5.406  0.00  0.00    +0.010 A 
ATOM     32  C   UNL     1     -12.522 -11.960   6.411  0.00  0.00    +0.001 A 
ATOM     33  C   UNL     1     -12.779 -13.235   6.933  0.00  0.00    +0.002 A 
ATOM     34  C   UNL     1     -12.168 -14.348   6.475  0.00  0.00    +0.026 A 
ATOM     35  C   UNL     1     -11.220 -14.264   5.418  0.00  0.00    +0.043 A 
ATOM     36  N   UNL     1     -10.506 -15.180   4.811  0.00  0.00    -0.380 N 
ATOM     37  C   UNL     1      -9.687 -14.530   3.782  0.00  0.00    +0.144 C 
ATOM     38  H   UNL     1     -10.521 -16.130   5.006  0.00  0.00    +0.160 HD
ENDBRANCH  28  29
ENDBRANCH  27  28
ENDBRANCH  25  27
ENDBRANCH   6  25
TORSDOF 8
