REMARK  Name = ZINC39016413
REMARK  7 active torsions:
REMARK  status: ('A' for Active; 'I' for Inactive)
REMARK    1  A    between atoms: C_1  and  C_2
REMARK    2  A    between atoms: C_2  and  O_3
REMARK    3  A    between atoms: O_3  and  C_4
REMARK    4  A    between atoms: C_8  and  C_11
REMARK    5  A    between atoms: C_9  and  O_10
REMARK    6  A    between atoms: N_12  and  N_13
REMARK    7  A    between atoms: C_14  and  C_20
REMARK                            x       y       z     vdW  Elec       q    Type
REMARK                         _______ _______ _______ _____ _____    ______ ____
ROOT
ATOM      1  N   UNL     1       3.335  -4.071   5.785  0.00  0.00    -0.172 N 
ATOM      2  C   UNL     1       3.861  -3.345   6.956  0.00  0.00    +0.265 C 
ATOM      3  N   UNL     1       4.321  -4.413   7.856  0.00  0.00    -0.189 NA
ATOM      4  N   UNL     1       4.100  -5.497   7.309  0.00  0.00    -0.219 N 
ATOM      5  C   UNL     1       3.515  -5.375   6.087  0.00  0.00    +0.174 C 
ATOM      6  S   UNL     1       3.073  -6.685   5.077  0.00  0.00    -0.015 S 
ATOM      7  H   UNL     1       4.319  -6.352   7.712  0.00  0.00    +0.176 HD
ENDROOT
BRANCH   2   8
ATOM      8  C   UNL     1       2.772  -2.532   7.608  0.00  0.00    +0.012 A 
ATOM      9  C   UNL     1       1.678  -2.122   6.868  0.00  0.00    +0.008 A 
ATOM     10  C   UNL     1       0.679  -1.377   7.466  0.00  0.00    +0.000 A 
ATOM     11  C   UNL     1       0.773  -1.042   8.804  0.00  0.00    +0.001 A 
ATOM     12  C   UNL     1       1.866  -1.452   9.544  0.00  0.00    +0.015 A 
ATOM     13  C   UNL     1       2.864  -2.202   8.948  0.00  0.00    +0.025 A 
ATOM     14 BR   UNL     1       4.356  -2.768   9.962  0.00  0.00    -0.050 Br
ENDBRANCH   2   8
BRANCH   1  16
ATOM     15  C   UNL     1       2.454  -4.306   3.631  0.00  0.00    +0.142 C 
ATOM     16  N   UNL     1       2.769  -3.529   4.623  0.00  0.00    -0.183 NA
BRANCH  15  21
ATOM     17  C   UNL     1       0.695  -1.903   1.332  0.00  0.00    +0.162 A 
ATOM     18  C   UNL     1       0.365  -2.741   0.278  0.00  0.00    +0.049 A 
ATOM     19  C   UNL     1       0.712  -4.081   0.315  0.00  0.00    +0.004 A 
ATOM     20  C   UNL     1       1.389  -4.595   1.400  0.00  0.00    +0.013 A 
ATOM     21  C   UNL     1       1.730  -3.762   2.470  0.00  0.00    +0.040 A 
ATOM     22  C   UNL     1       1.383  -2.405   2.429  0.00  0.00    +0.167 A 
BRANCH  22  23
ATOM     23  O   UNL     1       1.714  -1.585   3.462  0.00  0.00    -0.503 OA
ATOM     24  H   UNL     1       1.042  -1.536   4.155  0.00  0.00    +0.292 HD
ENDBRANCH  22  23
BRANCH  17  25
ATOM     25  O   UNL     1       0.351  -0.588   1.288  0.00  0.00    -0.489 OA
BRANCH  25  27
ATOM     26  C   UNL     1      -0.654   1.355   0.260  0.00  0.00    +0.048 C 
ATOM     27  C   UNL     1      -0.355  -0.140   0.130  0.00  0.00    +0.226 C 
ENDBRANCH  25  27
ENDBRANCH  17  25
ENDBRANCH  15  21
ENDBRANCH   1  16
TORSDOF 6
