REMARK  Name = ZINC49403908
REMARK  9 active torsions:
REMARK  status: ('A' for Active; 'I' for Inactive)
REMARK    1  A    between atoms: C_1  and  C_2
REMARK    2  A    between atoms: C_2  and  C_3
REMARK    3  A    between atoms: C_2  and  C_4
REMARK    4  A    between atoms: C_7  and  N_10
REMARK    5  A    between atoms: N_13  and  C_16
REMARK    6  A    between atoms: C_16  and  C_17
REMARK    7  A    between atoms: N_19  and  C_20
REMARK    8  A    between atoms: C_23  and  S_26
REMARK    9  A    between atoms: S_26  and  N_29
REMARK                            x       y       z     vdW  Elec       q    Type
REMARK                         _______ _______ _______ _____ _____    ______ ____
ROOT
ATOM      1  C   UNL     1      -8.533  -2.322   1.728  0.00  0.00    +0.205 C 
ENDROOT
BRANCH   1   5
ATOM      2  N   UNL     1      -5.308  -1.955   0.063  0.00  0.00    -0.254 N 
ATOM      3  C   UNL     1      -5.937  -2.721  -1.023  0.00  0.00    +0.134 C 
ATOM      4  C   UNL     1      -7.364  -2.991  -0.505  0.00  0.00    +0.129 C 
ATOM      5  N   UNL     1      -7.386  -2.349   0.817  0.00  0.00    -0.275 N 
ATOM      6  C   UNL     1      -6.190  -1.796   1.058  0.00  0.00    +0.310 C 
ATOM      7  O   UNL     1      -5.929  -1.202   2.086  0.00  0.00    -0.252 OA
BRANCH   2  11
ATOM      8  C   UNL     1      -1.396  -0.521   0.053  0.00  0.00    -0.045 A 
ATOM      9  C   UNL     1      -2.247  -0.197   1.093  0.00  0.00    +0.006 A 
ATOM     10  C   UNL     1      -3.544  -0.670   1.099  0.00  0.00    +0.024 A 
ATOM     11  C   UNL     1      -3.994  -1.473   0.059  0.00  0.00    +0.038 A 
ATOM     12  C   UNL     1      -3.137  -1.797  -0.984  0.00  0.00    +0.024 A 
ATOM     13  C   UNL     1      -1.842  -1.316  -0.987  0.00  0.00    +0.006 A 
BRANCH   8  15
ATOM     14  C   UNL     1       0.001   1.528   0.057  0.00  0.00    +0.012 C 
ATOM     15  C   UNL     1       0.019  -0.002   0.049  0.00  0.00    +0.013 C 
ATOM     16  C   UNL     1       0.752  -0.510   1.292  0.00  0.00    +0.012 C 
ENDBRANCH   8  15
ENDBRANCH   2  11
ENDBRANCH   1   5
BRANCH   1  17
ATOM     17  C   UNL     1      -8.480  -3.523   2.637  0.00  0.00    +0.235 C 
ATOM     18  O   UNL     1      -7.574  -4.323   2.533  0.00  0.00    -0.274 OA
ATOM     19  N   UNL     1      -9.441  -3.709   3.565  0.00  0.00    -0.284 N 
ATOM     20  H   UNL     1     -10.206  -3.114   3.596  0.00  0.00    +0.155 HD
BRANCH  19  21
ATOM     21  C   UNL     1      -9.333  -4.760   4.482  0.00  0.00    +0.034 A 
ATOM     22  C   UNL     1     -10.472  -5.426   4.914  0.00  0.00    +0.025 A 
ATOM     23  C   UNL     1     -10.362  -6.463   5.820  0.00  0.00    +0.030 A 
ATOM     24  C   UNL     1      -9.120  -6.837   6.297  0.00  0.00    +0.105 A 
ATOM     25  C   UNL     1      -7.983  -6.176   5.869  0.00  0.00    +0.030 A 
ATOM     26  C   UNL     1      -8.086  -5.142   4.959  0.00  0.00    +0.025 A 
BRANCH  24  27
ATOM     27  S   UNL     1      -8.984  -8.160   7.453  0.00  0.00    +0.056 S 
ATOM     28  O   UNL     1      -7.768  -7.959   8.160  0.00  0.00    -0.153 OA
ATOM     29  O   UNL     1     -10.240  -8.257   8.110  0.00  0.00    -0.153 OA
BRANCH  27  30
ATOM     30  N   UNL     1      -8.798  -9.556   6.580  0.00  0.00    -0.204 NA
ATOM     31  H   UNL     1      -8.293 -10.296   6.951  0.00  0.00    +0.144 HD
ATOM     32  H   UNL     1      -9.194  -9.632   5.698  0.00  0.00    +0.144 HD
ENDBRANCH  27  30
ENDBRANCH  24  27
ENDBRANCH  19  21
ENDBRANCH   1  17
TORSDOF 7
