REMARK  Name = ZINC03003529
REMARK  7 active torsions:
REMARK  status: ('A' for Active; 'I' for Inactive)
REMARK    1  A    between atoms: C_4  and  O_7
REMARK    2  A    between atoms: O_7  and  C_8
REMARK    3  A    between atoms: C_12  and  C_14
REMARK    4  A    between atoms: C_14  and  C_16
REMARK    5  A    between atoms: C_14  and  N_27
REMARK    6  A    between atoms: C_25  and  O_26
REMARK    7  A    between atoms: N_27  and  C_28
REMARK                            x       y       z     vdW  Elec       q    Type
REMARK                         _______ _______ _______ _____ _____    ______ ____
ROOT
ATOM      1  C   UNL     1      -1.157   5.907   0.159  0.00  0.00    +0.136 C 
ENDROOT
BRANCH   1   2
ATOM      2  C   UNL     1      -1.634   5.323   1.464  0.00  0.00    +0.021 A 
ATOM      3  C   UNL     1      -1.168   4.074   1.866  0.00  0.00    +0.010 A 
ATOM      4  C   UNL     1      -1.575   3.521   3.042  0.00  0.00    +0.010 A 
ATOM      5  C   UNL     1      -2.486   4.211   3.858  0.00  0.00    +0.004 A 
ATOM      6  C   UNL     1      -2.934   3.669   5.078  0.00  0.00    +0.011 A 
ATOM      7  C   UNL     1      -3.820   4.397   5.820  0.00  0.00    +0.020 A 
ATOM      8  C   UNL     1      -4.254   5.639   5.362  0.00  0.00    +0.111 A 
ATOM      9  N   UNL     1      -3.834   6.141   4.226  0.00  0.00    -0.251 NA
ATOM     10  C   UNL     1      -2.968   5.480   3.453  0.00  0.00    +0.113 A 
ATOM     11  C   UNL     1      -2.520   6.024   2.231  0.00  0.00    +0.148 A 
BRANCH  11  12
ATOM     12  O   UNL     1      -2.968   7.239   1.819  0.00  0.00    -0.504 OA
ATOM     13  H   UNL     1      -3.770   7.200   1.280  0.00  0.00    +0.292 HD
ENDBRANCH  11  12
ENDBRANCH   1   2
BRANCH   1  18
ATOM     14  C   UNL     1      -3.888   6.207  -2.437  0.00  0.00    +0.129 A 
ATOM     15  C   UNL     1      -3.929   4.915  -2.942  0.00  0.00    +0.046 A 
ATOM     16  C   UNL     1      -3.075   3.952  -2.442  0.00  0.00    +0.004 A 
ATOM     17  C   UNL     1      -2.175   4.275  -1.443  0.00  0.00    +0.006 A 
ATOM     18  C   UNL     1      -2.136   5.560  -0.934  0.00  0.00    -0.019 A 
ATOM     19  C   UNL     1      -2.988   6.527  -1.430  0.00  0.00    +0.052 A 
BRANCH  14  20
ATOM     20  O   UNL     1      -4.727   7.157  -2.927  0.00  0.00    -0.456 OA
BRANCH  20  24
ATOM     21  C   UNL     1      -7.591   5.988  -5.656  0.00  0.00    +0.000 A 
ATOM     22  C   UNL     1      -7.758   5.699  -4.314  0.00  0.00    +0.004 A 
ATOM     23  C   UNL     1      -6.800   6.089  -3.398  0.00  0.00    +0.046 A 
ATOM     24  C   UNL     1      -5.670   6.772  -3.826  0.00  0.00    +0.128 A 
ATOM     25  C   UNL     1      -5.508   7.066  -5.172  0.00  0.00    +0.046 A 
ATOM     26  C   UNL     1      -6.466   6.668  -6.085  0.00  0.00    +0.004 A 
ENDBRANCH  20  24
ENDBRANCH  14  20
ENDBRANCH   1  18
BRANCH   1  27
ATOM     27  N   UNL     1       0.159   5.356  -0.172  0.00  0.00    -0.320 N 
ATOM     28  H   UNL     1       0.234   4.627  -0.806  0.00  0.00    +0.148 HD
BRANCH  27  29
ATOM     29  C   UNL     1       1.301   5.880   0.424  0.00  0.00    +0.097 A 
ATOM     30  C   UNL     1       1.198   6.993   1.253  0.00  0.00    +0.041 A 
ATOM     31  C   UNL     1       2.341   7.499   1.844  0.00  0.00    +0.005 A 
ATOM     32  C   UNL     1       3.555   6.880   1.578  0.00  0.00    +0.018 A 
ATOM     33  C   UNL     1       3.584   5.779   0.746  0.00  0.00    +0.084 A 
ATOM     34  N   UNL     1       2.481   5.251   0.152  0.00  0.00    -0.350 N 
ATOM     35  H   UNL     1       2.532   4.430  -0.463  0.00  0.00    +0.166 HD
ENDBRANCH  27  29
ENDBRANCH   1  27
TORSDOF 7
