REMARK  Name = ZINC57270703
REMARK  3 active torsions:
REMARK  status: ('A' for Active; 'I' for Inactive)
REMARK    1  A    between atoms: C_8  and  C_10
REMARK    2  A    between atoms: N_13  and  C_16
REMARK    3  A    between atoms: C_16  and  N_17
REMARK                            x       y       z     vdW  Elec       q    Type
REMARK                         _______ _______ _______ _____ _____    ______ ____
ROOT
ATOM      1  C   UNL     1       3.078  -3.972  -0.050  0.00  0.00    +0.047 C 
ATOM      2  C   UNL     1       3.930  -4.273   1.186  0.00  0.00    +0.025 C 
ATOM      3  C   UNL     1       4.393  -5.731   1.138  0.00  0.00    +0.086 C 
ATOM      4  N   UNL     1       5.174  -5.957  -0.085  0.00  0.00    -0.286 NA
ATOM      5  C   UNL     1       4.363  -5.720  -1.285  0.00  0.00    +0.086 C 
ATOM      6  C   UNL     1       3.899  -4.262  -1.309  0.00  0.00    +0.025 C 
ENDROOT
BRANCH   1  14
ATOM      7  C   UNL     1      -0.016   1.357   0.009  0.00  0.00    +0.002 A 
ATOM      8  C   UNL     1       1.156   2.100   0.002  0.00  0.00    +0.001 A 
ATOM      9  C   UNL     1       2.375   1.449  -0.013  0.00  0.00    +0.017 A 
ATOM     10  C   UNL     1       2.404   0.076  -0.021  0.00  0.00    +0.039 A 
ATOM     11  C   UNL     1       1.226  -0.705  -0.013  0.00  0.00    +0.078 A 
ATOM     12  C   UNL     1       0.002  -0.004   0.002  0.00  0.00    +0.029 A 
ATOM     13  N   UNL     1       1.464  -2.033  -0.023  0.00  0.00    -0.244 NA
ATOM     14  C   UNL     1       2.669  -2.521  -0.038  0.00  0.00    +0.083 A 
ATOM     15  S   UNL     1       3.669  -1.167  -0.040  0.00  0.00    -0.072 S 
ENDBRANCH   1  14
BRANCH   4  16
ATOM     16  C   UNL     1       5.751  -7.308  -0.098  0.00  0.00    +0.205 C 
BRANCH  16  17
ATOM     17  N   UNL     1       6.946  -7.321  -0.947  0.00  0.00    -0.211 N 
ATOM     18  C   UNL     1       6.932  -7.582  -2.268  0.00  0.00    +0.248 C 
ATOM     19  O   UNL     1       5.966  -7.843  -2.951  0.00  0.00    -0.273 OA
ATOM     20  C   UNL     1       8.378  -7.482  -2.725  0.00  0.00    +0.113 C 
ATOM     21  C   UNL     1       8.489  -6.270  -3.678  0.00  0.00    +0.035 C 
ATOM     22  C   UNL     1       9.913  -5.788  -3.687  0.00  0.00    +0.003 C 
ATOM     23  C   UNL     1      10.740  -6.401  -4.834  0.00  0.00    +0.000 C 
ATOM     24  C   UNL     1      10.460  -7.902  -5.037  0.00  0.00    +0.000 C 
ATOM     25  C   UNL     1      10.345  -8.643  -3.731  0.00  0.00    +0.003 C 
ATOM     26  C   UNL     1       8.856  -8.713  -3.341  0.00  0.00    +0.035 C 
ATOM     27  N   UNL     1       9.103  -7.148  -1.482  0.00  0.00    -0.285 N 
ATOM     28  C   UNL     1       8.183  -7.069  -0.506  0.00  0.00    +0.310 C 
ATOM     29  O   UNL     1       8.446  -6.801   0.650  0.00  0.00    -0.252 OA
ATOM     30  H   UNL     1      10.058  -7.008  -1.390  0.00  0.00    +0.151 HD
ENDBRANCH  16  17
ENDBRANCH   4  16
TORSDOF 3
