REMARK  Name = ZINC67481964
REMARK  6 active torsions:
REMARK  status: ('A' for Active; 'I' for Inactive)
REMARK    1  A    between atoms: C_1  and  C_2
REMARK    2  A    between atoms: C_4  and  C_7
REMARK    3  A    between atoms: N_15  and  C_16
REMARK    4  A    between atoms: C_16  and  C_17
REMARK    5  A    between atoms: N_22  and  C_23
REMARK    6  A    between atoms: C_23  and  C_24
REMARK                            x       y       z     vdW  Elec       q    Type
REMARK                         _______ _______ _______ _____ _____    ______ ____
ROOT
ATOM      1  C   UNL     1      -1.540  -3.922  -0.391  0.00  0.00    +0.130 C 
ATOM      2  C   UNL     1      -1.177  -4.945  -1.488  0.00  0.00    +0.030 C 
ATOM      3  C   UNL     1      -1.295  -6.304  -0.748  0.00  0.00    +0.021 C 
ATOM      4  C   UNL     1      -0.790  -5.933   0.668  0.00  0.00    +0.110 C 
ATOM      5  N   UNL     1      -1.307  -4.570   0.909  0.00  0.00    -0.277 N 
ATOM      6  C   UNL     1      -1.527  -4.011   2.115  0.00  0.00    +0.303 C 
ATOM      7  O   UNL     1      -1.955  -2.875   2.190  0.00  0.00    -0.253 OA
ATOM      8  N   UNL     1      -1.272  -4.711   3.239  0.00  0.00    -0.301 N 
ATOM      9  H   UNL     1      -0.931  -5.617   3.179  0.00  0.00    +0.150 HD
ENDROOT
BRANCH   1  13
ATOM     10  C   UNL     1      -0.055   0.927  -0.874  0.00  0.00    +0.089 C 
ATOM     11  C   UNL     1      -0.036  -0.573  -0.731  0.00  0.00    +0.135 A 
ATOM     12  C   UNL     1      -1.115  -1.374  -0.640  0.00  0.00    +0.072 A 
ATOM     13  C   UNL     1      -0.667  -2.701  -0.519  0.00  0.00    +0.104 A 
ATOM     14  N   UNL     1       0.636  -2.691  -0.537  0.00  0.00    -0.081 NA
ATOM     15  O   UNL     1       1.059  -1.346  -0.676  0.00  0.00    -0.360 OA
ENDBRANCH   1  13
BRANCH   8  16
ATOM     16  C   UNL     1      -1.511  -4.103   4.550  0.00  0.00    +0.090 C 
BRANCH  16  17
ATOM     17  C   UNL     1      -1.144  -5.102   5.649  0.00  0.00    -0.051 C 
ATOM     18  C   UNL     1      -1.549  -4.538   7.028  0.00  0.00    -0.016 C 
ATOM     19  C   UNL     1      -2.924  -5.208   7.289  0.00  0.00    -0.020 C 
ATOM     20  C   UNL     1      -2.716  -6.607   6.656  0.00  0.00    -0.078 C 
ATOM     21  N   UNL     1      -1.888  -6.360   5.453  0.00  0.00    +0.383 N 
ATOM     22  H   UNL     1      -2.482  -6.280   4.641  0.00  0.00    -0.081 HD
BRANCH  21  23
ATOM     23  C   UNL     1      -0.942  -7.469   5.264  0.00  0.00    -0.075 C 
BRANCH  23  24
ATOM     24  C   UNL     1      -1.715  -8.745   4.923  0.00  0.00    -0.028 C 
ATOM     25  C   UNL     1      -0.745  -9.927   4.864  0.00  0.00    +0.002 C 
ATOM     26  C   UNL     1      -1.517 -11.203   4.524  0.00  0.00    +0.000 C 
ATOM     27  C   UNL     1      -2.203 -11.038   3.167  0.00  0.00    +0.000 C 
ATOM     28  C   UNL     1      -3.173  -9.856   3.226  0.00  0.00    +0.000 C 
ATOM     29  C   UNL     1      -2.401  -8.579   3.566  0.00  0.00    +0.002 C 
ENDBRANCH  23  24
ENDBRANCH  21  23
ENDBRANCH  16  17
ENDBRANCH   8  16
TORSDOF 5
