REMARK  Name = ZINC00937132
REMARK  7 active torsions:
REMARK  status: ('A' for Active; 'I' for Inactive)
REMARK    1  A    between atoms: C_3  and  S_10
REMARK    2  A    between atoms: C_6  and  N_7
REMARK    3  A    between atoms: S_10  and  N_13
REMARK    4  A    between atoms: N_13  and  N_14
REMARK    5  A    between atoms: C_15  and  C_17
REMARK    6  A    between atoms: C_17  and  O_18
REMARK    7  A    between atoms: O_18  and  C_19
REMARK                            x       y       z     vdW  Elec       q    Type
REMARK                         _______ _______ _______ _____ _____    ______ ____
ROOT
ATOM      1  N   UNL     1      -1.202  -0.721   0.010  0.00  0.00    -0.108 NA
ATOM      2  H   UNL     1      -1.858  -0.559   0.705  0.00  0.00    +0.172 HD
ENDROOT
BRANCH   1   3
ATOM      3  N   UNL     1       0.002  -0.004   0.002  0.00  0.00    -0.229 N 
ATOM      4  C   UNL     1      -0.016   1.344   0.009  0.00  0.00    +0.265 C 
ATOM      5  O   UNL     1      -1.075   1.936   0.018  0.00  0.00    -0.271 OA
ATOM      6  H   UNL     1       0.849  -0.478  -0.009  0.00  0.00    +0.171 HD
BRANCH   4   7
ATOM      7  C   UNL     1       1.278   2.115   0.001  0.00  0.00    +0.325 C 
BRANCH   7   8
ATOM      8  O   UNL     1       0.998   3.516   0.011  0.00  0.00    -0.483 OA
BRANCH   8   9
ATOM      9  C   UNL     1       2.065   4.359   0.006  0.00  0.00    +0.121 A 
ATOM     10  C   UNL     1       3.354   3.847  -0.004  0.00  0.00    +0.047 A 
ATOM     11  C   UNL     1       4.437   4.705  -0.016  0.00  0.00    +0.019 A 
ATOM     12  C   UNL     1       4.236   6.074  -0.006  0.00  0.00    +0.018 A 
ATOM     13  C   UNL     1       2.951   6.586   0.009  0.00  0.00    +0.019 A 
ATOM     14  C   UNL     1       1.866   5.731   0.015  0.00  0.00    +0.047 A 
ATOM     15 BR   UNL     1       5.720   7.246  -0.015  0.00  0.00    -0.050 Br
ENDBRANCH   8   9
ENDBRANCH   7   8
ENDBRANCH   4   7
ENDBRANCH   1   3
BRANCH   1  16
ATOM     16  S   UNL     1      -1.503  -1.845  -1.168  0.00  0.00    +0.074 S 
ATOM     17  O   UNL     1      -2.716  -2.493  -0.810  0.00  0.00    -0.152 OA
ATOM     18  O   UNL     1      -1.332  -1.184  -2.414  0.00  0.00    -0.152 OA
BRANCH  16  21
ATOM     19  C   UNL     1       0.597  -5.123  -0.173  0.00  0.00    +0.034 A 
ATOM     20  C   UNL     1      -0.400  -4.168  -0.254  0.00  0.00    +0.031 A 
ATOM     21  C   UNL     1      -0.233  -3.062  -1.065  0.00  0.00    +0.107 A 
ATOM     22  C   UNL     1       0.928  -2.912  -1.800  0.00  0.00    +0.031 A 
ATOM     23  C   UNL     1       1.927  -3.865  -1.716  0.00  0.00    +0.034 A 
ATOM     24  C   UNL     1       1.760  -4.971  -0.904  0.00  0.00    +0.126 A 
BRANCH  24  25
ATOM     25  N   UNL     1       2.828  -5.993  -0.817  0.00  0.00    +0.056 N 
ATOM     26  O   UNL     1       2.681  -6.968  -0.102  0.00  0.00    -0.126 OA
ATOM     27  O   UNL     1       3.853  -5.859  -1.461  0.00  0.00    -0.126 OA
ENDBRANCH  24  25
ENDBRANCH  16  21
ENDBRANCH   1  16
TORSDOF 7
