REMARK  Name = ZINC21609579
REMARK  7 active torsions:
REMARK  status: ('A' for Active; 'I' for Inactive)
REMARK    1  A    between atoms: C_1  and  C_2
REMARK    2  A    between atoms: C_6  and  N_9
REMARK    3  A    between atoms: C_7  and  C_8
REMARK    4  A    between atoms: C_13  and  S_14
REMARK    5  A    between atoms: S_14  and  C_15
REMARK    6  A    between atoms: C_15  and  C_16
REMARK    7  A    between atoms: C_29  and  C_31
REMARK                            x       y       z     vdW  Elec       q    Type
REMARK                         _______ _______ _______ _____ _____    ______ ____
ROOT
ATOM      1  C   UNL     1      -1.767   5.068   0.038  0.00  0.00    +0.230 C 
ATOM      2  O   UNL     1      -2.936   4.744   0.042  0.00  0.00    -0.274 OA
ATOM      3  N   UNL     1      -1.430   6.372   0.044  0.00  0.00    -0.266 N 
ATOM      4  C   UNL     1      -0.083   6.761   0.039  0.00  0.00    +0.058 A 
ATOM      5  C   UNL     1       0.693   6.609  -1.099  0.00  0.00    +0.025 A 
ATOM      6  C   UNL     1       2.013   7.019  -1.091  0.00  0.00    +0.002 A 
ATOM      7  C   UNL     1       2.562   7.582   0.047  0.00  0.00    +0.002 A 
ATOM      8  C   UNL     1       1.797   7.729   1.189  0.00  0.00    +0.025 A 
ATOM      9  C   UNL     1       0.477   7.311   1.193  0.00  0.00    +0.055 A 
ATOM     10  N   UNL     1      -0.300   7.399   2.354  0.00  0.00    -0.284 N 
ATOM     11  C   UNL     1      -1.544   7.926   2.308  0.00  0.00    +0.219 C 
ATOM     12  O   UNL     1      -2.238   7.920   3.302  0.00  0.00    -0.275 OA
ATOM     13  C   UNL     1      -2.073   8.521   1.030  0.00  0.00    +0.118 C 
ATOM     14  C   UNL     1      -2.463   7.410   0.048  0.00  0.00    +0.087 C 
ATOM     15  C   UNL     1      -2.603   7.994  -1.359  0.00  0.00    +0.029 C 
ATOM     16  H   UNL     1       0.100   7.037   3.312  0.00  0.00    +0.155 HD
ENDROOT
BRANCH   1  17
ATOM     17  C   UNL     1      -0.693   4.011   0.027  0.00  0.00    +0.173 C 
BRANCH  17  18
ATOM     18  S   UNL     1      -1.459   2.371   0.022  0.00  0.00    -0.078 S 
BRANCH  18  23
ATOM     19  N   UNL     1       0.002  -0.004   0.002  0.00  0.00    -0.294 N 
ATOM     20  C   UNL     1       1.326  -0.388  -0.013  0.00  0.00    +0.113 A 
ATOM     21  C   UNL     1       2.060   0.738  -0.014  0.00  0.00    +0.131 A 
ATOM     22  N   UNL     1       1.224   1.790   0.000  0.00  0.00    -0.230 NA
ATOM     23  C   UNL     1      -0.016   1.360   0.009  0.00  0.00    +0.174 A 
BRANCH  19  29
ATOM     24  C   UNL     1      -4.029  -1.718  -2.235  0.00  0.00    +0.044 C 
ATOM     25  C   UNL     1      -3.082  -1.704  -1.063  0.00  0.00    -0.046 A 
ATOM     26  C   UNL     1      -3.314  -2.531   0.022  0.00  0.00    +0.004 A 
ATOM     27  C   UNL     1      -2.447  -2.521   1.099  0.00  0.00    +0.002 A 
ATOM     28  C   UNL     1      -1.344  -1.689   1.093  0.00  0.00    +0.026 A 
ATOM     29  C   UNL     1      -1.113  -0.854   0.009  0.00  0.00    +0.052 A 
ATOM     30  C   UNL     1      -1.985  -0.866  -1.072  0.00  0.00    -0.024 A 
ATOM     31  C   UNL     1      -1.734   0.035  -2.254  0.00  0.00    +0.046 C 
ENDBRANCH  19  29
ENDBRANCH  18  23
ENDBRANCH  17  18
ENDBRANCH   1  17
TORSDOF 4
