REMARK  Name = ZINC64482310
REMARK  10 active torsions:
REMARK  status: ('A' for Active; 'I' for Inactive)
REMARK    1  A    between atoms: C_1  and  C_2
REMARK    2  A    between atoms: C_10  and  C_37
REMARK    3  A    between atoms: C_11  and  C_15
REMARK    4  A    between atoms: C_15  and  C_16
REMARK    5  A    between atoms: C_19  and  S_22
REMARK    6  A    between atoms: N_20  and  C_21
REMARK    7  A    between atoms: S_22  and  C_23
REMARK    8  A    between atoms: C_23  and  C_24
REMARK    9  A    between atoms: N_26  and  C_27
REMARK   10  A    between atoms: C_27  and  C_28
REMARK                            x       y       z     vdW  Elec       q    Type
REMARK                         _______ _______ _______ _____ _____    ______ ____
ROOT
ATOM      1  C   UNL     1       2.598  -2.930   5.097  0.00  0.00    +0.138 A 
ATOM      2  N   UNL     1       2.175  -2.393   6.207  0.00  0.00    -0.133 NA
ATOM      3  N   UNL     1       1.744  -3.307   7.002  0.00  0.00    -0.122 NA
ATOM      4  C   UNL     1       1.869  -4.485   6.438  0.00  0.00    +0.192 A 
ATOM      5  N   UNL     1       2.413  -4.281   5.202  0.00  0.00    -0.309 N 
ATOM      6  C   UNL     1       2.735  -5.298   4.198  0.00  0.00    +0.152 C 
ENDROOT
BRANCH   1   7
ATOM      7  C   UNL     1       3.176  -2.197   3.914  0.00  0.00    +0.118 C 
BRANCH   7  17
ATOM      8  C   UNL     1      -0.184   1.605   0.233  0.00  0.00    +0.042 C 
ATOM      9  C   UNL     1      -0.230   0.098   0.243  0.00  0.00    -0.034 C 
ATOM     10  C   UNL     1      -0.351  -0.580  -0.899  0.00  0.00    +0.004 C 
ATOM     11  C   UNL     1      -0.402  -2.049  -0.877  0.00  0.00    +0.016 C 
ATOM     12  C   UNL     1       0.020  -2.708   0.216  0.00  0.00    +0.080 C 
ATOM     13  N   UNL     1       0.477  -1.960   1.297  0.00  0.00    -0.251 N 
ATOM     14  C   UNL     1      -0.133  -0.658   1.543  0.00  0.00    +0.192 C 
ATOM     15  N   UNL     1       0.587   0.117   2.537  0.00  0.00    -0.325 N 
ATOM     16  C   UNL     1       1.616  -0.387   3.269  0.00  0.00    +0.011 C 
ATOM     17  C   UNL     1       2.057  -1.645   3.069  0.00  0.00    +0.039 C 
ATOM     18  H   UNL     1       0.323   1.039   2.685  0.00  0.00    +0.148 HD
ATOM     19  C   UNL     1       1.459  -2.443   2.074  0.00  0.00    +0.250 C 
ATOM     20  O   UNL     1       1.850  -3.584   1.907  0.00  0.00    -0.270 OA
ATOM     21  C   UNL     1       2.272   0.472   4.319  0.00  0.00    +0.061 C 
ENDBRANCH   7  17
ENDBRANCH   1   7
BRANCH   4  22
ATOM     22  S   UNL     1       1.415  -6.036   7.139  0.00  0.00    -0.077 S 
BRANCH  22  23
ATOM     23  C   UNL     1       0.757  -5.603   8.773  0.00  0.00    +0.173 C 
BRANCH  23  24
ATOM     24  C   UNL     1       0.326  -6.857   9.490  0.00  0.00    +0.223 C 
ATOM     25  O   UNL     1       0.451  -7.937   8.951  0.00  0.00    -0.275 OA
ATOM     26  N   UNL     1      -0.197  -6.779  10.729  0.00  0.00    -0.311 N 
ATOM     27  H   UNL     1      -0.297  -5.916  11.160  0.00  0.00    +0.149 HD
BRANCH  26  28
ATOM     28  C   UNL     1      -0.616  -7.998  11.425  0.00  0.00    +0.151 C 
BRANCH  28  29
ATOM     29  C   UNL     1      -1.171  -7.633  12.804  0.00  0.00    +0.191 C 
ATOM     30  N   UNL     1      -2.280  -6.681  12.664  0.00  0.00    -0.362 N 
ATOM     31  C   UNL     1      -1.942  -5.592  13.293  0.00  0.00    +0.060 A 
ATOM     32  C   UNL     1      -2.624  -4.308  13.505  0.00  0.00    +0.027 A 
ATOM     33  C   UNL     1      -2.013  -3.340  14.216  0.00  0.00    +0.002 A 
ATOM     34  C   UNL     1      -0.732  -3.503  14.774  0.00  0.00    +0.002 A 
ATOM     35  C   UNL     1      -0.020  -4.640  14.640  0.00  0.00    +0.027 A 
ATOM     36  C   UNL     1      -0.587  -5.765  13.884  0.00  0.00    +0.060 A 
ATOM     37  N   UNL     1      -0.140  -6.954  13.598  0.00  0.00    -0.362 N 
ATOM     38  H   UNL     1      -3.113  -6.834  12.190  0.00  0.00    +0.162 HD
ATOM     39  H   UNL     1       0.717  -7.323  13.862  0.00  0.00    +0.162 HD
ENDBRANCH  28  29
ENDBRANCH  26  28
ENDBRANCH  23  24
ENDBRANCH  22  23
ENDBRANCH   4  22
TORSDOF 7
