REMARK  Name = ZINC16973350
REMARK  7 active torsions:
REMARK  status: ('A' for Active; 'I' for Inactive)
REMARK    1  A    between atoms: C_1  and  C_2
REMARK    2  A    between atoms: C_2  and  C_3
REMARK    3  A    between atoms: C_3  and  C_4
REMARK    4  A    between atoms: C_4  and  C_5
REMARK    5  A    between atoms: C_6  and  O_18
REMARK    6  A    between atoms: C_10  and  C_17
REMARK    7  A    between atoms: C_12  and  C_16
REMARK                            x       y       z     vdW  Elec       q    Type
REMARK                         _______ _______ _______ _____ _____    ______ ____
ROOT
ATOM      1  C   UNL     1      -1.181  -0.729   0.317  0.00  0.00    +0.079 A 
ATOM      2  C   UNL     1       0.012  -0.017   0.305  0.00  0.00    +0.224 A 
ATOM      3  N   UNL     1       1.168  -0.662   0.182  0.00  0.00    -0.176 NA
ATOM      4  C   UNL     1       1.214  -1.988   0.081  0.00  0.00    +0.241 A 
ATOM      5  N   UNL     1       2.403  -2.593  -0.034  0.00  0.00    -0.217 NA
ATOM      6  C   UNL     1       2.492  -3.899  -0.142  0.00  0.00    +0.044 A 
ATOM      7  C   UNL     1       1.335  -4.687  -0.138  0.00  0.00    +0.044 A 
ATOM      8  C   UNL     1       0.123  -4.085  -0.021  0.00  0.00    +0.029 A 
ATOM      9  N   UNL     1       0.064  -2.727   0.089  0.00  0.00    -0.249 N 
ATOM     10  C   UNL     1      -1.135  -2.119   0.205  0.00  0.00    +0.266 A 
ATOM     11  O   UNL     1      -2.165  -2.775   0.212  0.00  0.00    -0.267 OA
ATOM     12  C   UNL     1      -1.139  -4.907  -0.014  0.00  0.00    +0.064 C 
ATOM     13  C   UNL     1       3.844  -4.552  -0.270  0.00  0.00    +0.066 C 
ENDROOT
BRANCH   2  14
ATOM     14  O   UNL     1      -0.003   1.333   0.412  0.00  0.00    -0.492 OA
ATOM     15  H   UNL     1       0.874   1.739   0.393  0.00  0.00    +0.294 HD
ENDBRANCH   2  14
BRANCH   1  16
ATOM     16  C   UNL     1      -2.501  -0.013   0.449  0.00  0.00    +0.046 C 
BRANCH  16  17
ATOM     17  C   UNL     1      -3.089   0.232  -0.942  0.00  0.00    +0.005 C 
BRANCH  17  19
ATOM     18  C   UNL     1      -5.018   1.204  -2.198  0.00  0.00    +0.004 C 
ATOM     19  C   UNL     1      -4.429   0.959  -0.807  0.00  0.00    -0.003 C 
ENDBRANCH  17  19
ENDBRANCH  16  17
ENDBRANCH   1  16
TORSDOF 4
