REMARK  Name = ZINC00365814
REMARK  5 active torsions:
REMARK  status: ('A' for Active; 'I' for Inactive)
REMARK    1  A    between atoms: C_1  and  O_2
REMARK    2  A    between atoms: O_2  and  C_3
REMARK    3  A    between atoms: C_7  and  C_9
REMARK    4  A    between atoms: C_14  and  N_16
REMARK    5  A    between atoms: N_16  and  C_17
REMARK                            x       y       z     vdW  Elec       q    Type
REMARK                         _______ _______ _______ _____ _____    ______ ____
ROOT
ATOM      1  C   UNL     1      -2.565  -4.144  -0.079  0.00  0.00    +0.028 C 
ATOM      2  C   UNL     1      -3.760  -4.766   0.070  0.00  0.00    +0.079 C 
ATOM      3  C   UNL     1      -5.121  -4.190   0.201  0.00  0.00    +0.276 C 
ATOM      4  O   UNL     1      -5.315  -2.985   0.185  0.00  0.00    -0.267 OA
ATOM      5  N   UNL     1      -6.106  -5.050   0.335  0.00  0.00    -0.152 NA
ATOM      6  C   UNL     1      -5.909  -6.359   0.353  0.00  0.00    +0.175 C 
ATOM      7  S   UNL     1      -4.141  -6.511   0.157  0.00  0.00    -0.050 S 
ENDROOT
BRANCH   1  12
ATOM      8  C   UNL     1      -1.517  -0.582  -0.626  0.00  0.00    +0.121 A 
ATOM      9  C   UNL     1      -2.310   0.075   0.306  0.00  0.00    +0.045 A 
ATOM     10  C   UNL     1      -3.181  -0.640   1.109  0.00  0.00    +0.004 A 
ATOM     11  C   UNL     1      -3.269  -2.011   0.989  0.00  0.00    +0.008 A 
ATOM     12  C   UNL     1      -2.475  -2.682   0.053  0.00  0.00    -0.020 A 
ATOM     13  C   UNL     1      -1.599  -1.956  -0.760  0.00  0.00    +0.053 A 
BRANCH   8  15
ATOM     14  C   UNL     1      -0.630   1.543  -1.218  0.00  0.00    +0.277 C 
ATOM     15  O   UNL     1      -0.663   0.128  -1.411  0.00  0.00    -0.495 OA
ENDBRANCH   8  15
ENDBRANCH   1  12
BRANCH   6  16
ATOM     16  N   UNL     1      -6.839  -7.356   0.485  0.00  0.00    -0.192 NA
BRANCH  16  17
ATOM     17  C   UNL     1      -8.204  -7.053   0.426  0.00  0.00    +0.056 A 
ATOM     18  C   UNL     1      -8.636  -5.921  -0.253  0.00  0.00    +0.028 A 
ATOM     19  C   UNL     1      -9.983  -5.624  -0.310  0.00  0.00    +0.040 A 
ATOM     20  C   UNL     1     -10.903  -6.453   0.310  0.00  0.00    +0.124 A 
ATOM     21  C   UNL     1     -10.474  -7.582   0.988  0.00  0.00    +0.040 A 
ATOM     22  C   UNL     1      -9.129  -7.887   1.042  0.00  0.00    +0.028 A 
ATOM     23  F   UNL     1     -12.221  -6.160   0.253  0.00  0.00    -0.205 F 
ENDBRANCH  16  17
ENDBRANCH   6  16
TORSDOF 4
