REMARK  Name = ZINC08947096
REMARK  10 active torsions:
REMARK  status: ('A' for Active; 'I' for Inactive)
REMARK    1  A    between atoms: C_1  and  C_2
REMARK    2  A    between atoms: C_2  and  C_23
REMARK    3  A    between atoms: N_5  and  C_9
REMARK    4  A    between atoms: C_9  and  C_10
REMARK    5  A    between atoms: N_15  and  C_16
REMARK    6  A    between atoms: C_16  and  C_17
REMARK    7  A    between atoms: C_26  and  C_29
REMARK    8  A    between atoms: C_29  and  C_30
REMARK    9  A    between atoms: C_29  and  C_31
REMARK   10  A    between atoms: C_29  and  C_32
REMARK                            x       y       z     vdW  Elec       q    Type
REMARK                         _______ _______ _______ _____ _____    ______ ____
ROOT
ATOM      1  C   UNL     1      -1.184  -4.833   0.674  0.00  0.00    +0.047 C 
ATOM      2  C   UNL     1       0.060  -4.275  -0.021  0.00  0.00    +0.135 C 
ATOM      3  C   UNL     1       0.162  -4.800  -1.440  0.00  0.00    +0.251 C 
ATOM      4  O   UNL     1      -0.631  -4.632  -2.341  0.00  0.00    -0.272 OA
ATOM      5  N   UNL     1       1.317  -5.492  -1.490  0.00  0.00    -0.215 N 
ATOM      6  C   UNL     1       1.952  -5.478  -0.313  0.00  0.00    +0.310 C 
ATOM      7  O   UNL     1       3.014  -6.034  -0.112  0.00  0.00    -0.252 OA
ATOM      8  N   UNL     1       1.284  -4.781   0.623  0.00  0.00    -0.281 N 
ATOM      9  H   UNL     1       1.556  -4.638   1.544  0.00  0.00    +0.152 HD
ENDROOT
BRANCH   2  10
ATOM     10  C   UNL     1       0.039  -2.768  -0.013  0.00  0.00    -0.015 A 
ATOM     11  C   UNL     1       0.638  -2.075   1.022  0.00  0.00    +0.006 A 
ATOM     12  C   UNL     1       0.620  -0.693   1.029  0.00  0.00    +0.004 A 
ATOM     13  C   UNL     1       0.002  -0.004   0.002  0.00  0.00    -0.042 A 
ATOM     14  C   UNL     1      -0.602  -0.698  -1.030  0.00  0.00    +0.004 A 
ATOM     15  C   UNL     1      -0.579  -2.080  -1.040  0.00  0.00    +0.006 A 
BRANCH  13  16
ATOM     16  C   UNL     1      -0.018   1.503   0.010  0.00  0.00    -0.013 C 
ATOM     17  C   UNL     1       1.417   2.032  -0.001  0.00  0.00    +0.015 C 
ATOM     18  C   UNL     1      -0.758   2.010  -1.229  0.00  0.00    +0.015 C 
ATOM     19  C   UNL     1      -0.735   1.996   1.269  0.00  0.00    +0.015 C 
ENDBRANCH  13  16
ENDBRANCH   2  10
BRANCH   5  20
ATOM     20  C   UNL     1       1.815  -6.176  -2.687  0.00  0.00    +0.214 C 
BRANCH  20  21
ATOM     21  C   UNL     1       1.295  -7.590  -2.710  0.00  0.00    +0.238 C 
ATOM     22  O   UNL     1       0.579  -7.987  -1.815  0.00  0.00    -0.274 OA
ATOM     23  N   UNL     1       1.626  -8.413  -3.724  0.00  0.00    -0.239 N 
ATOM     24  C   UNL     1       1.161  -9.678  -3.745  0.00  0.00    +0.306 C 
ATOM     25  O   UNL     1       0.443 -10.076  -2.848  0.00  0.00    -0.252 OA
ATOM     26  N   UNL     1       1.492 -10.501  -4.760  0.00  0.00    -0.295 N 
ATOM     27  H   UNL     1       2.198  -8.095  -4.440  0.00  0.00    +0.159 HD
ATOM     28  H   UNL     1       2.064 -10.183  -5.475  0.00  0.00    +0.151 HD
BRANCH  26  29
ATOM     29  C   UNL     1       0.986 -11.876  -4.782  0.00  0.00    +0.141 C 
BRANCH  29  30
ATOM     30  C   UNL     1       1.499 -12.579  -6.012  0.00  0.00    -0.030 A 
ATOM     31  C   UNL     1       0.767 -12.543  -7.185  0.00  0.00    +0.005 A 
ATOM     32  C   UNL     1       1.239 -13.183  -8.315  0.00  0.00    +0.000 A 
ATOM     33  C   UNL     1       2.438 -13.870  -8.269  0.00  0.00    +0.000 A 
ATOM     34  C   UNL     1       3.167 -13.912  -7.096  0.00  0.00    +0.000 A 
ATOM     35  C   UNL     1       2.697 -13.266  -5.967  0.00  0.00    +0.005 A 
ENDBRANCH  29  30
ENDBRANCH  26  29
ENDBRANCH  20  21
ENDBRANCH   5  20
TORSDOF 6
