REMARK  Name = ZINC03250141
REMARK  7 active torsions:
REMARK  status: ('A' for Active; 'I' for Inactive)
REMARK    1  A    between atoms: C_1  and  C_2
REMARK    2  A    between atoms: C_2  and  O_3
REMARK    3  A    between atoms: O_3  and  C_4
REMARK    4  A    between atoms: C_4  and  C_6
REMARK    5  A    between atoms: C_12  and  C_13
REMARK    6  A    between atoms: C_12  and  N_54
REMARK    7  A    between atoms: C_25  and  C_29
REMARK                            x       y       z     vdW  Elec       q    Type
REMARK                         _______ _______ _______ _____ _____    ______ ____
ROOT
ATOM      1  C   UNL     1       3.347   3.653  -1.181  0.00  0.00    +0.094 A 
ATOM      2  N   UNL     1       4.457   4.416  -1.353  0.00  0.00    -0.312 N 
ATOM      3  H   UNL     1       5.328   3.972  -1.563  0.00  0.00    +0.170 HD
ATOM      4  C   UNL     1       4.408   5.757  -1.248  0.00  0.00    +0.260 A 
ATOM      5  O   UNL     1       5.413   6.428  -1.410  0.00  0.00    -0.267 OA
ATOM      6  C   UNL     1       3.157   6.382  -0.935  0.00  0.00    +0.075 A 
ATOM      7  C   UNL     1       2.870   7.806  -0.766  0.00  0.00    -0.023 A 
ATOM      8  C   UNL     1       1.597   8.143  -0.471  0.00  0.00    -0.004 A 
ATOM      9  S   UNL     1       0.718   6.605  -0.402  0.00  0.00    -0.073 S 
ATOM     10  C   UNL     1       2.067   5.512  -0.770  0.00  0.00    +0.116 A 
ATOM     11  N   UNL     1       2.192   4.194  -0.896  0.00  0.00    -0.229 NA
ATOM     12  C   UNL     1       1.050   9.521  -0.251  0.00  0.00    +0.046 C 
ATOM     13  C   UNL     1       2.230  10.482  -0.042  0.00  0.00    -0.009 C 
ATOM     14  C   UNL     1       3.268  10.230  -1.139  0.00  0.00    +0.008 C 
ATOM     15  C   UNL     1       3.946   8.879  -0.913  0.00  0.00    +0.037 C 
ATOM     16  C   UNL     1       1.734  11.927  -0.121  0.00  0.00    +0.008 C 
ENDROOT
BRANCH   1  17
ATOM     17  C   UNL     1       3.450   2.156  -1.314  0.00  0.00    -0.003 C 
BRANCH  17  23
ATOM     18  C   UNL     1      -0.147   1.434  -2.166  0.00  0.00    +0.081 C 
ATOM     19  C   UNL     1      -0.120  -0.090  -2.020  0.00  0.00    +0.011 C 
ATOM     20  C   UNL     1       0.788  -0.467  -0.846  0.00  0.00    -0.018 C 
ATOM     21  C   UNL     1       2.188   0.102  -1.088  0.00  0.00    -0.078 C 
ATOM     22  C   UNL     1       1.281   1.948  -2.369  0.00  0.00    -0.064 C 
ATOM     23  N   UNL     1       2.097   1.573  -1.194  0.00  0.00    +0.385 N 
ATOM     24  H   UNL     1       1.649   1.942  -0.347  0.00  0.00    -0.081 HD
BRANCH  18  25
ATOM     25  C   UNL     1      -0.991   1.812  -3.355  0.00  0.00    +0.308 C 
ATOM     26  O   UNL     1      -0.503   2.431  -4.271  0.00  0.00    -0.251 OA
BRANCH  25  27
ATOM     27  O   UNL     1      -2.286   1.459  -3.398  0.00  0.00    -0.465 OA
BRANCH  27  29
ATOM     28  C   UNL     1      -4.483   1.370  -4.444  0.00  0.00    +0.048 C 
ATOM     29  C   UNL     1      -3.038   1.856  -4.575  0.00  0.00    +0.229 C 
ENDBRANCH  27  29
ENDBRANCH  25  27
ENDBRANCH  18  25
ENDBRANCH  17  23
ENDBRANCH   1  17
TORSDOF 5
