REMARK  Name = ZINC49748004
REMARK  10 active torsions:
REMARK  status: ('A' for Active; 'I' for Inactive)
REMARK    1  A    between atoms: C_1  and  C_2
REMARK    2  A    between atoms: C_2  and  N_3
REMARK    3  A    between atoms: N_3  and  C_4
REMARK    4  A    between atoms: N_3  and  C_6
REMARK    5  A    between atoms: C_4  and  C_5
REMARK    6  A    between atoms: C_6  and  C_7
REMARK    7  A    between atoms: C_7  and  C_8
REMARK    8  A    between atoms: C_8  and  N_9
REMARK    9  A    between atoms: C_16  and  C_26
REMARK   10  A    between atoms: C_21  and  O_25
REMARK                            x       y       z     vdW  Elec       q    Type
REMARK                         _______ _______ _______ _____ _____    ______ ____
ROOT
ATOM      1  N   UNL     1       2.352  -4.535   3.681  0.00  0.00    -0.320 N 
ATOM      2  C   UNL     1       3.659  -4.683   3.756  0.00  0.00    +0.204 A 
ATOM      3  N   UNL     1       4.252  -5.105   4.855  0.00  0.00    -0.203 NA
ATOM      4  C   UNL     1       3.542  -5.402   5.943  0.00  0.00    +0.229 A 
ATOM      5  C   UNL     1       2.166  -5.259   5.904  0.00  0.00    +0.064 A 
ATOM      6  C   UNL     1       1.575  -4.806   4.728  0.00  0.00    +0.107 A 
ATOM      7  N   UNL     1       0.201  -4.644   4.646  0.00  0.00    -0.344 N 
ATOM      8  C   UNL     1       1.318  -5.582   7.101  0.00  0.00    +0.091 C 
ATOM      9  C   UNL     1       2.165  -5.644   8.344  0.00  0.00    +0.007 A 
ATOM     10  C   UNL     1       1.552  -5.579   9.584  0.00  0.00    +0.012 A 
ATOM     11  C   UNL     1       2.306  -5.635  10.738  0.00  0.00    +0.046 A 
ATOM     12  C   UNL     1       3.687  -5.756  10.659  0.00  0.00    +0.120 A 
ATOM     13  C   UNL     1       4.303  -5.821   9.421  0.00  0.00    +0.092 A 
ATOM     14  C   UNL     1       3.542  -5.765   8.259  0.00  0.00    +0.138 A 
ATOM     15  O   UNL     1       4.168  -5.833   7.058  0.00  0.00    -0.437 OA
ATOM     16  H   UNL     1      -0.203  -4.330   3.821  0.00  0.00    +0.144 HD
ATOM     17  H   UNL     1      -0.358  -4.843   5.414  0.00  0.00    +0.144 HD
ENDROOT
BRANCH   8  18
ATOM     18  C   UNL     1       0.648  -6.915   6.892  0.00  0.00    -0.035 A 
ATOM     19  C   UNL     1       1.414  -8.052   6.712  0.00  0.00    +0.006 A 
ATOM     20  C   UNL     1       0.800  -9.276   6.520  0.00  0.00    +0.020 A 
ATOM     21  C   UNL     1      -0.581  -9.363   6.509  0.00  0.00    +0.041 A 
ATOM     22  C   UNL     1      -1.346  -8.225   6.690  0.00  0.00    +0.020 A 
ATOM     23  C   UNL     1      -0.731  -7.002   6.887  0.00  0.00    +0.006 A 
ATOM     24 CL   UNL     1      -1.352 -10.899   6.268  0.00  0.00    -0.084 Cl
ENDBRANCH   8  18
BRANCH  12  25
ATOM     25  O   UNL     1       4.432  -5.812  11.794  0.00  0.00    -0.507 OA
ATOM     26  H   UNL     1       4.570  -6.708  12.130  0.00  0.00    +0.292 HD
ENDBRANCH  12  25
BRANCH   1  27
ATOM     27  C   UNL     1       1.748  -4.062   2.433  0.00  0.00    +0.122 C 
BRANCH  27  28
ATOM     28  C   UNL     1       1.558  -2.546   2.502  0.00  0.00    +0.003 C 
BRANCH  28  29
ATOM     29  C   UNL     1       0.926  -2.051   1.199  0.00  0.00    -0.077 C 
BRANCH  29  30
ATOM     30  N   UNL     1       0.643  -0.614   1.306  0.00  0.00    +0.379 N 
ATOM     31  H   UNL     1       0.074  -0.444   2.122  0.00  0.00    -0.082 HD
BRANCH  30  33
ATOM     32  C   UNL     1       1.607   1.609   1.663  0.00  0.00    -0.017 C 
ATOM     33  C   UNL     1       1.905   0.127   1.426  0.00  0.00    -0.082 C 
ENDBRANCH  30  33
BRANCH  30  34
ATOM     34  C   UNL     1      -0.076  -0.166   0.106  0.00  0.00    -0.082 C 
ATOM     35  C   UNL     1      -1.460  -0.817   0.068  0.00  0.00    -0.017 C 
ENDBRANCH  30  34
ENDBRANCH  29  30
ENDBRANCH  28  29
ENDBRANCH  27  28
ENDBRANCH   1  27
TORSDOF 8
