REMARK  Name = ZINC57992095
REMARK  12 active torsions:
REMARK  status: ('A' for Active; 'I' for Inactive)
REMARK    1  A    between atoms: C_1  and  C_2
REMARK    2  A    between atoms: C_5  and  C_8
REMARK    3  A    between atoms: C_8  and  N_9
REMARK    4  A    between atoms: C_10  and  C_27
REMARK    5  A    between atoms: C_11  and  C_15
REMARK    6  A    between atoms: C_12  and  C_14
REMARK    7  A    between atoms: C_15  and  N_16
REMARK    8  A    between atoms: N_16  and  C_17
REMARK    9  A    between atoms: C_19  and  C_25
REMARK   10  A    between atoms: C_19  and  C_26
REMARK   11  A    between atoms: C_21  and  C_23
REMARK   12  A    between atoms: C_21  and  C_24
REMARK                            x       y       z     vdW  Elec       q    Type
REMARK                         _______ _______ _______ _____ _____    ______ ____
ROOT
ATOM      1  N   UNL     1       1.880  -5.326  -0.253  0.00  0.00    -0.264 N 
ATOM      2  C   UNL     1       2.606  -5.453  -1.383  0.00  0.00    +0.041 A 
ATOM      3  C   UNL     1       3.856  -5.833  -1.029  0.00  0.00    +0.010 A 
ATOM      4  C   UNL     1       3.894  -5.942   0.364  0.00  0.00    +0.065 A 
ATOM      5  N   UNL     1       2.712  -5.633   0.832  0.00  0.00    -0.176 NA
ATOM      6  C   UNL     1       5.093  -6.341   1.187  0.00  0.00    +0.068 C 
ATOM      7  C   UNL     1       2.114  -5.214  -2.787  0.00  0.00    +0.065 C 
ENDROOT
BRANCH   1   8
ATOM      8  C   UNL     1       0.471  -4.931  -0.173  0.00  0.00    +0.178 C 
BRANCH   8  13
ATOM      9  C   UNL     1       0.101   0.819   0.272  0.00  0.00    +0.044 C 
ATOM     10  C   UNL     1       0.198  -0.681   0.156  0.00  0.00    -0.050 A 
ATOM     11  C   UNL     1       0.201  -1.279  -1.090  0.00  0.00    +0.004 A 
ATOM     12  C   UNL     1       0.290  -2.654  -1.197  0.00  0.00    +0.006 A 
ATOM     13  C   UNL     1       0.376  -3.432  -0.057  0.00  0.00    -0.026 A 
ATOM     14  C   UNL     1       0.373  -2.834   1.189  0.00  0.00    +0.006 A 
ATOM     15  C   UNL     1       0.289  -1.458   1.296  0.00  0.00    +0.004 A 
ENDBRANCH   8  13
ENDBRANCH   1   8
BRANCH   3  16
ATOM     16  C   UNL     1       5.003  -6.094  -1.971  0.00  0.00    +0.120 C 
BRANCH  16  17
ATOM     17  N   UNL     1       5.754  -4.849  -2.184  0.00  0.00    -0.309 NA
ATOM     18  H   UNL     1       5.149  -4.115  -2.523  0.00  0.00    +0.123 HD
BRANCH  17  19
ATOM     19  C   UNL     1       6.885  -5.066  -3.102  0.00  0.00    +0.051 C 
ATOM     20  C   UNL     1       6.402  -4.899  -4.543  0.00  0.00    +0.006 C 
ATOM     21  C   UNL     1       7.569  -5.109  -5.508  0.00  0.00    -0.072 C 
ATOM     22  N   UNL     1       8.700  -4.249  -5.196  0.00  0.00    +0.386 N 
ATOM     23  C   UNL     1       9.123  -4.167  -3.807  0.00  0.00    -0.072 C 
ATOM     24  C   UNL     1       7.961  -4.015  -2.832  0.00  0.00    +0.006 C 
ATOM     25  C   UNL     1       9.987  -5.367  -3.407  0.00  0.00    -0.010 C 
ATOM     26  C   UNL     1      10.009  -2.907  -3.666  0.00  0.00    -0.010 C 
ATOM     27  C   UNL     1       7.069  -4.730  -6.921  0.00  0.00    -0.010 C 
ATOM     28  C   UNL     1       7.962  -6.586  -5.548  0.00  0.00    -0.010 C 
ATOM     29  H   UNL     1       9.498  -4.551  -5.760  0.00  0.00    -0.084 HD
ATOM     30  H   UNL     1       8.484  -3.304  -5.522  0.00  0.00    -0.084 HD
ENDBRANCH  17  19
ENDBRANCH  16  17
ENDBRANCH   3  16
TORSDOF 5
