REMARK  Name = ZINC36586805
REMARK  16 active torsions:
REMARK  status: ('A' for Active; 'I' for Inactive)
REMARK    1  A    between atoms: C_1  and  C_2
REMARK    2  A    between atoms: C_2  and  C_3
REMARK    3  A    between atoms: C_2  and  C_4
REMARK    4  A    between atoms: C_2  and  N_5
REMARK    5  A    between atoms: C_6  and  C_8
REMARK    6  A    between atoms: C_8  and  C_10
REMARK    7  A    between atoms: C_8  and  N_18
REMARK    8  A    between atoms: C_13  and  O_16
REMARK    9  A    between atoms: O_16  and  C_17
REMARK   10  A    between atoms: N_18  and  C_29
REMARK   11  A    between atoms: C_19  and  C_21
REMARK   12  A    between atoms: C_22  and  O_28
REMARK   13  A    between atoms: C_26  and  O_27
REMARK   14  A    between atoms: C_29  and  C_30
REMARK   15  A    between atoms: C_29  and  C_31
REMARK   16  A    between atoms: C_29  and  C_32
REMARK                            x       y       z     vdW  Elec       q    Type
REMARK                         _______ _______ _______ _____ _____    ______ ____
ROOT
ATOM      1  C   UNL     1       3.632  -1.693  -3.187  0.00  0.00    +0.193 C 
ENDROOT
BRANCH   1   2
ATOM      2  C   UNL     1       3.331  -1.880  -4.652  0.00  0.00    -0.018 A 
ATOM      3  C   UNL     1       2.997  -0.789  -5.433  0.00  0.00    +0.009 A 
ATOM      4  C   UNL     1       2.720  -0.959  -6.776  0.00  0.00    +0.046 A 
ATOM      5  C   UNL     1       2.779  -2.224  -7.341  0.00  0.00    +0.120 A 
ATOM      6  C   UNL     1       3.115  -3.317  -6.555  0.00  0.00    +0.046 A 
ATOM      7  C   UNL     1       3.396  -3.142  -5.214  0.00  0.00    +0.009 A 
BRANCH   5   8
ATOM      8  O   UNL     1       2.507  -2.393  -8.662  0.00  0.00    -0.495 OA
ATOM      9  C   UNL     1       2.587  -3.725  -9.175  0.00  0.00    +0.277 C 
ENDBRANCH   5   8
ENDBRANCH   1   2
BRANCH   1  11
ATOM     10  N   UNL     1       2.118  -3.519  -2.487  0.00  0.00    -0.309 N 
ATOM     11  C   UNL     1       2.487  -2.229  -2.367  0.00  0.00    +0.239 C 
ATOM     12  O   UNL     1       1.898  -1.499  -1.598  0.00  0.00    -0.273 OA
ATOM     13  H   UNL     1       2.589  -4.103  -3.102  0.00  0.00    +0.149 HD
BRANCH  10  15
ATOM     14  C   UNL     1      -0.269  -3.259  -2.020  0.00  0.00    +0.031 C 
ATOM     15  C   UNL     1       1.005  -4.040  -1.690  0.00  0.00    +0.026 C 
ATOM     16  C   UNL     1       1.327  -3.885  -0.202  0.00  0.00    +0.031 C 
ATOM     17  C   UNL     1       0.794  -5.521  -2.014  0.00  0.00    +0.031 C 
ENDBRANCH  10  15
ENDBRANCH   1  11
BRANCH   1  18
ATOM     18  N   UNL     1       3.811  -0.267  -2.904  0.00  0.00    -0.277 N 
ATOM     19  C   UNL     1       2.767   0.579  -3.017  0.00  0.00    +0.255 C 
ATOM     20  O   UNL     1       1.705   0.178  -3.456  0.00  0.00    -0.270 OA
BRANCH  19  21
ATOM     21  C   UNL     1       2.912   1.986  -2.610  0.00  0.00    +0.119 A 
ATOM     22  C   UNL     1       3.248   2.964  -3.558  0.00  0.00    +0.133 A 
ATOM     23  C   UNL     1       3.381   4.286  -3.164  0.00  0.00    +0.046 A 
ATOM     24  C   UNL     1       3.184   4.642  -1.843  0.00  0.00    +0.007 A 
ATOM     25  C   UNL     1       2.853   3.686  -0.900  0.00  0.00    +0.046 A 
ATOM     26  C   UNL     1       2.709   2.359  -1.274  0.00  0.00    +0.133 A 
BRANCH  26  27
ATOM     27  O   UNL     1       2.378   1.424  -0.348  0.00  0.00    -0.506 OA
ATOM     28  H   UNL     1       3.139   1.016   0.088  0.00  0.00    +0.292 HD
ENDBRANCH  26  27
BRANCH  22  29
ATOM     29  O   UNL     1       3.442   2.617  -4.855  0.00  0.00    -0.506 OA
ATOM     30  H   UNL     1       2.641   2.652  -5.395  0.00  0.00    +0.292 HD
ENDBRANCH  22  29
ENDBRANCH  19  21
BRANCH  18  31
ATOM     31  C   UNL     1       5.123   0.241  -2.498  0.00  0.00    +0.030 C 
ATOM     32  C   UNL     1       6.160  -0.878  -2.612  0.00  0.00    +0.031 C 
ATOM     33  C   UNL     1       5.525   1.403  -3.408  0.00  0.00    +0.031 C 
ATOM     34  C   UNL     1       5.056   0.728  -1.049  0.00  0.00    +0.031 C 
ENDBRANCH  18  31
ENDBRANCH   1  18
TORSDOF 9
