REMARK  Name = ZINC08635572
REMARK  12 active torsions:
REMARK  status: ('A' for Active; 'I' for Inactive)
REMARK    1  A    between atoms: C_1  and  N_69
REMARK    2  A    between atoms: C_2  and  C_3
REMARK    3  A    between atoms: C_2  and  N_69
REMARK    4  A    between atoms: C_3  and  C_4
REMARK    5  A    between atoms: C_10  and  C_11
REMARK    6  A    between atoms: C_10  and  N_69
REMARK    7  A    between atoms: C_19  and  C_21
REMARK    8  A    between atoms: C_21  and  N_22
REMARK    9  A    between atoms: N_22  and  C_23
REMARK   10  A    between atoms: C_23  and  N_25
REMARK   11  A    between atoms: N_25  and  C_26
REMARK   12  A    between atoms: C_29  and  N_32
REMARK                            x       y       z     vdW  Elec       q    Type
REMARK                         _______ _______ _______ _____ _____    ______ ____
ROOT
ATOM      1  C   UNL     1       0.772   1.555  -3.923  0.00  0.00    -0.041 C 
ATOM      2  C   UNL     1       0.447   2.993  -3.511  0.00  0.00    -0.076 C 
ATOM      3  C   UNL     1       0.144   3.645  -5.824  0.00  0.00    -0.078 C 
ATOM      4  C   UNL     1       0.460   2.225  -6.301  0.00  0.00    -0.015 C 
ATOM      5  C   UNL     1       1.430   1.573  -5.308  0.00  0.00    -0.015 C 
ATOM      6  C   UNL     1       2.702   2.427  -5.234  0.00  0.00    -0.010 C 
ATOM      7  C   UNL     1       2.323   3.842  -4.787  0.00  0.00    -0.051 C 
ATOM      8  N   UNL     1       0.865   3.940  -4.567  0.00  0.00    +0.383 N 
ATOM      9  H   UNL     1       0.636   4.895  -4.268  0.00  0.00    -0.081 HD
ENDROOT
BRANCH   1  10
ATOM     10  C   UNL     1       1.734   0.936  -2.906  0.00  0.00    -0.077 C 
BRANCH  10  12
ATOM     11  C   UNL     1      -0.046  -0.136  -1.663  0.00  0.00    -0.096 C 
ATOM     12  N   UNL     1       1.054   0.850  -1.597  0.00  0.00    +0.378 N 
ATOM     13  H   UNL     1       0.663   1.770  -1.363  0.00  0.00    -0.082 HD
BRANCH  12  14
ATOM     14  C   UNL     1       2.021   0.458  -0.550  0.00  0.00    -0.073 C 
BRANCH  14  15
ATOM     15  C   UNL     1       1.349   0.593   0.818  0.00  0.00    +0.037 C 
BRANCH  15  16
ATOM     16  C   UNL     1       2.329   0.218   1.899  0.00  0.00    +0.040 A 
ATOM     17  C   UNL     1       2.598   1.111   2.918  0.00  0.00    +0.023 A 
ATOM     18  C   UNL     1       3.498   0.754   3.910  0.00  0.00    +0.003 A 
ATOM     19  C   UNL     1       4.105  -0.490   3.834  0.00  0.00    +0.020 A 
ATOM     20  C   UNL     1       3.791  -1.329   2.781  0.00  0.00    +0.111 A 
ATOM     21  N   UNL     1       2.926  -0.958   1.858  0.00  0.00    -0.260 NA
ENDBRANCH  15  16
ENDBRANCH  14  15
ENDBRANCH  12  14
ENDBRANCH  10  12
ENDBRANCH   1  10
BRANCH   7  22
ATOM     22  C   UNL     1       3.046   4.175  -3.480  0.00  0.00    +0.088 C 
BRANCH  22  23
ATOM     23  N   UNL     1       2.591   5.478  -2.989  0.00  0.00    -0.328 N 
ATOM     24  H   UNL     1       1.927   5.979  -3.487  0.00  0.00    +0.148 HD
BRANCH  23  25
ATOM     25  C   UNL     1       3.094   5.979  -1.844  0.00  0.00    +0.134 C 
ATOM     26  S   UNL     1       4.266   5.095  -0.964  0.00  0.00    -0.019 S 
BRANCH  25  27
ATOM     27  N   UNL     1       2.675   7.178  -1.391  0.00  0.00    -0.297 N 
ATOM     28  H   UNL     1       2.058   7.707  -1.920  0.00  0.00    +0.154 HD
BRANCH  27  29
ATOM     29  C   UNL     1       3.131   7.659  -0.159  0.00  0.00    +0.033 A 
ATOM     30  C   UNL     1       2.236   8.222   0.742  0.00  0.00    +0.025 A 
ATOM     31  C   UNL     1       2.685   8.693   1.959  0.00  0.00    +0.029 A 
ATOM     32  C   UNL     1       4.034   8.613   2.280  0.00  0.00    +0.065 A 
ATOM     33  C   UNL     1       4.930   8.055   1.378  0.00  0.00    +0.029 A 
ATOM     34  C   UNL     1       4.480   7.579   0.162  0.00  0.00    +0.025 A 
BRANCH  32  35
ATOM     35  N   UNL     1       4.491   9.095   3.515  0.00  0.00    -0.240 N 
ATOM     36  C   UNL     1       3.730   9.659   4.480  0.00  0.00    +0.114 A 
ATOM     37  C   UNL     1       4.546   9.988   5.508  0.00  0.00    +0.041 A 
ATOM     38  C   UNL     1       5.848   9.613   5.161  0.00  0.00    +0.135 A 
ATOM     39  N   UNL     1       5.816   9.073   3.969  0.00  0.00    -0.175 NA
ENDBRANCH  32  35
ENDBRANCH  27  29
ENDBRANCH  25  27
ENDBRANCH  23  25
ENDBRANCH  22  23
ENDBRANCH   7  22
TORSDOF 11
