REMARK  Name = ZINC56792372
REMARK  7 active torsions:
REMARK  status: ('A' for Active; 'I' for Inactive)
REMARK    1  A    between atoms: C_1  and  N_2
REMARK    2  A    between atoms: N_2  and  C_3
REMARK    3  A    between atoms: N_2  and  C_4
REMARK    4  A    between atoms: C_4  and  C_6
REMARK    5  A    between atoms: C_4  and  C_24
REMARK    6  A    between atoms: C_6  and  N_7
REMARK    7  A    between atoms: C_14  and  C_17
REMARK                            x       y       z     vdW  Elec       q    Type
REMARK                         _______ _______ _______ _____ _____    ______ ____
ROOT
ATOM      1  N   UNL     1      -1.701   1.301  -1.406  0.00  0.00    -0.300 N 
ATOM      2  C   UNL     1      -2.076   1.923  -2.541  0.00  0.00    +0.302 C 
ATOM      3  O   UNL     1      -2.727   1.325  -3.376  0.00  0.00    -0.253 OA
ATOM      4  N   UNL     1      -1.729   3.208  -2.751  0.00  0.00    -0.281 N 
ATOM      5  C   UNL     1      -0.847   3.919  -1.812  0.00  0.00    +0.137 C 
ATOM      6  C   UNL     1      -1.509   5.251  -1.440  0.00  0.00    +0.179 C 
ATOM      7  O   UNL     1      -1.859   5.952  -2.636  0.00  0.00    -0.369 OA
ATOM      8  C   UNL     1      -2.816   5.274  -3.453  0.00  0.00    +0.166 C 
ATOM      9  C   UNL     1      -2.217   3.941  -3.931  0.00  0.00    +0.145 C 
ATOM     10  H   UNL     1      -1.244   1.798  -0.709  0.00  0.00    +0.150 HD
ENDROOT
BRANCH   8  11
ATOM     11  C   UNL     1      -3.155   6.129  -4.646  0.00  0.00    -0.017 A 
ATOM     12  C   UNL     1      -2.160   6.835  -5.295  0.00  0.00    +0.007 A 
ATOM     13  C   UNL     1      -2.470   7.620  -6.390  0.00  0.00    +0.020 A 
ATOM     14  C   UNL     1      -3.777   7.699  -6.836  0.00  0.00    +0.041 A 
ATOM     15  C   UNL     1      -4.773   6.992  -6.186  0.00  0.00    +0.020 A 
ATOM     16  C   UNL     1      -4.461   6.203  -5.095  0.00  0.00    +0.007 A 
ATOM     17 CL   UNL     1      -4.168   8.684  -8.211  0.00  0.00    -0.084 Cl
ENDBRANCH   8  11
BRANCH   1  18
ATOM     18  C   UNL     1      -1.983  -0.125  -1.224  0.00  0.00    +0.098 C 
BRANCH  18  19
ATOM     19  C   UNL     1      -1.350  -0.607   0.083  0.00  0.00    +0.016 C 
BRANCH  19  20
ATOM     20  C   UNL     1       0.150  -0.497  -0.015  0.00  0.00    +0.093 A 
ATOM     21  C   UNL     1       0.997  -1.506  -0.287  0.00  0.00    +0.043 A 
ATOM     22  C   UNL     1       2.300  -0.960  -0.280  0.00  0.00    +0.041 A 
ATOM     23  C   UNL     1       2.172   0.351  -0.004  0.00  0.00    +0.195 A 
ATOM     24  O   UNL     1       0.867   0.626   0.150  0.00  0.00    -0.469 OA
ENDBRANCH  19  20
BRANCH  19  26
ATOM     25  C   UNL     1      -3.280   0.038   1.353  0.00  0.00    -0.096 C 
ATOM     26  N   UNL     1      -1.831   0.223   1.195  0.00  0.00    +0.384 N 
ATOM     27  C   UNL     1      -1.149  -0.176   2.434  0.00  0.00    -0.096 C 
ATOM     28  H   UNL     1      -1.635   1.193   1.001  0.00  0.00    -0.082 HD
ENDBRANCH  19  26
ENDBRANCH  18  19
ENDBRANCH   1  18
TORSDOF 5
