REMARK  Name = ZINC39794955
REMARK  2 active torsions:
REMARK  status: ('A' for Active; 'I' for Inactive)
REMARK    1  A    between atoms: C_5  and  C_7
REMARK    2  A    between atoms: C_10  and  C_12
REMARK                            x       y       z     vdW  Elec       q    Type
REMARK                         _______ _______ _______ _____ _____    ______ ____
ROOT
ATOM      1  C   UNL     1       2.351  -5.401  -1.301  0.00  0.00    +0.128 C 
ATOM      2  C   UNL     1       1.939  -5.364  -2.743  0.00  0.00    +0.070 A 
ATOM      3  C   UNL     1       2.799  -4.932  -3.707  0.00  0.00    +0.111 A 
ATOM      4  N   UNL     1       2.391  -4.903  -5.018  0.00  0.00    -0.323 N 
ATOM      5  C   UNL     1       1.149  -5.302  -5.352  0.00  0.00    +0.159 A 
ATOM      6  S   UNL     1       0.662  -5.257  -6.992  0.00  0.00    -0.013 S 
ATOM      7  N   UNL     1       0.286  -5.736  -4.415  0.00  0.00    -0.302 N 
ATOM      8  C   UNL     1       0.647  -5.779  -3.118  0.00  0.00    +0.258 A 
ATOM      9  O   UNL     1      -0.139  -6.174  -2.274  0.00  0.00    -0.267 OA
ATOM     10  N   UNL     1       4.067  -4.530  -3.369  0.00  0.00    -0.304 N 
ATOM     11  C   UNL     1       4.626  -4.909  -2.178  0.00  0.00    +0.017 C 
ATOM     12  C   UNL     1       3.851  -5.339  -1.161  0.00  0.00    +0.027 C 
ATOM     13  C   UNL     1       4.419  -5.743   0.060  0.00  0.00    +0.162 C 
ATOM     14  O   UNL     1       3.694  -6.119   0.959  0.00  0.00    -0.292 OA
ATOM     15  C   UNL     1       5.908  -5.719   0.274  0.00  0.00    +0.080 C 
ATOM     16  C   UNL     1       6.609  -5.915  -1.074  0.00  0.00    +0.014 C 
ATOM     17  C   UNL     1       6.126  -4.828  -2.032  0.00  0.00    +0.051 C 
ATOM     18  H   UNL     1      -0.604  -6.020  -4.676  0.00  0.00    +0.171 HD
ATOM     19  H   UNL     1       4.573  -3.973  -3.980  0.00  0.00    +0.153 HD
ATOM     20  H   UNL     1       3.000  -4.595  -5.707  0.00  0.00    +0.169 HD
ENDROOT
BRANCH   1  24
ATOM     21  C   UNL     1       1.249  -2.160  -0.023  0.00  0.00    +0.137 A 
ATOM     22  C   UNL     1       0.561  -2.976   0.819  0.00  0.00    +0.050 A 
ATOM     23  C   UNL     1       0.881  -4.299   0.454  0.00  0.00    +0.046 A 
ATOM     24  C   UNL     1       1.740  -4.226  -0.582  0.00  0.00    +0.118 A 
ATOM     25  O   UNL     1       1.956  -2.932  -0.871  0.00  0.00    -0.459 OA
BRANCH  21  30
ATOM     26  C   UNL     1      -0.017   1.375   0.010  0.00  0.00    +0.001 A 
ATOM     27  C   UNL     1       1.170   2.087   0.002  0.00  0.00    +0.001 A 
ATOM     28  C   UNL     1       2.383   1.422  -0.013  0.00  0.00    +0.021 A 
ATOM     29  C   UNL     1       2.416   0.041  -0.022  0.00  0.00    +0.052 A 
ATOM     30  C   UNL     1       1.222  -0.683  -0.014  0.00  0.00    +0.036 A 
ATOM     31  C   UNL     1       0.002  -0.004   0.002  0.00  0.00    +0.013 A 
ATOM     32 CL   UNL     1       3.939  -0.792  -0.043  0.00  0.00    -0.083 Cl
ENDBRANCH  21  30
ENDBRANCH   1  24
TORSDOF 2
