REMARK  Name = ZINC13658738
REMARK  18 active torsions:
REMARK  status: ('A' for Active; 'I' for Inactive)
REMARK    1  A    between atoms: C_1  and  N_62
REMARK    2  A    between atoms: C_2  and  N_62
REMARK    3  A    between atoms: C_3  and  C_4
REMARK    4  A    between atoms: C_3  and  N_62
REMARK    5  A    between atoms: C_4  and  C_6
REMARK    6  A    between atoms: C_4  and  O_33
REMARK    7  A    between atoms: C_6  and  O_7
REMARK    8  A    between atoms: O_7  and  C_8
REMARK    9  A    between atoms: C_11  and  S_15
REMARK   10  A    between atoms: S_15  and  C_18
REMARK   11  A    between atoms: C_21  and  O_25
REMARK   12  A    between atoms: O_25  and  C_26
REMARK   13  A    between atoms: C_26  and  C_27
REMARK   14  A    between atoms: C_27  and  C_29
REMARK   15  A    between atoms: C_27  and  O_32
REMARK   16  A    between atoms: C_29  and  N_64
REMARK   17  A    between atoms: C_30  and  N_64
REMARK   18  A    between atoms: C_31  and  N_64
REMARK                            x       y       z     vdW  Elec       q    Type
REMARK                         _______ _______ _______ _____ _____    ______ ____
ROOT
ATOM      1  S   UNL     1       0.465   1.260   0.383  0.00  0.00    +0.025 S 
ATOM      2  O   UNL     1       0.698  -0.135   0.527  0.00  0.00    -0.164 OA
ATOM      3  O   UNL     1       1.522   2.200   0.252  0.00  0.00    -0.164 OA
ENDROOT
BRANCH   1   7
ATOM      4  C   UNL     1      -2.171   1.758  -3.267  0.00  0.00    +0.139 A 
ATOM      5  C   UNL     1      -2.163   0.556  -2.574  0.00  0.00    +0.049 A 
ATOM      6  C   UNL     1      -1.355   0.405  -1.464  0.00  0.00    +0.031 A 
ATOM      7  C   UNL     1      -0.561   1.454  -1.037  0.00  0.00    +0.095 A 
ATOM      8  C   UNL     1      -0.567   2.653  -1.725  0.00  0.00    +0.051 A 
ATOM      9  C   UNL     1      -1.370   2.808  -2.840  0.00  0.00    +0.084 A 
ATOM     10 CL   UNL     1      -1.376   4.313  -3.705  0.00  0.00    -0.080 Cl
BRANCH   4  11
ATOM     11  O   UNL     1      -2.962   1.907  -4.362  0.00  0.00    -0.488 OA
BRANCH  11  12
ATOM     12  C   UNL     1      -3.760   0.784  -4.744  0.00  0.00    +0.258 C 
BRANCH  12  13
ATOM     13  C   UNL     1      -4.576   1.139  -5.989  0.00  0.00    +0.135 C 
BRANCH  13  14
ATOM     14  O   UNL     1      -5.508   2.173  -5.668  0.00  0.00    -0.390 OA
ATOM     15  H   UNL     1      -6.137   1.935  -4.973  0.00  0.00    +0.210 HD
ENDBRANCH  13  14
BRANCH  13  16
ATOM     16  C   UNL     1      -5.335  -0.100  -6.470  0.00  0.00    -0.045 C 
BRANCH  16  19
ATOM     17  C   UNL     1      -5.058   0.467  -8.808  0.00  0.00    -0.096 C 
ATOM     18  C   UNL     1      -6.949  -0.872  -8.102  0.00  0.00    -0.096 C 
ATOM     19  N   UNL     1      -6.039   0.231  -7.727  0.00  0.00    +0.378 N 
ATOM     20  H   UNL     1      -6.591   1.085  -7.585  0.00  0.00    -0.083 HD
ENDBRANCH  16  19
ENDBRANCH  13  16
ENDBRANCH  12  13
ENDBRANCH  11  12
ENDBRANCH   4  11
ENDBRANCH   1   7
BRANCH   1  21
ATOM     21  C   UNL     1      -0.483   1.758   1.782  0.00  0.00    +0.095 A 
ATOM     22  C   UNL     1      -0.453   3.076   2.201  0.00  0.00    +0.031 A 
ATOM     23  C   UNL     1      -1.200   3.471   3.295  0.00  0.00    +0.049 A 
ATOM     24  C   UNL     1      -1.970   2.543   3.979  0.00  0.00    +0.139 A 
ATOM     25  C   UNL     1      -1.994   1.220   3.560  0.00  0.00    +0.084 A 
ATOM     26  C   UNL     1      -1.250   0.831   2.462  0.00  0.00    +0.051 A 
ATOM     27 CL   UNL     1      -2.957   0.055   4.415  0.00  0.00    -0.080 Cl
BRANCH  24  28
ATOM     28  O   UNL     1      -2.700   2.929   5.059  0.00  0.00    -0.488 OA
BRANCH  28  29
ATOM     29  C   UNL     1      -2.628   4.306   5.433  0.00  0.00    +0.258 C 
BRANCH  29  30
ATOM     30  C   UNL     1      -3.509   4.549   6.660  0.00  0.00    +0.135 C 
BRANCH  30  31
ATOM     31  O   UNL     1      -2.982   3.826   7.775  0.00  0.00    -0.390 OA
ATOM     32  H   UNL     1      -2.081   4.078   8.017  0.00  0.00    +0.210 HD
ENDBRANCH  30  31
BRANCH  30  33
ATOM     33  C   UNL     1      -3.530   6.043   6.986  0.00  0.00    -0.045 C 
BRANCH  33  36
ATOM     34  C   UNL     1      -4.172   7.612   8.714  0.00  0.00    -0.096 C 
ATOM     35  C   UNL     1      -5.819   6.107   7.774  0.00  0.00    -0.096 C 
ATOM     36  N   UNL     1      -4.400   6.261   8.161  0.00  0.00    +0.378 N 
ATOM     37  H   UNL     1      -4.172   5.564   8.878  0.00  0.00    -0.083 HD
ENDBRANCH  33  36
ENDBRANCH  30  33
ENDBRANCH  29  30
ENDBRANCH  28  29
ENDBRANCH  24  28
ENDBRANCH   1  21
TORSDOF 14
