REMARK  Name = ZINC18169455
REMARK  2 active torsions:
REMARK  status: ('A' for Active; 'I' for Inactive)
REMARK    1  A    between atoms: C_11  and  C_16
REMARK    2  A    between atoms: N_20  and  C_23
REMARK                            x       y       z     vdW  Elec       q    Type
REMARK                         _______ _______ _______ _____ _____    ______ ____
ROOT
ATOM      1  C   UNL     1       5.100  -2.673   0.866  0.00  0.00    +0.073 A 
ATOM      2  C   UNL     1       6.170  -3.399   0.432  0.00  0.00    +0.260 A 
ATOM      3  N   UNL     1       7.013  -3.973   1.350  0.00  0.00    -0.274 N 
ATOM      4  C   UNL     1       6.789  -3.823   2.668  0.00  0.00    +0.337 A 
ATOM      5  N   UNL     1       5.739  -3.111   3.116  0.00  0.00    -0.229 N 
ATOM      6  C   UNL     1       4.889  -2.526   2.248  0.00  0.00    +0.267 A 
ATOM      7  O   UNL     1       3.942  -1.878   2.659  0.00  0.00    -0.267 OA
ATOM      8  O   UNL     1       7.547  -4.339   3.466  0.00  0.00    -0.246 OA
ATOM      9  O   UNL     1       6.397  -3.551  -0.890  0.00  0.00    -0.267 OA
ATOM     10  H   UNL     1       7.775  -4.490   1.046  0.00  0.00    +0.173 HD
ENDROOT
BRANCH   1  21
ATOM     11  C   UNL     1       3.738   4.024   0.312  0.00  0.00    +0.001 A 
ATOM     12  C   UNL     1       5.120   3.951   0.414  0.00  0.00    +0.002 A 
ATOM     13  C   UNL     1       5.764   2.734   0.369  0.00  0.00    +0.026 A 
ATOM     14  C   UNL     1       5.025   1.565   0.220  0.00  0.00    +0.047 A 
ATOM     15  C   UNL     1       3.622   1.643   0.117  0.00  0.00    +0.003 A 
ATOM     16  C   UNL     1       2.992   2.889   0.165  0.00  0.00    +0.010 A 
ATOM     17  C   UNL     1       3.159   0.270  -0.027  0.00  0.00    -0.022 A 
ATOM     18  C   UNL     1       4.246  -0.529  -0.003  0.00  0.00    +0.011 A 
ATOM     19  N   UNL     1       5.368   0.232   0.143  0.00  0.00    -0.359 N 
ATOM     20  H   UNL     1       6.274  -0.114   0.186  0.00  0.00    +0.166 HD
ATOM     21  C   UNL     1       4.160  -2.033  -0.122  0.00  0.00    +0.018 C 
ATOM     22  N   UNL     1       2.777  -2.446   0.166  0.00  0.00    +0.388 N 
ATOM     23  C   UNL     1       1.836  -1.696  -0.676  0.00  0.00    -0.076 C 
ATOM     24  C   UNL     1       1.751  -0.245  -0.182  0.00  0.00    +0.018 C 
ATOM     25  H   UNL     1       2.678  -3.433  -0.020  0.00  0.00    -0.084 HD
ATOM     26  H   UNL     1       2.571  -2.269   1.137  0.00  0.00    -0.084 HD
ENDBRANCH   1  21
BRANCH   5  27
ATOM     27  C   UNL     1       5.529  -2.973   4.495  0.00  0.00    +0.055 A 
ATOM     28  C   UNL     1       4.751  -3.899   5.177  0.00  0.00    +0.029 A 
ATOM     29  C   UNL     1       4.546  -3.761   6.536  0.00  0.00    +0.040 A 
ATOM     30  C   UNL     1       5.117  -2.700   7.218  0.00  0.00    +0.124 A 
ATOM     31  C   UNL     1       5.894  -1.775   6.540  0.00  0.00    +0.040 A 
ATOM     32  C   UNL     1       6.105  -1.913   5.183  0.00  0.00    +0.029 A 
ATOM     33  F   UNL     1       4.916  -2.567   8.548  0.00  0.00    -0.205 F 
ENDBRANCH   5  27
TORSDOF 2
