REMARK  Name = ZINC31556710
REMARK  5 active torsions:
REMARK  status: ('A' for Active; 'I' for Inactive)
REMARK    1  A    between atoms: C_1  and  C_2
REMARK    2  A    between atoms: C_3  and  C_14
REMARK    3  A    between atoms: N_6  and  C_7
REMARK    4  A    between atoms: C_14  and  C_16
REMARK    5  A    between atoms: C_14  and  N_17
REMARK                            x       y       z     vdW  Elec       q    Type
REMARK                         _______ _______ _______ _____ _____    ______ ____
ROOT
ATOM      1  C   UNL     1       3.623   0.684  -0.158  0.00  0.00    +0.066 C 
ATOM      2  C   UNL     1       2.119   0.673  -0.070  0.00  0.00    +0.047 A 
ATOM      3  C   UNL     1       1.340  -0.413   0.141  0.00  0.00    +0.013 A 
ATOM      4  C   UNL     1       0.006   0.009   0.152  0.00  0.00    +0.140 A 
ATOM      5  N   UNL     1      -0.016   1.302  -0.046  0.00  0.00    -0.174 NA
ATOM      6  N   UNL     1       1.305   1.746  -0.189  0.00  0.00    -0.237 N 
ENDROOT
BRANCH   6   7
ATOM      7  C   UNL     1       1.711   3.069  -0.415  0.00  0.00    +0.066 A 
ATOM      8  C   UNL     1       1.102   4.111   0.271  0.00  0.00    +0.030 A 
ATOM      9  C   UNL     1       1.507   5.412   0.050  0.00  0.00    +0.040 A 
ATOM     10  C   UNL     1       2.513   5.680  -0.864  0.00  0.00    +0.124 A 
ATOM     11  C   UNL     1       3.118   4.643  -1.553  0.00  0.00    +0.040 A 
ATOM     12  C   UNL     1       2.719   3.339  -1.331  0.00  0.00    +0.030 A 
ATOM     13  F   UNL     1       2.904   6.954  -1.083  0.00  0.00    -0.205 F 
ENDBRANCH   6   7
BRANCH   3  14
ATOM     14  C   UNL     1       1.823  -1.828   0.331  0.00  0.00    +0.102 C 
ATOM     15  C   UNL     1       2.144  -2.445  -1.032  0.00  0.00    +0.033 C 
BRANCH  14  16
ATOM     16  N   UNL     1       0.780  -2.617   0.990  0.00  0.00    -0.321 N 
ATOM     17  C   UNL     1       1.123  -3.743   1.730  0.00  0.00    +0.142 A 
ATOM     18  C   UNL     1       2.473  -4.122   1.835  0.00  0.00    +0.049 A 
ATOM     19  C   UNL     1       2.820  -5.220   2.559  0.00  0.00    +0.055 A 
ATOM     20  C   UNL     1       1.811  -5.971   3.189  0.00  0.00    +0.200 A 
ATOM     21  N   UNL     1       1.809  -7.062   3.943  0.00  0.00    -0.107 NA
ATOM     22  N   UNL     1       0.607  -7.363   4.284  0.00  0.00    -0.021 NA
ATOM     23  N   UNL     1      -0.235  -6.517   3.793  0.00  0.00    -0.021 NA
ATOM     24  N   UNL     1       0.506  -5.579   3.064  0.00  0.00    -0.108 N 
ATOM     25  N   UNL     1       0.180  -4.446   2.319  0.00  0.00    -0.131 NA
ATOM     26  H   UNL     1      -0.275  -2.317   0.901  0.00  0.00    +0.148 HD
ENDBRANCH  14  16
ENDBRANCH   3  14
TORSDOF 3
