REMARK  Name = ZINC39980727
REMARK  7 active torsions:
REMARK  status: ('A' for Active; 'I' for Inactive)
REMARK    1  A    between atoms: C_1  and  C_2
REMARK    2  A    between atoms: C_8  and  C_20
REMARK    3  A    between atoms: C_10  and  N_13
REMARK    4  A    between atoms: N_13  and  C_14
REMARK    5  A    between atoms: C_14  and  C_15
REMARK    6  A    between atoms: C_26  and  O_32
REMARK    7  A    between atoms: O_32  and  C_33
REMARK                            x       y       z     vdW  Elec       q    Type
REMARK                         _______ _______ _______ _____ _____    ______ ____
ROOT
ATOM      1  C   UNL     1      -0.113   1.622   0.106  0.00  0.00    +0.061 C 
ATOM      2  C   UNL     1      -0.085   0.117   0.024  0.00  0.00    +0.011 C 
ATOM      3  C   UNL     1      -0.219  -0.485  -1.175  0.00  0.00    +0.019 C 
ATOM      4  C   UNL     1      -0.194  -1.888  -1.263  0.00  0.00    +0.005 C 
ATOM      5  C   UNL     1      -0.034  -2.631  -0.141  0.00  0.00    +0.043 C 
ATOM      6  C   UNL     1       0.107  -1.985   1.120  0.00  0.00    +0.122 C 
ATOM      7  N   UNL     1       0.271  -2.536   2.304  0.00  0.00    -0.261 NA
ATOM      8  C   UNL     1       0.375  -1.502   3.338  0.00  0.00    +0.158 C 
ATOM      9  C   UNL     1       0.243  -0.179   2.561  0.00  0.00    +0.174 C 
ATOM     10  N   UNL     1       0.083  -0.615   1.163  0.00  0.00    -0.271 N 
ENDROOT
BRANCH   8  11
ATOM     11  C   UNL     1      -0.760  -1.645   4.355  0.00  0.00    +0.126 C 
ATOM     12  C   UNL     1      -0.501  -2.898   5.168  0.00  0.00    -0.003 C 
ATOM     13  C   UNL     1      -1.466  -3.857   5.162  0.00  0.00    -0.007 A 
ATOM     14  C   UNL     1      -1.292  -5.097   5.922  0.00  0.00    +0.013 A 
ATOM     15  C   UNL     1      -2.274  -6.030   5.893  0.00  0.00    +0.046 A 
ATOM     16  C   UNL     1      -3.448  -5.829   5.152  0.00  0.00    +0.122 A 
ATOM     17  C   UNL     1      -3.668  -4.684   4.419  0.00  0.00    +0.069 A 
ATOM     18  C   UNL     1      -2.707  -3.665   4.389  0.00  0.00    +0.044 A 
ATOM     19  N   UNL     1      -2.930  -2.560   3.674  0.00  0.00    -0.284 N 
ATOM     20  C   UNL     1      -2.069  -1.561   3.603  0.00  0.00    +0.226 C 
ATOM     21  O   UNL     1      -2.329  -0.578   2.936  0.00  0.00    -0.275 OA
ATOM     22  H   UNL     1      -3.764  -2.487   3.184  0.00  0.00    +0.155 HD
BRANCH  16  23
ATOM     23  O   UNL     1      -4.398  -6.794   5.158  0.00  0.00    -0.495 OA
ATOM     24  C   UNL     1      -4.128  -7.965   5.933  0.00  0.00    +0.277 C 
ENDBRANCH  16  23
ENDBRANCH   8  11
BRANCH   9  25
ATOM     25  N   UNL     1       1.457   0.633   2.712  0.00  0.00    -0.289 NA
ATOM     26  H   UNL     1       2.070   0.241   3.412  0.00  0.00    +0.124 HD
BRANCH  25  27
ATOM     27  C   UNL     1       1.122   2.028   3.029  0.00  0.00    +0.157 C 
BRANCH  27  28
ATOM     28  C   UNL     1       2.382   2.854   3.056  0.00  0.00    +0.119 A 
ATOM     29  C   UNL     1       2.920   3.502   2.008  0.00  0.00    +0.046 A 
ATOM     30  C   UNL     1       4.089   4.144   2.480  0.00  0.00    +0.041 A 
ATOM     31  C   UNL     1       4.194   3.849   3.788  0.00  0.00    +0.195 A 
ATOM     32  O   UNL     1       3.154   3.072   4.133  0.00  0.00    -0.467 OA
ENDBRANCH  27  28
ENDBRANCH  25  27
ENDBRANCH   9  25
TORSDOF 5
