REMARK  Name = ZINC58421649
REMARK  3 active torsions:
REMARK  status: ('A' for Active; 'I' for Inactive)
REMARK    1  A    between atoms: C_4  and  C_7
REMARK    2  A    between atoms: C_13  and  C_15
REMARK    3  A    between atoms: C_15  and  C_16
REMARK                            x       y       z     vdW  Elec       q    Type
REMARK                         _______ _______ _______ _____ _____    ______ ____
ROOT
ATOM      1  C   UNL     1       3.699  -0.689  -0.038  0.00  0.00    +0.170 A 
ATOM      2  N   UNL     1       3.744  -2.010  -0.051  0.00  0.00    -0.204 NA
ATOM      3  C   UNL     1       4.933  -2.582  -0.066  0.00  0.00    +0.185 A 
ATOM      4  S   UNL     1       5.977  -1.266  -0.063  0.00  0.00    +0.050 S 
ATOM      5  N   UNL     1       4.842  -0.033  -0.047  0.00  0.00    -0.187 NA
ATOM      6  N   UNL     1       5.244  -3.934  -0.081  0.00  0.00    -0.263 N 
ATOM      7  C   UNL     1       6.532  -4.330  -0.096  0.00  0.00    +0.220 C 
ATOM      8  O   UNL     1       7.420  -3.504  -0.096  0.00  0.00    -0.275 OA
ATOM      9  H   UNL     1       4.534  -4.595  -0.081  0.00  0.00    +0.157 HD
ENDROOT
BRANCH   1  13
ATOM     10  C   UNL     1      -0.017   1.379   0.010  0.00  0.00    +0.000 A 
ATOM     11  C   UNL     1       1.169   2.092   0.002  0.00  0.00    +0.001 A 
ATOM     12  C   UNL     1       2.377   1.426  -0.013  0.00  0.00    +0.011 A 
ATOM     13  C   UNL     1       2.402   0.033  -0.021  0.00  0.00    +0.020 A 
ATOM     14  C   UNL     1       1.205  -0.680  -0.013  0.00  0.00    +0.011 A 
ATOM     15  C   UNL     1       0.002  -0.004   0.002  0.00  0.00    +0.001 A 
ENDBRANCH   1  13
BRANCH   7  16
ATOM     16  C   UNL     1       6.870  -5.799  -0.112  0.00  0.00    +0.113 C 
BRANCH  16  17
ATOM     17  C   UNL     1       8.390  -5.973  -0.126  0.00  0.00    +0.116 C 
ATOM     18  C   UNL     1       8.754  -7.436  -0.219  0.00  0.00    -0.014 A 
ATOM     19  C   UNL     1       8.508  -8.404  -1.167  0.00  0.00    +0.006 A 
ATOM     20  C   UNL     1       8.979  -9.692  -0.976  0.00  0.00    +0.000 A 
ATOM     21  C   UNL     1       9.694 -10.001   0.166  0.00  0.00    +0.002 A 
ATOM     22  C   UNL     1       9.942  -9.033   1.117  0.00  0.00    +0.023 A 
ATOM     23  C   UNL     1       9.472  -7.734   0.932  0.00  0.00    +0.037 A 
ATOM     24  N   UNL     1       9.590  -6.598   1.734  0.00  0.00    -0.285 N 
ATOM     25  C   UNL     1       8.988  -5.524   1.190  0.00  0.00    +0.225 C 
ATOM     26  O   UNL     1       8.934  -4.408   1.663  0.00  0.00    -0.275 OA
ATOM     27  H   UNL     1      10.054  -6.584   2.586  0.00  0.00    +0.155 HD
ENDBRANCH  16  17
ENDBRANCH   7  16
TORSDOF 3
