REMARK  Name = ZINC66795711
REMARK  9 active torsions:
REMARK  status: ('A' for Active; 'I' for Inactive)
REMARK    1  A    between atoms: C_1  and  C_2
REMARK    2  A    between atoms: C_3  and  C_7
REMARK    3  A    between atoms: N_9  and  C_10
REMARK    4  A    between atoms: N_13  and  C_16
REMARK    5  A    between atoms: C_16  and  N_17
REMARK    6  A    between atoms: C_21  and  C_23
REMARK    7  A    between atoms: C_23  and  C_24
REMARK    8  A    between atoms: C_23  and  C_25
REMARK    9  A    between atoms: C_23  and  C_26
REMARK                            x       y       z     vdW  Elec       q    Type
REMARK                         _______ _______ _______ _____ _____    ______ ____
ROOT
ATOM      1  C   UNL     1      -4.888  -0.928   0.021  0.00  0.00    +0.070 C 
ATOM      2  C   UNL     1      -5.340  -0.682   1.463  0.00  0.00    +0.004 C 
ATOM      3  C   UNL     1      -6.830  -0.333   1.473  0.00  0.00    -0.074 C 
ATOM      4  N   UNL     1      -7.600  -1.443   0.899  0.00  0.00    +0.393 N 
ATOM      5  C   UNL     1      -7.223  -1.637  -0.506  0.00  0.00    -0.074 C 
ATOM      6  C   UNL     1      -5.749  -2.037  -0.591  0.00  0.00    +0.004 C 
ATOM      7  H   UNL     1      -7.409  -2.287   1.418  0.00  0.00    -0.079 HD
ENDROOT
BRANCH   1  10
ATOM      8  C   UNL     1      -2.508  -0.405   0.012  0.00  0.00    +0.248 C 
ATOM      9  O   UNL     1      -2.798   0.776   0.021  0.00  0.00    -0.270 OA
ATOM     10  N   UNL     1      -3.482  -1.337   0.011  0.00  0.00    -0.309 N 
ATOM     11  H   UNL     1      -3.251  -2.280   0.005  0.00  0.00    +0.149 HD
BRANCH   8  14
ATOM     12  C   UNL     1      -0.018   1.503   0.010  0.00  0.00    +0.087 C 
ATOM     13  C   UNL     1       0.002  -0.004   0.002  0.00  0.00    +0.114 A 
ATOM     14  C   UNL     1      -1.093  -0.817   0.003  0.00  0.00    +0.077 A 
ATOM     15  C   UNL     1      -0.567  -2.190  -0.008  0.00  0.00    +0.054 A 
ATOM     16  C   UNL     1       0.769  -2.073  -0.014  0.00  0.00    +0.196 A 
ATOM     17  O   UNL     1       1.097  -0.771  -0.013  0.00  0.00    -0.467 OA
ENDBRANCH   8  14
ENDBRANCH   1  10
BRANCH   4  18
ATOM     18  C   UNL     1      -9.035  -1.135   0.982  0.00  0.00    +0.073 C 
BRANCH  18  19
ATOM     19  N   UNL     1      -9.809  -2.290   0.520  0.00  0.00    -0.240 N 
ATOM     20  C   UNL     1     -10.444  -2.413  -0.665  0.00  0.00    +0.265 A 
ATOM     21  S   UNL     1     -10.494  -1.245  -1.916  0.00  0.00    +0.011 S 
ATOM     22  O   UNL     1     -11.027  -3.624  -0.681  0.00  0.00    -0.416 OA
ATOM     23  C   UNL     1     -10.761  -4.251   0.482  0.00  0.00    +0.221 A 
ATOM     24  N   UNL     1     -10.029  -3.485   1.222  0.00  0.00    -0.135 NA
BRANCH  23  25
ATOM     25  C   UNL     1     -11.235  -5.631   0.857  0.00  0.00    +0.040 C 
ATOM     26  C   UNL     1     -10.724  -5.983   2.255  0.00  0.00    +0.020 C 
ATOM     27  C   UNL     1     -12.765  -5.664   0.850  0.00  0.00    +0.020 C 
ATOM     28  C   UNL     1     -10.699  -6.647  -0.153  0.00  0.00    +0.020 C 
ENDBRANCH  23  25
ENDBRANCH  18  19
ENDBRANCH   4  18
TORSDOF 5
