REMARK  Name = ZINC05296792
REMARK  4 active torsions:
REMARK  status: ('A' for Active; 'I' for Inactive)
REMARK    1  A    between atoms: C_1  and  C_2
REMARK    2  A    between atoms: C_2  and  N_10
REMARK    3  A    between atoms: N_10  and  N_11
REMARK    4  A    between atoms: C_12  and  C_14
REMARK                            x       y       z     vdW  Elec       q    Type
REMARK                         _______ _______ _______ _____ _____    ______ ____
ROOT
ATOM      1  N   UNL     1      -0.076  -1.911  -1.472  0.00  0.00    -0.231 N 
ATOM      2  C   UNL     1       0.015  -2.444  -2.707  0.00  0.00    +0.278 C 
ATOM      3  O   UNL     1       0.164  -1.720  -3.672  0.00  0.00    -0.267 OA
ATOM      4  H   UNL     1      -0.195  -2.489  -0.702  0.00  0.00    +0.173 HD
ENDROOT
BRANCH   2   5
ATOM      5  C   UNL     1      -0.066  -3.903  -2.886  0.00  0.00    +0.125 A 
ATOM      6  C   UNL     1       0.014  -4.589  -4.062  0.00  0.00    +0.010 A 
ATOM      7  C   UNL     1      -0.103  -5.959  -3.714  0.00  0.00    +0.097 A 
ATOM      8  N   UNL     1      -0.257  -6.027  -2.425  0.00  0.00    -0.173 NA
ATOM      9  N   UNL     1      -0.231  -4.847  -1.903  0.00  0.00    -0.272 N 
ATOM     10  H   UNL     1      -0.318  -4.655  -0.957  0.00  0.00    +0.189 HD
ATOM     11  C   UNL     1      -0.020  -6.996  -4.770  0.00  0.00    +0.006 A 
ATOM     12  C   UNL     1      -0.388  -8.312  -4.535  0.00  0.00    +0.010 A 
ATOM     13  C   UNL     1      -0.327  -9.232  -5.564  0.00  0.00    +0.001 A 
ATOM     14  C   UNL     1       0.097  -8.834  -6.819  0.00  0.00    +0.000 A 
ATOM     15  C   UNL     1       0.478  -7.527  -7.051  0.00  0.00    +0.004 A 
ATOM     16  C   UNL     1       0.441  -6.596  -6.028  0.00  0.00    -0.038 A 
ATOM     17  C   UNL     1       0.946  -5.202  -6.272  0.00  0.00    +0.040 C 
ATOM     18  C   UNL     1       0.180  -4.141  -5.485  0.00  0.00    +0.044 C 
ENDBRANCH   2   5
BRANCH   1  19
ATOM     19  N   UNL     1       0.001  -0.523  -1.301  0.00  0.00    -0.268 N 
ATOM     20  H   UNL     1       0.043   0.059  -2.076  0.00  0.00    +0.170 HD
BRANCH  19  22
ATOM     21  C   UNL     1       0.074  -0.906   1.136  0.00  0.00    +0.062 C 
ATOM     22  C   UNL     1       0.015   0.001  -0.067  0.00  0.00    +0.026 C 
ATOM     23  C   UNL     1      -0.024   1.389   0.105  0.00  0.00    -0.007 C 
ATOM     24  C   UNL     1       0.035   2.243  -1.019  0.00  0.00    +0.013 C 
ATOM     25  C   UNL     1      -0.003   3.589  -0.850  0.00  0.00    +0.051 C 
ATOM     26  C   UNL     1      -0.103   4.134   0.444  0.00  0.00    +0.179 C 
ATOM     27  O   UNL     1      -0.137   5.349   0.594  0.00  0.00    -0.288 OA
ATOM     28  C   UNL     1      -0.163   3.286   1.566  0.00  0.00    +0.051 C 
ATOM     29  C   UNL     1      -0.130   1.939   1.401  0.00  0.00    +0.013 C 
ENDBRANCH  19  22
ENDBRANCH   1  19
TORSDOF 3
