REMARK  Name = ZINC63270723
REMARK  7 active torsions:
REMARK  status: ('A' for Active; 'I' for Inactive)
REMARK    1  A    between atoms: C_1  and  C_2
REMARK    2  A    between atoms: C_2  and  C_4
REMARK    3  A    between atoms: C_2  and  N_14
REMARK    4  A    between atoms: C_4  and  C_5
REMARK    5  A    between atoms: C_15  and  C_17
REMARK    6  A    between atoms: C_17  and  O_18
REMARK    7  A    between atoms: O_18  and  C_19
REMARK                            x       y       z     vdW  Elec       q    Type
REMARK                         _______ _______ _______ _____ _____    ______ ____
ROOT
ATOM      1  N   UNL     1      -1.372  -0.511   0.012  0.00  0.00    -0.310 N 
ATOM      2  C   UNL     1      -2.051  -0.643  -1.145  0.00  0.00    +0.251 C 
ATOM      3  O   UNL     1      -1.524  -0.341  -2.194  0.00  0.00    -0.272 OA
ATOM      4  H   UNL     1      -1.794  -0.752   0.852  0.00  0.00    +0.149 HD
ENDROOT
BRANCH   1   6
ATOM      5  C   UNL     1      -0.019   1.526   0.010  0.00  0.00    +0.028 C 
ATOM      6  C   UNL     1       0.002  -0.004   0.002  0.00  0.00    +0.074 C 
BRANCH   6   7
ATOM      7  C   UNL     1       0.742  -0.511   1.242  0.00  0.00    +0.055 C 
BRANCH   7   8
ATOM      8  C   UNL     1       0.870  -2.011   1.172  0.00  0.00    -0.040 C 
ATOM      9  C   UNL     1       1.925  -2.716   0.704  0.00  0.00    -0.001 A 
ATOM     10  C   UNL     1       3.219  -2.313   0.141  0.00  0.00    +0.010 A 
ATOM     11  C   UNL     1       4.091  -3.271  -0.250  0.00  0.00    +0.001 A 
ATOM     12  C   UNL     1       3.790  -4.635  -0.131  0.00  0.00    +0.002 A 
ATOM     13  C   UNL     1       2.622  -5.082   0.377  0.00  0.00    +0.026 A 
ATOM     14  C   UNL     1       1.632  -4.163   0.820  0.00  0.00    +0.043 A 
ATOM     15  N   UNL     1       0.442  -4.344   1.339  0.00  0.00    -0.380 N 
ATOM     16  C   UNL     1      -0.153  -3.032   1.617  0.00  0.00    +0.144 C 
ATOM     17  H   UNL     1       0.025  -5.203   1.513  0.00  0.00    +0.160 HD
ENDBRANCH   7   8
ENDBRANCH   6   7
ENDBRANCH   1   6
BRANCH   2  18
ATOM     18  C   UNL     1      -3.465  -1.164  -1.134  0.00  0.00    +0.324 C 
BRANCH  18  19
ATOM     19  O   UNL     1      -3.965  -1.212  -2.472  0.00  0.00    -0.483 OA
BRANCH  19  20
ATOM     20  C   UNL     1      -5.237  -1.663  -2.639  0.00  0.00    +0.122 A 
ATOM     21  C   UNL     1      -5.987  -2.046  -1.533  0.00  0.00    +0.047 A 
ATOM     22  C   UNL     1      -7.278  -2.510  -1.688  0.00  0.00    +0.027 A 
ATOM     23  C   UNL     1      -7.835  -2.593  -2.955  0.00  0.00    +0.041 A 
ATOM     24  C   UNL     1      -7.083  -2.200  -4.075  0.00  0.00    +0.061 A 
ATOM     25  C   UNL     1      -5.781  -1.733  -3.910  0.00  0.00    +0.060 A 
ATOM     26  C   UNL     1      -7.702  -2.275  -5.415  0.00  0.00    +0.250 C 
ATOM     27  O   UNL     1      -7.054  -2.083  -6.426  0.00  0.00    -0.270 OA
ATOM     28  N   UNL     1      -9.021  -2.568  -5.467  0.00  0.00    -0.279 N 
ATOM     29  C   UNL     1      -9.801  -2.963  -6.642  0.00  0.00    +0.110 C 
ATOM     30  C   UNL     1     -11.227  -3.298  -6.150  0.00  0.00    +0.022 C 
ATOM     31  C   UNL     1     -11.018  -3.586  -4.638  0.00  0.00    +0.044 C 
ATOM     32  C   UNL     1      -9.906  -2.572  -4.283  0.00  0.00    +0.161 C 
ATOM     33  N   UNL     1      -9.135  -3.068  -3.136  0.00  0.00    -0.325 N 
ATOM     34  H   UNL     1      -9.519  -3.711  -2.519  0.00  0.00    +0.148 HD
ENDBRANCH  19  20
ENDBRANCH  18  19
ENDBRANCH   2  18
TORSDOF 6
