REMARK  Name = ZINC65248078
REMARK  5 active torsions:
REMARK  status: ('A' for Active; 'I' for Inactive)
REMARK    1  A    between atoms: C_1  and  C_2
REMARK    2  A    between atoms: C_5  and  N_8
REMARK    3  A    between atoms: C_9  and  C_11
REMARK    4  A    between atoms: C_11  and  C_12
REMARK    5  A    between atoms: C_22  and  C_25
REMARK                            x       y       z     vdW  Elec       q    Type
REMARK                         _______ _______ _______ _____ _____    ______ ____
ROOT
ATOM      1  C   UNL     1       0.424  -6.867   2.557  0.00  0.00    +0.218 C 
ATOM      2  N   UNL     1       1.623  -6.300   3.198  0.00  0.00    -0.174 NA
ATOM      3  N   UNL     1       2.714  -6.874   3.224  0.00  0.00    -0.082 NA
ATOM      4  C   UNL     1       2.949  -8.075   2.640  0.00  0.00    +0.272 C 
ATOM      5  O   UNL     1       4.004  -8.649   2.774  0.00  0.00    -0.270 OA
ATOM      6  C   UNL     1       1.834  -8.655   1.820  0.00  0.00    +0.166 C 
ATOM      7  N   UNL     1       0.578  -8.308   2.550  0.00  0.00    -0.204 NA
ATOM      8  N   UNL     1      -0.440  -9.155   1.991  0.00  0.00    -0.243 NA
ATOM      9  C   UNL     1       0.231 -10.423   1.592  0.00  0.00    +0.108 C 
ATOM     10  C   UNL     1       1.769 -10.192   1.821  0.00  0.00    +0.055 C 
ATOM     11  H   UNL     1      -1.174  -9.330   2.662  0.00  0.00    +0.142 HD
ENDROOT
BRANCH   9  12
ATOM     12  C   UNL     1      -0.270 -11.565   2.438  0.00  0.00    +0.008 A 
ATOM     13  C   UNL     1      -0.528 -12.846   2.077  0.00  0.00    +0.013 A 
ATOM     14  C   UNL     1      -0.985 -13.733   3.033  0.00  0.00    +0.008 A 
ATOM     15  C   UNL     1      -1.162 -13.296   4.304  0.00  0.00    +0.045 A 
ATOM     16  S   UNL     1      -0.669 -11.585   4.178  0.00  0.00    -0.100 S 
ENDBRANCH   9  12
BRANCH   1  17
ATOM     17  C   UNL     1       0.309  -6.349   1.121  0.00  0.00    +0.141 C 
BRANCH  17  19
ATOM     18  N   UNL     1       0.059  -4.170  -0.021  0.00  0.00    -0.285 N 
ATOM     19  C   UNL     1       0.175  -4.848   1.138  0.00  0.00    +0.221 C 
ATOM     20  O   UNL     1       0.173  -4.251   2.193  0.00  0.00    -0.275 OA
ATOM     21  H   UNL     1      -0.017  -4.651  -0.860  0.00  0.00    +0.155 HD
BRANCH  18  26
ATOM     22  C   UNL     1       0.008   1.503   0.007  0.00  0.00    +0.044 C 
ATOM     23  C   UNL     1       0.022  -0.004  -0.001  0.00  0.00    -0.050 A 
ATOM     24  C   UNL     1       0.777  -0.692   0.931  0.00  0.00    +0.005 A 
ATOM     25  C   UNL     1       0.791  -2.073   0.927  0.00  0.00    +0.023 A 
ATOM     26  C   UNL     1       0.046  -2.771  -0.014  0.00  0.00    +0.033 A 
ATOM     27  C   UNL     1      -0.712  -2.077  -0.948  0.00  0.00    +0.023 A 
ATOM     28  C   UNL     1      -0.726  -0.696  -0.936  0.00  0.00    +0.005 A 
ENDBRANCH  18  26
ENDBRANCH  17  19
ENDBRANCH   1  17
TORSDOF 4
