REMARK  Name = ZINC43746587
REMARK  11 active torsions:
REMARK  status: ('A' for Active; 'I' for Inactive)
REMARK    1  A    between atoms: C_1  and  C_2
REMARK    2  A    between atoms: C_2  and  C_3
REMARK    3  A    between atoms: C_3  and  C_5
REMARK    4  A    between atoms: C_3  and  C_6
REMARK    5  A    between atoms: C_6  and  C_8
REMARK    6  A    between atoms: C_6  and  N_15
REMARK    7  A    between atoms: N_10  and  C_11
REMARK    8  A    between atoms: C_11  and  C_12
REMARK    9  A    between atoms: C_12  and  O_13
REMARK   10  A    between atoms: O_13  and  C_14
REMARK   11  A    between atoms: C_16  and  C_18
REMARK                            x       y       z     vdW  Elec       q    Type
REMARK                         _______ _______ _______ _____ _____    ______ ____
ROOT
ATOM      1  C   UNL     1      -2.458  -3.846   3.356  0.00  0.00    +0.167 C 
ATOM      2  C   UNL     1      -1.304  -3.435   4.283  0.00  0.00    +0.069 C 
ATOM      3  C   UNL     1      -1.692  -2.224   5.093  0.00  0.00    -0.015 A 
ATOM      4  C   UNL     1      -0.807  -1.341   5.831  0.00  0.00    +0.003 A 
ATOM      5  C   UNL     1       0.580  -1.323   6.002  0.00  0.00    +0.010 A 
ATOM      6  C   UNL     1       1.095  -0.320   6.786  0.00  0.00    +0.001 A 
ATOM      7  C   UNL     1       0.288   0.634   7.384  0.00  0.00    +0.002 A 
ATOM      8  C   UNL     1      -1.087   0.640   7.231  0.00  0.00    +0.026 A 
ATOM      9  C   UNL     1      -1.638  -0.365   6.439  0.00  0.00    +0.047 A 
ATOM     10  N   UNL     1      -2.924  -0.648   6.081  0.00  0.00    -0.356 N 
ATOM     11  H   UNL     1      -3.704  -0.144   6.359  0.00  0.00    +0.166 HD
ATOM     12  C   UNL     1      -2.946  -1.751   5.271  0.00  0.00    +0.046 A 
ATOM     13  C   UNL     1      -4.159  -2.374   4.624  0.00  0.00    +0.155 C 
ATOM     14  N   UNL     1      -3.712  -3.687   4.100  0.00  0.00    -0.273 N 
ATOM     15  C   UNL     1      -4.607  -4.616   4.459  0.00  0.00    +0.248 C 
ATOM     16  O   UNL     1      -4.665  -5.745   4.012  0.00  0.00    -0.270 OA
ATOM     17  C   UNL     1      -5.508  -4.063   5.476  0.00  0.00    +0.042 A 
ATOM     18  C   UNL     1      -5.248  -2.660   5.601  0.00  0.00    -0.009 A 
ATOM     19  C   UNL     1      -5.932  -1.855   6.483  0.00  0.00    +0.006 A 
ATOM     20  C   UNL     1      -6.922  -2.457   7.253  0.00  0.00    +0.000 A 
ATOM     21  C   UNL     1      -7.214  -3.802   7.141  0.00  0.00    +0.001 A 
ATOM     22  C   UNL     1      -6.502  -4.673   6.244  0.00  0.00    +0.013 A 
ENDROOT
BRANCH   1  24
ATOM     23  N   UNL     1      -1.408  -2.934   1.310  0.00  0.00    -0.302 N 
ATOM     24  C   UNL     1      -2.472  -2.961   2.137  0.00  0.00    +0.235 C 
ATOM     25  O   UNL     1      -3.442  -2.273   1.898  0.00  0.00    -0.274 OA
ATOM     26  H   UNL     1      -0.632  -3.485   1.501  0.00  0.00    +0.150 HD
BRANCH  23  27
ATOM     27  C   UNL     1      -1.422  -2.074   0.125  0.00  0.00    +0.162 C 
BRANCH  27  28
ATOM     28  C   UNL     1      -0.484  -2.634  -0.913  0.00  0.00    +0.234 C 
ATOM     29  O   UNL     1       0.426  -3.362  -0.578  0.00  0.00    -0.274 OA
ATOM     30  N   UNL     1      -0.656  -2.326  -2.214  0.00  0.00    -0.312 N 
ATOM     31  H   UNL     1      -1.421  -1.797  -2.490  0.00  0.00    +0.149 HD
BRANCH  30  32
ATOM     32  C   UNL     1       0.312  -2.789  -3.211  0.00  0.00    +0.132 C 
BRANCH  32  33
ATOM     33  C   UNL     1      -0.115  -2.306  -4.599  0.00  0.00    +0.178 C 
BRANCH  33  34
ATOM     34  O   UNL     1      -0.053  -0.879  -4.646  0.00  0.00    -0.381 OA
ATOM     35  C   UNL     1      -0.434  -0.322  -5.906  0.00  0.00    +0.194 C 
ENDBRANCH  33  34
ENDBRANCH  32  33
ENDBRANCH  30  32
ENDBRANCH  27  28
BRANCH  27  36
ATOM     36  C   UNL     1      -0.972  -0.664   0.512  0.00  0.00    +0.015 C 
ATOM     37  C   UNL     1       0.386  -0.738   1.214  0.00  0.00    +0.010 C 
BRANCH  36  39
ATOM     38  C   UNL     1      -1.616   1.411   1.745  0.00  0.00    +0.004 C 
ATOM     39  C   UNL     1      -2.001  -0.041   1.456  0.00  0.00    +0.002 C 
ENDBRANCH  36  39
ENDBRANCH  27  36
ENDBRANCH  23  27
ENDBRANCH   1  24
TORSDOF 8
