REMARK  Name = ZINC13566259
REMARK  8 active torsions:
REMARK  status: ('A' for Active; 'I' for Inactive)
REMARK    1  A    between atoms: C_1  and  C_2
REMARK    2  A    between atoms: C_2  and  O_3
REMARK    3  A    between atoms: O_3  and  C_4
REMARK    4  A    between atoms: C_4  and  C_6
REMARK    5  A    between atoms: C_7  and  C_21
REMARK    6  A    between atoms: C_12  and  C_14
REMARK    7  A    between atoms: C_21  and  S_22
REMARK    8  A    between atoms: S_22  and  C_23
REMARK                            x       y       z     vdW  Elec       q    Type
REMARK                         _______ _______ _______ _____ _____    ______ ____
ROOT
ATOM      1  C   UNL     1      -4.702  -1.083   1.200  0.00  0.00    +0.079 C 
ATOM      2  C   UNL     1      -4.164  -0.769   0.002  0.00  0.00    +0.034 C 
ATOM      3  N   UNL     1      -4.589  -1.380  -1.143  0.00  0.00    -0.272 N 
ATOM      4  C   UNL     1      -5.540  -2.323  -1.173  0.00  0.00    +0.304 C 
ATOM      5  O   UNL     1      -5.848  -2.813  -2.241  0.00  0.00    -0.252 OA
ATOM      6  N   UNL     1      -6.169  -2.742  -0.057  0.00  0.00    -0.288 N 
ATOM      7  C   UNL     1      -5.787  -2.140   1.231  0.00  0.00    +0.145 C 
ATOM      8  H   UNL     1      -4.177  -1.119  -1.981  0.00  0.00    +0.156 HD
ATOM      9  H   UNL     1      -6.858  -3.423  -0.102  0.00  0.00    +0.151 HD
ENDROOT
BRANCH   7  10
ATOM     10  C   UNL     1      -5.330  -3.248   2.144  0.00  0.00    -0.004 A 
ATOM     11  C   UNL     1      -4.636  -4.327   1.628  0.00  0.00    +0.007 A 
ATOM     12  C   UNL     1      -4.216  -5.343   2.465  0.00  0.00    +0.000 A 
ATOM     13  C   UNL     1      -4.491  -5.283   3.818  0.00  0.00    +0.001 A 
ATOM     14  C   UNL     1      -5.185  -4.206   4.335  0.00  0.00    +0.020 A 
ATOM     15  C   UNL     1      -5.601  -3.185   3.499  0.00  0.00    +0.046 A 
ATOM     16 CL   UNL     1      -6.466  -1.827   4.149  0.00  0.00    -0.083 Cl
ENDBRANCH   7  10
BRANCH   1  17
ATOM     17  C   UNL     1      -4.266  -0.447   2.386  0.00  0.00    +0.339 C 
ATOM     18  O   UNL     1      -4.928   0.451   2.874  0.00  0.00    -0.245 OA
BRANCH  17  19
ATOM     19  O   UNL     1      -3.117  -0.834   2.977  0.00  0.00    -0.462 OA
BRANCH  19  21
ATOM     20  C   UNL     1      -1.419  -0.722   4.693  0.00  0.00    +0.048 C 
ATOM     21  C   UNL     1      -2.738  -0.148   4.172  0.00  0.00    +0.229 C 
ENDBRANCH  19  21
ENDBRANCH  17  19
ENDBRANCH   1  17
BRANCH   2  22
ATOM     22  C   UNL     1      -3.082   0.277  -0.074  0.00  0.00    +0.127 C 
BRANCH  22  23
ATOM     23  S   UNL     1      -1.480  -0.528  -0.349  0.00  0.00    -0.091 S 
BRANCH  23  24
ATOM     24  C   UNL     1      -0.336   0.809  -0.413  0.00  0.00    +0.160 A 
ATOM     25  N   UNL     1      -0.556   2.105  -0.293  0.00  0.00    -0.133 NA
ATOM     26  N   UNL     1       0.496   2.988  -0.376  0.00  0.00    -0.125 NA
ATOM     27  C   UNL     1       1.718   2.536  -0.574  0.00  0.00    +0.180 A 
ATOM     28  S   UNL     1       1.434   0.775  -0.657  0.00  0.00    -0.025 S 
ATOM     29  N   UNL     1       2.910   3.242  -0.687  0.00  0.00    -0.336 N 
ATOM     30  H   UNL     1       3.743   2.767  -0.834  0.00  0.00    +0.144 HD
ATOM     31  H   UNL     1       2.909   4.210  -0.620  0.00  0.00    +0.144 HD
ENDBRANCH  23  24
ENDBRANCH  22  23
ENDBRANCH   2  22
TORSDOF 7
