REMARK  Name = ZINC38612960
REMARK  7 active torsions:
REMARK  status: ('A' for Active; 'I' for Inactive)
REMARK    1  A    between atoms: C_10  and  C_11
REMARK    2  A    between atoms: C_11  and  O_12
REMARK    3  A    between atoms: O_12  and  C_13
REMARK    4  A    between atoms: C_18  and  C_19
REMARK    5  A    between atoms: C_22  and  C_26
REMARK    6  A    between atoms: N_28  and  N_29
REMARK    7  A    between atoms: C_30  and  C_31
REMARK                            x       y       z     vdW  Elec       q    Type
REMARK                         _______ _______ _______ _____ _____    ______ ____
ROOT
ATOM      1  C   UNL     1       8.253  -2.532  -0.092  0.00  0.00    +0.134 C 
ATOM      2  C   UNL     1       8.003  -3.056   1.345  0.00  0.00    +0.069 C 
ATOM      3  C   UNL     1       9.444  -3.466   1.738  0.00  0.00    +0.215 C 
ATOM      4  N   UNL     1      10.119  -3.675   0.450  0.00  0.00    -0.203 NA
ATOM      5  N   UNL     1       9.501  -3.191  -0.502  0.00  0.00    -0.305 N 
ATOM      6  H   UNL     1       9.804  -3.239  -1.422  0.00  0.00    +0.183 HD
ENDROOT
BRANCH   1  12
ATOM      7  C   UNL     1       7.309  -0.209  -0.071  0.00  0.00    +0.126 A 
ATOM      8  C   UNL     1       7.469   1.169  -0.060  0.00  0.00    +0.046 A 
ATOM      9  C   UNL     1       8.737   1.716  -0.070  0.00  0.00    +0.004 A 
ATOM     10  C   UNL     1       9.847   0.891  -0.090  0.00  0.00    +0.001 A 
ATOM     11  C   UNL     1       9.690  -0.483  -0.101  0.00  0.00    +0.009 A 
ATOM     12  C   UNL     1       8.424  -1.035  -0.086  0.00  0.00    +0.018 A 
BRANCH   7  13
ATOM     13  O   UNL     1       6.062  -0.750  -0.061  0.00  0.00    -0.487 OA
BRANCH  13  14
ATOM     14  C   UNL     1       4.960   0.161  -0.046  0.00  0.00    +0.265 C 
BRANCH  14  24
ATOM     15  C   UNL     1      -0.016   1.357   0.009  0.00  0.00    +0.001 A 
ATOM     16  C   UNL     1       1.169   2.091   0.002  0.00  0.00    +0.001 A 
ATOM     17  C   UNL     1       2.378   1.468  -0.013  0.00  0.00    +0.009 A 
ATOM     18  C   UNL     1       2.438   0.064  -0.021  0.00  0.00    -0.011 A 
ATOM     19  C   UNL     1       1.233  -0.683  -0.013  0.00  0.00    -0.018 A 
ATOM     20  C   UNL     1       0.002  -0.004   0.002  0.00  0.00    +0.008 A 
ATOM     21  C   UNL     1       1.292  -2.087  -0.021  0.00  0.00    +0.008 A 
ATOM     22  C   UNL     1       2.502  -2.709  -0.036  0.00  0.00    +0.001 A 
ATOM     23  C   UNL     1       3.687  -1.976  -0.043  0.00  0.00    +0.007 A 
ATOM     24  C   UNL     1       3.668  -0.615  -0.037  0.00  0.00    -0.003 A 
ENDBRANCH  14  24
ENDBRANCH  13  14
ENDBRANCH   7  13
ENDBRANCH   1  12
BRANCH   3  25
ATOM     25  C   UNL     1       9.430  -4.739   2.543  0.00  0.00    +0.259 C 
ATOM     26  O   UNL     1       9.687  -5.797   2.009  0.00  0.00    -0.272 OA
ATOM     27  N   UNL     1       9.132  -4.703   3.857  0.00  0.00    -0.205 N 
ATOM     28  H   UNL     1       8.926  -3.857   4.284  0.00  0.00    +0.177 HD
BRANCH  27  29
ATOM     29  N   UNL     1       9.118  -5.887   4.605  0.00  0.00    -0.188 NA
ATOM     30  C   UNL     1       8.828  -5.852   5.881  0.00  0.00    +0.136 C 
BRANCH  30  31
ATOM     31  C   UNL     1       8.815  -7.037   6.630  0.00  0.00    +0.000 C 
ATOM     32  C   UNL     1       8.524  -7.174   7.986  0.00  0.00    +0.004 A 
ATOM     33  C   UNL     1       8.172  -6.240   8.985  0.00  0.00    +0.010 A 
ATOM     34  C   UNL     1       7.940  -6.666  10.252  0.00  0.00    +0.001 A 
ATOM     35  C   UNL     1       8.040  -8.016  10.601  0.00  0.00    +0.002 A 
ATOM     36  C   UNL     1       8.372  -8.966   9.696  0.00  0.00    +0.026 A 
ATOM     37  C   UNL     1       8.630  -8.598   8.348  0.00  0.00    +0.043 A 
ATOM     38  N   UNL     1       8.966  -9.317   7.298  0.00  0.00    -0.380 N 
ATOM     39  C   UNL     1       9.107  -8.436   6.134  0.00  0.00    +0.150 C 
ATOM     40  H   UNL     1       9.095 -10.278   7.293  0.00  0.00    +0.160 HD
ENDBRANCH  30  31
ENDBRANCH  27  29
ENDBRANCH   3  25
TORSDOF 7
