REMARK  Name = ZINC39775610
REMARK  7 active torsions:
REMARK  status: ('A' for Active; 'I' for Inactive)
REMARK    1  A    between atoms: C_1  and  C_2
REMARK    2  A    between atoms: C_5  and  C_8
REMARK    3  A    between atoms: N_10  and  C_11
REMARK    4  A    between atoms: C_15  and  C_18
REMARK    5  A    between atoms: C_18  and  C_19
REMARK    6  A    between atoms: N_21  and  N_22
REMARK    7  A    between atoms: C_23  and  C_24
REMARK                            x       y       z     vdW  Elec       q    Type
REMARK                         _______ _______ _______ _____ _____    ______ ____
ROOT
ATOM      1  C   UNL     1      -1.482  -8.842   3.833  0.00  0.00    +0.137 C 
ENDROOT
BRANCH   1   5
ATOM      2  C   UNL     1       0.093  -6.396   1.134  0.00  0.00    +0.275 C 
ATOM      3  N   UNL     1      -1.261  -6.952   0.911  0.00  0.00    -0.157 NA
ATOM      4  N   UNL     1      -1.897  -7.425   1.832  0.00  0.00    -0.175 NA
ATOM      5  C   UNL     1      -1.334  -7.457   3.202  0.00  0.00    +0.197 C 
ATOM      6  S   UNL     1       0.435  -7.075   2.819  0.00  0.00    -0.085 S 
BRANCH   2   9
ATOM      7  C   UNL     1       0.059  -4.251  -0.021  0.00  0.00    +0.246 C 
ATOM      8  O   UNL     1       0.062  -4.853  -1.077  0.00  0.00    -0.270 OA
ATOM      9  N   UNL     1       0.074  -4.931   1.142  0.00  0.00    -0.280 N 
ATOM     10  H   UNL     1       0.072  -4.451   1.985  0.00  0.00    +0.152 HD
BRANCH   7  15
ATOM     11  C   UNL     1      -0.018   1.503   0.010  0.00  0.00    +0.044 C 
ATOM     12  C   UNL     1       0.002  -0.004   0.002  0.00  0.00    -0.050 A 
ATOM     13  C   UNL     1       0.006  -0.686  -1.202  0.00  0.00    +0.004 A 
ATOM     14  C   UNL     1       0.024  -2.066  -1.216  0.00  0.00    +0.013 A 
ATOM     15  C   UNL     1       0.040  -2.773  -0.013  0.00  0.00    +0.037 A 
ATOM     16  C   UNL     1       0.036  -2.079   1.198  0.00  0.00    +0.013 A 
ATOM     17  C   UNL     1       0.023  -0.699   1.198  0.00  0.00    +0.004 A 
ENDBRANCH   7  15
ENDBRANCH   2   9
ENDBRANCH   1   5
BRANCH   1  18
ATOM     18  C   UNL     1      -0.977  -8.804   5.253  0.00  0.00    +0.235 C 
ATOM     19  O   UNL     1      -0.541  -7.771   5.713  0.00  0.00    -0.274 OA
ATOM     20  N   UNL     1      -1.009  -9.919   6.010  0.00  0.00    -0.207 N 
ATOM     21  H   UNL     1      -1.358 -10.745   5.641  0.00  0.00    +0.177 HD
BRANCH  20  22
ATOM     22  N   UNL     1      -0.539  -9.883   7.329  0.00  0.00    -0.188 NA
ATOM     23  C   UNL     1      -0.571 -10.966   8.064  0.00  0.00    +0.136 C 
BRANCH  23  24
ATOM     24  C   UNL     1      -0.100 -10.930   9.385  0.00  0.00    +0.000 C 
ATOM     25  C   UNL     1      -0.058 -11.986  10.292  0.00  0.00    +0.004 A 
ATOM     26  C   UNL     1      -0.444 -13.341  10.198  0.00  0.00    +0.010 A 
ATOM     27  C   UNL     1      -0.285 -14.162  11.267  0.00  0.00    +0.001 A 
ATOM     28  C   UNL     1       0.255 -13.701  12.471  0.00  0.00    +0.002 A 
ATOM     29  C   UNL     1       0.647 -12.414  12.633  0.00  0.00    +0.026 A 
ATOM     30  C   UNL     1       0.512 -11.495  11.559  0.00  0.00    +0.043 A 
ATOM     31  N   UNL     1       0.812 -10.216  11.464  0.00  0.00    -0.380 N 
ATOM     32  C   UNL     1       0.474  -9.739  10.120  0.00  0.00    +0.150 C 
ATOM     33  H   UNL     1       1.199  -9.676  12.171  0.00  0.00    +0.160 HD
ENDBRANCH  23  24
ENDBRANCH  20  22
ENDBRANCH   1  18
TORSDOF 6
