REMARK  Name = ZINC38002619
REMARK  5 active torsions:
REMARK  status: ('A' for Active; 'I' for Inactive)
REMARK    1  A    between atoms: C_1  and  C_2
REMARK    2  A    between atoms: C_2  and  C_4
REMARK    3  A    between atoms: C_2  and  N_10
REMARK    4  A    between atoms: N_10  and  C_11
REMARK    5  A    between atoms: C_16  and  N_17
REMARK                            x       y       z     vdW  Elec       q    Type
REMARK                         _______ _______ _______ _____ _____    ______ ____
ROOT
ATOM      1  C   UNL     1       2.079  -0.639  -1.194  0.00  0.00    +0.062 A 
ATOM      2  C   UNL     1       2.821  -0.213  -0.100  0.00  0.00    +0.074 A 
ATOM      3  C   UNL     1       4.204  -0.279  -0.134  0.00  0.00    +0.168 A 
ATOM      4  C   UNL     1       4.848  -0.773  -1.266  0.00  0.00    +0.169 A 
ATOM      5  C   UNL     1       4.105  -1.197  -2.355  0.00  0.00    +0.084 A 
ATOM      6  C   UNL     1       2.724  -1.136  -2.319  0.00  0.00    +0.151 A 
ATOM      7  O   UNL     1       6.197  -0.734  -1.051  0.00  0.00    -0.453 OA
ATOM      8  C   UNL     1       6.384   0.166   0.057  0.00  0.00    +0.466 C 
ATOM      9  O   UNL     1       5.148   0.068   0.789  0.00  0.00    -0.453 OA
ENDROOT
BRANCH   6  10
ATOM     10  N   UNL     1       1.933  -1.596  -3.482  0.00  0.00    +0.058 N 
ATOM     11  O   UNL     1       2.293  -2.562  -4.114  0.00  0.00    -0.126 OA
ATOM     12  O   UNL     1       0.928  -1.005  -3.801  0.00  0.00    -0.126 OA
ENDBRANCH   6  10
BRANCH   1  13
ATOM     13  N   UNL     1       0.682  -0.573  -1.161  0.00  0.00    -0.335 N 
ATOM     14  H   UNL     1       0.162  -0.946  -1.890  0.00  0.00    +0.147 HD
BRANCH  13  16
ATOM     15  C   UNL     1      -0.075   1.569  -0.257  0.00  0.00    +0.033 C 
ATOM     16  C   UNL     1       0.005   0.059  -0.026  0.00  0.00    +0.104 C 
BRANCH  16  17
ATOM     17  C   UNL     1      -1.386  -0.504   0.106  0.00  0.00    +0.011 A 
ATOM     18  C   UNL     1      -2.073  -0.826   1.229  0.00  0.00    +0.014 A 
ATOM     19  C   UNL     1      -3.354  -1.333   1.109  0.00  0.00    +0.023 A 
ATOM     20  C   UNL     1      -3.884  -1.494  -0.129  0.00  0.00    +0.055 A 
ATOM     21  S   UNL     1      -2.560  -0.911  -1.176  0.00  0.00    -0.085 S 
ATOM     22 BR   UNL     1      -5.586  -2.155  -0.619  0.00  0.00    -0.043 Br
ENDBRANCH  16  17
ENDBRANCH  13  16
ENDBRANCH   1  13
TORSDOF 4
