REMARK  Name = ZINC11902919
REMARK  6 active torsions:
REMARK  status: ('A' for Active; 'I' for Inactive)
REMARK    1  A    between atoms: C_1  and  C_2
REMARK    2  A    between atoms: C_2  and  C_4
REMARK    3  A    between atoms: C_2  and  S_17
REMARK    4  A    between atoms: N_6  and  C_7
REMARK    5  A    between atoms: C_12  and  C_13
REMARK    6  A    between atoms: S_17  and  C_18
REMARK                            x       y       z     vdW  Elec       q    Type
REMARK                         _______ _______ _______ _____ _____    ______ ____
ROOT
ATOM      1  C   UNL     1      -2.515  -0.037   1.303  0.00  0.00    +0.029 C 
ATOM      2  C   UNL     1      -2.690   0.750   0.003  0.00  0.00    +0.137 C 
ENDROOT
BRANCH   2   3
ATOM      3  C   UNL     1      -4.112   1.239  -0.101  0.00  0.00    +0.230 C 
ATOM      4  O   UNL     1      -4.382   2.385   0.190  0.00  0.00    -0.274 OA
ATOM      5  N   UNL     1      -5.083   0.403  -0.517  0.00  0.00    -0.284 N 
ATOM      6  H   UNL     1      -4.858  -0.494  -0.811  0.00  0.00    +0.155 HD
BRANCH   5   7
ATOM      7  C   UNL     1      -6.416   0.827  -0.524  0.00  0.00    +0.045 A 
ATOM      8  C   UNL     1      -6.724   2.149  -0.819  0.00  0.00    +0.024 A 
ATOM      9  C   UNL     1      -8.041   2.564  -0.829  0.00  0.00    +0.002 A 
ATOM     10  C   UNL     1      -9.053   1.667  -0.537  0.00  0.00    +0.001 A 
ATOM     11  C   UNL     1      -8.749   0.352  -0.238  0.00  0.00    +0.014 A 
ATOM     12  C   UNL     1      -7.434  -0.071  -0.231  0.00  0.00    +0.076 A 
BRANCH  12  13
ATOM     13  C   UNL     1      -7.104  -1.504   0.096  0.00  0.00    +0.419 C 
ATOM     14  F   UNL     1      -8.285  -2.208   0.354  0.00  0.00    -0.166 F 
ATOM     15  F   UNL     1      -6.440  -2.089  -0.988  0.00  0.00    -0.166 F 
ATOM     16  F   UNL     1      -6.280  -1.547   1.226  0.00  0.00    -0.166 F 
ENDBRANCH  12  13
ENDBRANCH   5   7
ENDBRANCH   2   3
BRANCH   2  17
ATOM     17  S   UNL     1      -1.563   2.167   0.000  0.00  0.00    -0.075 S 
BRANCH  17  18
ATOM     18  C   UNL     1      -0.015   1.326  -0.024  0.00  0.00    +0.170 A 
ATOM     19  N   UNL     1       1.139   2.049  -0.038  0.00  0.00    -0.302 N 
ATOM     20  H   UNL     1       1.107   3.019  -0.030  0.00  0.00    +0.171 HD
ATOM     21  C   UNL     1       2.327   1.409  -0.062  0.00  0.00    +0.255 A 
ATOM     22  O   UNL     1       3.372   2.040  -0.074  0.00  0.00    -0.267 OA
ATOM     23  C   UNL     1       2.340   0.003  -0.072  0.00  0.00    +0.038 A 
ATOM     24  C   UNL     1       1.154  -0.671  -0.057  0.00  0.00    +0.052 A 
ATOM     25  N   UNL     1       0.007   0.009  -0.033  0.00  0.00    -0.228 NA
ATOM     26  C   UNL     1       1.409  -2.163  -0.071  0.00  0.00    +0.056 C 
ATOM     27  C   UNL     1       2.873  -2.318  -0.533  0.00  0.00    +0.011 C 
ATOM     28  C   UNL     1       3.495  -0.973  -0.098  0.00  0.00    +0.043 C 
ENDBRANCH  17  18
ENDBRANCH   2  17
TORSDOF 5
