REMARK  Name = ZINC04086214
REMARK  8 active torsions:
REMARK  status: ('A' for Active; 'I' for Inactive)
REMARK    1  A    between atoms: C_1  and  C_2
REMARK    2  A    between atoms: C_2  and  C_3
REMARK    3  A    between atoms: C_2  and  O_4
REMARK    4  A    between atoms: O_4  and  C_5
REMARK    5  A    between atoms: C_5  and  C_6
REMARK    6  A    between atoms: C_6  and  C_7
REMARK    7  A    between atoms: C_7  and  N_8
REMARK    8  A    between atoms: C_9  and  C_11
REMARK                            x       y       z     vdW  Elec       q    Type
REMARK                         _______ _______ _______ _____ _____    ______ ____
ROOT
ATOM      1  C   UNL     1      -0.013   1.086   0.008  0.00  0.00    +0.167 C 
ATOM      2  C   UNL     1      -0.772   1.603  -1.223  0.00  0.00    +0.069 C 
ATOM      3  C   UNL     1      -1.244   3.015  -0.990  0.00  0.00    -0.015 A 
ATOM      4  C   UNL     1      -1.723   3.956  -1.986  0.00  0.00    +0.003 A 
ATOM      5  C   UNL     1      -1.879   3.863  -3.373  0.00  0.00    +0.010 A 
ATOM      6  C   UNL     1      -2.370   4.972  -4.016  0.00  0.00    +0.001 A 
ATOM      7  C   UNL     1      -2.699   6.133  -3.336  0.00  0.00    +0.002 A 
ATOM      8  C   UNL     1      -2.555   6.252  -1.964  0.00  0.00    +0.026 A 
ATOM      9  C   UNL     1      -2.058   5.141  -1.284  0.00  0.00    +0.047 A 
ATOM     10  N   UNL     1      -1.796   4.918   0.037  0.00  0.00    -0.356 N 
ATOM     11  H   UNL     1      -1.938   5.560   0.750  0.00  0.00    +0.166 HD
ATOM     12  C   UNL     1      -1.304   3.652   0.202  0.00  0.00    +0.046 A 
ATOM     13  C   UNL     1      -0.872   3.010   1.498  0.00  0.00    +0.155 C 
ATOM     14  N   UNL     1      -0.715   1.567   1.202  0.00  0.00    -0.273 N 
ATOM     15  C   UNL     1      -1.372   0.877   2.170  0.00  0.00    +0.248 C 
ATOM     16  O   UNL     1      -1.283  -0.322   2.349  0.00  0.00    -0.270 OA
ATOM     17  C   UNL     1      -2.187   1.793   2.974  0.00  0.00    +0.042 A 
ATOM     18  C   UNL     1      -1.908   3.113   2.564  0.00  0.00    -0.009 A 
ATOM     19  C   UNL     1      -2.546   4.193   3.131  0.00  0.00    +0.006 A 
ATOM     20  C   UNL     1      -3.474   3.926   4.134  0.00  0.00    +0.000 A 
ATOM     21  C   UNL     1      -3.746   2.638   4.549  0.00  0.00    +0.001 A 
ATOM     22  C   UNL     1      -3.116   1.539   3.986  0.00  0.00    +0.013 A 
ENDROOT
BRANCH   1  24
ATOM     23  N   UNL     1       2.224   1.312  -1.023  0.00  0.00    -0.314 N 
ATOM     24  C   UNL     1       1.398   1.616  -0.003  0.00  0.00    +0.234 C 
ATOM     25  O   UNL     1       1.790   2.316   0.907  0.00  0.00    -0.274 OA
ATOM     26  H   UNL     1       1.911   0.752  -1.751  0.00  0.00    +0.149 HD
BRANCH  23  27
ATOM     27  C   UNL     1       3.596   1.827  -1.033  0.00  0.00    +0.106 C 
BRANCH  27  28
ATOM     28  C   UNL     1       4.315   1.337  -2.292  0.00  0.00    +0.047 C 
BRANCH  28  29
ATOM     29  C   UNL     1       5.747   1.875  -2.303  0.00  0.00    +0.161 C 
BRANCH  29  30
ATOM     30  O   UNL     1       6.419   1.418  -3.479  0.00  0.00    -0.377 OA
BRANCH  30  32
ATOM     31  C   UNL     1       8.700   0.853  -2.915  0.00  0.00    +0.037 C 
ATOM     32  C   UNL     1       7.771   1.867  -3.587  0.00  0.00    +0.112 C 
ATOM     33  C   UNL     1       8.147   2.002  -5.064  0.00  0.00    +0.037 C 
ENDBRANCH  30  32
ENDBRANCH  29  30
ENDBRANCH  28  29
ENDBRANCH  27  28
ENDBRANCH  23  27
ENDBRANCH   1  24
TORSDOF 6
