REMARK  Name = ZINC39453147
REMARK  6 active torsions:
REMARK  status: ('A' for Active; 'I' for Inactive)
REMARK    1  A    between atoms: C_1  and  C_2
REMARK    2  A    between atoms: C_2  and  C_3
REMARK    3  A    between atoms: C_2  and  S_4
REMARK    4  A    between atoms: S_4  and  C_7
REMARK    5  A    between atoms: C_26  and  S_29
REMARK    6  A    between atoms: S_29  and  C_30
REMARK                            x       y       z     vdW  Elec       q    Type
REMARK                         _______ _______ _______ _____ _____    ______ ____
ROOT
ATOM      1  C   UNL     1      -2.252  -0.079  -1.422  0.00  0.00    +0.098 A 
ATOM      2  C   UNL     1      -2.756  -0.898  -2.386  0.00  0.00    +0.028 A 
ATOM      3  C   UNL     1      -3.232  -0.394  -3.593  0.00  0.00    +0.004 A 
ATOM      4  C   UNL     1      -3.216   0.938  -3.871  0.00  0.00    +0.028 A 
ATOM      5  C   UNL     1      -2.707   1.839  -2.918  0.00  0.00    +0.074 A 
ATOM      6  C   UNL     1      -2.214   1.307  -1.645  0.00  0.00    +0.026 A 
ATOM      7  C   UNL     1      -1.710   2.199  -0.686  0.00  0.00    +0.027 A 
ATOM      8  C   UNL     1      -1.709   3.551  -0.998  0.00  0.00    +0.070 A 
ATOM      9  C   UNL     1      -2.206   3.998  -2.251  0.00  0.00    +0.100 A 
ATOM     10  N   UNL     1      -2.671   3.151  -3.151  0.00  0.00    -0.245 NA
ATOM     11  C   UNL     1      -2.175   5.444  -2.529  0.00  0.00    +0.085 A 
ATOM     12  C   UNL     1      -1.679   6.317  -1.582  0.00  0.00    +0.154 A 
ATOM     13  N   UNL     1      -1.199   5.852  -0.362  0.00  0.00    -0.088 N 
ATOM     14  C   UNL     1      -1.196   4.546  -0.043  0.00  0.00    +0.297 A 
ATOM     15  O   UNL     1      -0.767   4.186   1.038  0.00  0.00    -0.264 OA
ATOM     16  O   UNL     1      -0.697   6.787   0.576  0.00  0.00    -0.160 OA
ATOM     17  C   UNL     1      -1.659   7.706  -1.848  0.00  0.00    +0.187 C 
ATOM     18  O   UNL     1      -1.177   8.467  -1.033  0.00  0.00    -0.290 OA
ATOM     19  C   UNL     1      -2.230   8.250  -3.131  0.00  0.00    +0.114 C 
ATOM     20  C   UNL     1      -2.088   7.198  -4.237  0.00  0.00    +0.136 C 
ATOM     21  N   UNL     1      -2.638   5.928  -3.738  0.00  0.00    -0.328 N 
ATOM     22  H   UNL     1      -3.309   5.444  -4.244  0.00  0.00    +0.147 HD
ENDROOT
BRANCH   1  23
ATOM     23  S   UNL     1      -1.660  -0.751   0.095  0.00  0.00    -0.000 S 
ATOM     24  O   UNL     1      -0.365  -0.189   0.260  0.00  0.00    -0.169 OA
ATOM     25  O   UNL     1      -1.827  -2.156  -0.041  0.00  0.00    -0.169 OA
BRANCH  23  27
ATOM     26  C   UNL     1      -4.212  -0.575   1.062  0.00  0.00    +0.032 C 
ATOM     27  C   UNL     1      -2.787  -0.107   1.362  0.00  0.00    +0.130 C 
ATOM     28  C   UNL     1      -2.358  -0.625   2.737  0.00  0.00    +0.032 C 
ENDBRANCH  23  27
ENDBRANCH   1  23
BRANCH  20  29
ATOM     29  S   UNL     1      -0.336   6.984  -4.656  0.00  0.00    -0.142 S 
ATOM     30  C   UNL     1      -0.123   5.185  -4.747  0.00  0.00    +0.086 C 
ENDBRANCH  20  29
TORSDOF 3
