REMARK  Name = ZINC35636368
REMARK  8 active torsions:
REMARK  status: ('A' for Active; 'I' for Inactive)
REMARK    1  A    between atoms: C_1  and  C_2
REMARK    2  A    between atoms: C_2  and  N_3
REMARK    3  A    between atoms: C_9  and  C_11
REMARK    4  A    between atoms: C_11  and  N_12
REMARK    5  A    between atoms: C_18  and  C_26
REMARK    6  A    between atoms: N_23  and  C_24
REMARK    7  A    between atoms: C_24  and  C_25
REMARK    8  A    between atoms: C_29  and  C_32
REMARK                            x       y       z     vdW  Elec       q    Type
REMARK                         _______ _______ _______ _____ _____    ______ ____
ROOT
ATOM      1  N   UNL     1       1.153  -4.941   5.646  0.00  0.00    -0.283 N 
ATOM      2  C   UNL     1       2.034  -5.093   6.813  0.00  0.00    +0.160 C 
ATOM      3  C   UNL     1       1.233  -5.913   7.800  0.00  0.00    +0.042 C 
ATOM      4  C   UNL     1       0.048  -6.167   7.208  0.00  0.00    +0.058 C 
ATOM      5  C   UNL     1       0.004  -5.581   5.927  0.00  0.00    +0.247 C 
ATOM      6  O   UNL     1      -0.949  -5.648   5.172  0.00  0.00    -0.270 OA
ATOM      7  C   UNL     1      -0.965  -6.984   7.984  0.00  0.00    +0.142 C 
ATOM      8  N   UNL     1      -0.569  -7.437   9.328  0.00  0.00    -0.288 N 
ATOM      9  C   UNL     1       0.655  -7.102   9.783  0.00  0.00    +0.307 C 
ATOM     10  O   UNL     1       0.991  -7.471  10.892  0.00  0.00    -0.252 OA
ATOM     11  N   UNL     1       1.512  -6.376   9.054  0.00  0.00    -0.257 N 
ATOM     12  H   UNL     1      -1.175  -7.963   9.873  0.00  0.00    +0.151 HD
ENDROOT
BRANCH   7  13
ATOM     13  C   UNL     1      -1.303  -8.204   7.165  0.00  0.00    -0.023 A 
ATOM     14  C   UNL     1      -0.454  -9.294   7.166  0.00  0.00    +0.006 A 
ATOM     15  C   UNL     1      -0.764 -10.412   6.415  0.00  0.00    +0.004 A 
ATOM     16  C   UNL     1      -1.924 -10.440   5.663  0.00  0.00    -0.050 A 
ATOM     17  C   UNL     1      -2.773  -9.350   5.663  0.00  0.00    +0.004 A 
ATOM     18  C   UNL     1      -2.466  -8.233   6.417  0.00  0.00    +0.006 A 
ATOM     19  C   UNL     1      -2.261 -11.659   4.843  0.00  0.00    +0.044 C 
ENDBRANCH   7  13
BRANCH  11  20
ATOM     20  C   UNL     1       2.821  -6.062   9.633  0.00  0.00    +0.111 C 
ATOM     21  C   UNL     1       2.734  -4.742  10.402  0.00  0.00    +0.025 C 
ENDBRANCH  11  20
BRANCH   1  22
ATOM     22  C   UNL     1       1.467  -4.220   4.409  0.00  0.00    +0.204 C 
BRANCH  22  29
ATOM     23  N   UNL     1       0.713  -0.491   1.192  0.00  0.00    -0.300 NA
ATOM     24  C   UNL     1      -0.021  -0.151   2.419  0.00  0.00    +0.103 C 
ATOM     25  C   UNL     1       0.835  -0.512   3.638  0.00  0.00    +0.123 C 
ATOM     26  N   UNL     1       1.238  -1.921   3.525  0.00  0.00    -0.298 N 
ATOM     27  C   UNL     1       1.856  -2.370   2.268  0.00  0.00    +0.123 C 
ATOM     28  C   UNL     1       0.961  -1.936   1.103  0.00  0.00    +0.103 C 
ATOM     29  C   UNL     1       1.046  -2.780   4.546  0.00  0.00    +0.233 C 
ATOM     30  O   UNL     1       0.535  -2.393   5.576  0.00  0.00    -0.274 OA
BRANCH  23  32
ATOM     31  C   UNL     1      -0.019   1.526   0.010  0.00  0.00    +0.020 C 
ATOM     32  C   UNL     1       0.002  -0.004   0.002  0.00  0.00    +0.081 C 
ENDBRANCH  23  32
ENDBRANCH  22  29
ENDBRANCH   1  22
TORSDOF 5
