REMARK  Name = ZINC06910211
REMARK  12 active torsions:
REMARK  status: ('A' for Active; 'I' for Inactive)
REMARK    1  A    between atoms: C_1  and  C_2
REMARK    2  A    between atoms: C_3  and  C_26
REMARK    3  A    between atoms: C_4  and  C_17
REMARK    4  A    between atoms: N_8  and  C_15
REMARK    5  A    between atoms: N_11  and  C_14
REMARK    6  A    between atoms: C_20  and  N_23
REMARK    7  A    between atoms: N_23  and  C_24
REMARK    8  A    between atoms: N_23  and  C_25
REMARK    9  A    between atoms: C_26  and  O_28
REMARK   10  A    between atoms: O_28  and  C_29
REMARK   11  A    between atoms: C_29  and  C_30
REMARK   12  A    between atoms: C_29  and  C_31
REMARK                            x       y       z     vdW  Elec       q    Type
REMARK                         _______ _______ _______ _____ _____    ______ ____
ROOT
ATOM      1  C   UNL     1       1.822   5.515  -0.754  0.00  0.00    +0.061 C 
ATOM      2  C   UNL     1       2.118   4.095  -0.344  0.00  0.00    +0.017 C 
ATOM      3  C   UNL     1       3.357   3.602  -0.512  0.00  0.00    +0.065 C 
ATOM      4  C   UNL     1       3.707   2.198  -0.112  0.00  0.00    +0.096 C 
ATOM      5  C   UNL     1       2.468   1.372   0.086  0.00  0.00    +0.067 A 
ATOM      6  C   UNL     1       1.248   1.959   0.236  0.00  0.00    +0.116 A 
ATOM      7  N   UNL     1       0.136   1.173   0.425  0.00  0.00    -0.284 N 
ATOM      8  C   UNL     1       0.248  -0.167   0.457  0.00  0.00    +0.333 A 
ATOM      9  O   UNL     1      -0.745  -0.848   0.624  0.00  0.00    -0.246 OA
ATOM     10  N   UNL     1       1.444  -0.765   0.307  0.00  0.00    -0.264 N 
ATOM     11  C   UNL     1       2.559  -0.032   0.123  0.00  0.00    +0.262 A 
ATOM     12  O   UNL     1       3.639  -0.580  -0.011  0.00  0.00    -0.267 OA
ATOM     13  C   UNL     1       1.535  -2.227   0.344  0.00  0.00    +0.157 C 
ATOM     14  C   UNL     1      -1.179   1.798   0.586  0.00  0.00    +0.155 C 
ATOM     15  N   UNL     1       1.123   3.327   0.195  0.00  0.00    -0.303 N 
ATOM     16  H   UNL     1       0.325   3.750   0.548  0.00  0.00    +0.153 HD
ENDROOT
BRANCH   4  17
ATOM     17  C   UNL     1       4.492   2.231   1.174  0.00  0.00    -0.035 A 
ATOM     18  C   UNL     1       3.920   2.757   2.318  0.00  0.00    +0.006 A 
ATOM     19  C   UNL     1       4.634   2.784   3.499  0.00  0.00    +0.023 A 
ATOM     20  C   UNL     1       5.933   2.292   3.535  0.00  0.00    +0.029 A 
ATOM     21  C   UNL     1       6.507   1.770   2.383  0.00  0.00    +0.023 A 
ATOM     22  C   UNL     1       5.785   1.741   1.206  0.00  0.00    +0.006 A 
BRANCH  20  23
ATOM     23  N   UNL     1       6.661   2.323   4.727  0.00  0.00    -0.336 N 
ATOM     24  C   UNL     1       7.978   1.686   4.798  0.00  0.00    +0.129 C 
ATOM     25  C   UNL     1       6.107   2.994   5.906  0.00  0.00    +0.129 C 
ENDBRANCH  20  23
ENDBRANCH   4  17
BRANCH   3  26
ATOM     26  C   UNL     1       4.355   4.426  -1.080  0.00  0.00    +0.338 C 
ATOM     27  O   UNL     1       4.600   4.353  -2.270  0.00  0.00    -0.245 OA
BRANCH  26  28
ATOM     28  O   UNL     1       5.036   5.295  -0.303  0.00  0.00    -0.459 OA
BRANCH  28  29
ATOM     29  C   UNL     1       6.031   6.096  -0.944  0.00  0.00    +0.171 C 
ATOM     30  C   UNL     1       5.396   7.397  -1.439  0.00  0.00    +0.052 C 
ATOM     31  C   UNL     1       7.145   6.420   0.053  0.00  0.00    +0.052 C 
ENDBRANCH  28  29
ENDBRANCH  26  28
ENDBRANCH   3  26
TORSDOF 5
