REMARK  Name = ZINC05953049
REMARK  9 active torsions:
REMARK  status: ('A' for Active; 'I' for Inactive)
REMARK    1  A    between atoms: C_1  and  C_2
REMARK    2  A    between atoms: C_2  and  O_3
REMARK    3  A    between atoms: O_3  and  C_4
REMARK    4  A    between atoms: C_4  and  C_6
REMARK    5  A    between atoms: C_7  and  C_25
REMARK    6  A    between atoms: C_8  and  C_24
REMARK    7  A    between atoms: C_10  and  N_11
REMARK    8  A    between atoms: C_12  and  C_14
REMARK    9  A    between atoms: C_20  and  C_22
REMARK                            x       y       z     vdW  Elec       q    Type
REMARK                         _______ _______ _______ _____ _____    ______ ____
ROOT
ATOM      1  N   UNL     1       3.258  -0.952   1.271  0.00  0.00    -0.279 N 
ATOM      2  C   UNL     1       2.326   0.007   1.100  0.00  0.00    +0.222 C 
ATOM      3  O   UNL     1       1.378   0.072   1.854  0.00  0.00    -0.275 OA
ATOM      4  H   UNL     1       4.016  -1.004   0.668  0.00  0.00    +0.155 HD
ENDROOT
BRANCH   1   9
ATOM      5  C   UNL     1       3.978  -2.917   2.638  0.00  0.00    +0.091 A 
ATOM      6  C   UNL     1       3.604  -3.714   3.783  0.00  0.00    -0.025 A 
ATOM      7  C   UNL     1       2.469  -3.378   4.421  0.00  0.00    -0.008 A 
ATOM      8  S   UNL     1       1.881  -1.972   3.499  0.00  0.00    -0.078 S 
ATOM      9  C   UNL     1       3.133  -1.864   2.307  0.00  0.00    +0.086 A 
ATOM     10  C   UNL     1       1.845  -4.032   5.626  0.00  0.00    +0.052 C 
ATOM     11  C   UNL     1       4.447  -4.877   4.239  0.00  0.00    +0.045 C 
BRANCH   5  12
ATOM     12  C   UNL     1       5.191  -3.201   1.867  0.00  0.00    +0.342 C 
ATOM     13  O   UNL     1       6.245  -2.679   2.178  0.00  0.00    -0.245 OA
BRANCH  12  14
ATOM     14  O   UNL     1       5.139  -4.041   0.814  0.00  0.00    -0.461 OA
BRANCH  14  16
ATOM     15  C   UNL     1       6.124  -5.248  -1.058  0.00  0.00    +0.048 C 
ATOM     16  C   UNL     1       6.379  -4.276   0.096  0.00  0.00    +0.229 C 
ENDBRANCH  14  16
ENDBRANCH  12  14
ENDBRANCH   5  12
ENDBRANCH   1   9
BRANCH   2  17
ATOM     17  C   UNL     1       2.462   0.998  -0.027  0.00  0.00    +0.093 C 
ATOM     18  C   UNL     1       3.756   1.798   0.145  0.00  0.00    +0.040 C 
ATOM     19  C   UNL     1       3.777   2.958  -0.807  0.00  0.00    -0.030 C 
ATOM     20  C   UNL     1       2.729   3.419  -1.411  0.00  0.00    -0.030 C 
ATOM     21  C   UNL     1       1.346   2.856  -1.249  0.00  0.00    +0.042 C 
ATOM     22  C   UNL     1       1.280   1.975   0.000  0.00  0.00    +0.118 C 
BRANCH  22  23
ATOM     23  C   UNL     1      -0.014   1.204   0.009  0.00  0.00    +0.360 C 
ATOM     24  O   UNL     1       0.002  -0.004   0.002  0.00  0.00    -0.246 OA
ATOM     25  O   UNL     1      -1.186   1.859   0.018  0.00  0.00    -0.246 OA
ENDBRANCH  22  23
ENDBRANCH   2  17
TORSDOF 6
