REMARK  Name = ZINC64788672
REMARK  7 active torsions:
REMARK  status: ('A' for Active; 'I' for Inactive)
REMARK    1  A    between atoms: C_1  and  C_2
REMARK    2  A    between atoms: C_2  and  O_3
REMARK    3  A    between atoms: O_3  and  C_4
REMARK    4  A    between atoms: C_9  and  C_10
REMARK    5  A    between atoms: N_21  and  C_24
REMARK    6  A    between atoms: C_26  and  C_31
REMARK    7  A    between atoms: C_28  and  C_30
REMARK                            x       y       z     vdW  Elec       q    Type
REMARK                         _______ _______ _______ _____ _____    ______ ____
ROOT
ATOM      1  C   UNL     1       1.691   0.855   3.714  0.00  0.00    +0.112 C 
ATOM      2  C   UNL     1       3.103   0.440   3.234  0.00  0.00    +0.078 C 
ATOM      3  C   UNL     1       3.885   0.397   4.535  0.00  0.00    +0.038 C 
ATOM      4  N   UNL     1       3.001   0.402   5.550  0.00  0.00    -0.283 N 
ATOM      5  N   UNL     1       1.705   0.408   5.126  0.00  0.00    -0.235 NA
ATOM      6  C   UNL     1       5.262   0.360   4.655  0.00  0.00    +0.118 C 
ATOM      7  C   UNL     1       6.138   0.364   3.470  0.00  0.00    +0.258 C 
ATOM      8  N   UNL     1       7.473   0.326   3.664  0.00  0.00    -0.235 N 
ATOM      9  C   UNL     1       8.001   0.285   4.895  0.00  0.00    +0.320 C 
ATOM     10  O   UNL     1       9.211   0.253   5.001  0.00  0.00    -0.251 OA
ATOM     11  N   UNL     1       7.266   0.279   6.015  0.00  0.00    -0.190 N 
ATOM     12  C   UNL     1       5.918   0.320   5.974  0.00  0.00    +0.265 C 
ATOM     13  O   UNL     1       5.261   0.318   6.998  0.00  0.00    -0.269 OA
ATOM     14  O   UNL     1       5.671   0.401   2.347  0.00  0.00    -0.270 OA
ATOM     15  H   UNL     1       1.139   1.013   5.702  0.00  0.00    +0.145 HD
ATOM     16  H   UNL     1       8.064   0.329   2.894  0.00  0.00    +0.159 HD
ATOM     17  H   UNL     1       3.259   0.401   6.485  0.00  0.00    +0.166 HD
ENDROOT
BRANCH  11  18
ATOM     18  C   UNL     1       7.912   0.234   7.258  0.00  0.00    +0.046 A 
ATOM     19  C   UNL     1       8.202  -0.990   7.847  0.00  0.00    +0.027 A 
ATOM     20  C   UNL     1       8.839  -1.031   9.072  0.00  0.00    -0.048 A 
ATOM     21  C   UNL     1       9.188   0.145   9.711  0.00  0.00    +0.006 A 
ATOM     22  C   UNL     1       8.900   1.365   9.127  0.00  0.00    -0.048 A 
ATOM     23  C   UNL     1       8.268   1.412   7.900  0.00  0.00    +0.027 A 
ATOM     24  C   UNL     1       9.281   2.643   9.828  0.00  0.00    +0.044 C 
ATOM     25  C   UNL     1       9.154  -2.358   9.713  0.00  0.00    +0.044 C 
ENDBRANCH  11  18
BRANCH   1  31
ATOM     26  C   UNL     1       0.223   0.621   1.695  0.00  0.00    +0.125 A 
ATOM     27  C   UNL     1      -0.757  -0.047   0.974  0.00  0.00    +0.046 A 
ATOM     28  C   UNL     1      -1.335  -1.190   1.492  0.00  0.00    +0.004 A 
ATOM     29  C   UNL     1      -0.937  -1.669   2.727  0.00  0.00    +0.001 A 
ATOM     30  C   UNL     1       0.038  -1.005   3.447  0.00  0.00    +0.009 A 
ATOM     31  C   UNL     1       0.623   0.136   2.931  0.00  0.00    +0.013 A 
BRANCH  26  32
ATOM     32  O   UNL     1       0.793   1.746   1.188  0.00  0.00    -0.492 OA
BRANCH  32  34
ATOM     33  C   UNL     1       1.084   3.458  -0.493  0.00  0.00    +0.048 C 
ATOM     34  C   UNL     1       0.332   2.188  -0.090  0.00  0.00    +0.225 C 
ENDBRANCH  32  34
ENDBRANCH  26  32
ENDBRANCH   1  31
TORSDOF 4
