REMARK  Name = ZINC13626344
REMARK  4 active torsions:
REMARK  status: ('A' for Active; 'I' for Inactive)
REMARK    1  A    between atoms: C_8  and  C_10
REMARK    2  A    between atoms: C_24  and  C_26
REMARK    3  A    between atoms: C_26  and  C_27
REMARK    4  A    between atoms: C_27  and  C_28
REMARK                            x       y       z     vdW  Elec       q    Type
REMARK                         _______ _______ _______ _____ _____    ______ ____
ROOT
ATOM      1  C   UNL     1      -1.372  -6.464  -0.020  0.00  0.00    +0.105 C 
ATOM      2  N   UNL     1      -1.125  -5.195  -0.021  0.00  0.00    -0.177 NA
ATOM      3  N   UNL     1      -2.269  -4.394   0.000  0.00  0.00    -0.173 N 
ATOM      4  C   UNL     1      -3.443  -5.264   0.007  0.00  0.00    +0.168 C 
ATOM      5  C   UNL     1      -2.870  -6.686  -0.005  0.00  0.00    +0.103 C 
ATOM      6  C   UNL     1      -4.337  -5.018  -1.175  0.00  0.00    +0.008 A 
ATOM      7  C   UNL     1      -4.142  -5.065  -2.538  0.00  0.00    +0.008 A 
ATOM      8  C   UNL     1      -5.188  -4.778  -3.397  0.00  0.00    +0.000 A 
ATOM      9  C   UNL     1      -6.429  -4.446  -2.884  0.00  0.00    +0.002 A 
ATOM     10  C   UNL     1      -6.628  -4.397  -1.520  0.00  0.00    +0.023 A 
ATOM     11  C   UNL     1      -5.580  -4.683  -0.647  0.00  0.00    +0.039 A 
ATOM     12  N   UNL     1      -5.533  -4.699   0.748  0.00  0.00    -0.283 N 
ATOM     13  C   UNL     1      -4.312  -5.030   1.211  0.00  0.00    +0.248 C 
ATOM     14  O   UNL     1      -3.979  -5.121   2.374  0.00  0.00    -0.273 OA
ATOM     15  C   UNL     1      -2.287  -3.047   0.007  0.00  0.00    +0.237 C 
ATOM     16  O   UNL     1      -3.346  -2.454   0.021  0.00  0.00    -0.274 OA
ATOM     17  H   UNL     1      -6.292  -4.496   1.318  0.00  0.00    +0.155 HD
ENDROOT
BRANCH   1  25
ATOM     18  C   UNL     1       3.152 -10.465  -0.082  0.00  0.00    +0.001 A 
ATOM     19  C   UNL     1       2.098 -11.368  -0.075  0.00  0.00    +0.004 A 
ATOM     20  C   UNL     1       0.792 -10.926  -0.061  0.00  0.00    +0.047 A 
ATOM     21  C   UNL     1       0.523  -9.563  -0.053  0.00  0.00    +0.136 A 
ATOM     22  C   UNL     1       1.595  -8.652  -0.060  0.00  0.00    +0.021 A 
ATOM     23  C   UNL     1       2.911  -9.120  -0.074  0.00  0.00    +0.011 A 
ATOM     24  C   UNL     1       0.986  -7.322  -0.048  0.00  0.00    +0.059 A 
ATOM     25  C   UNL     1      -0.359  -7.525  -0.035  0.00  0.00    +0.152 A 
ATOM     26  O   UNL     1      -0.620  -8.848  -0.033  0.00  0.00    -0.454 OA
ENDBRANCH   1  25
BRANCH  15  27
ATOM     27  C   UNL     1      -0.993  -2.276  -0.001  0.00  0.00    +0.109 C 
BRANCH  27  28
ATOM     28  C   UNL     1      -1.293  -0.775   0.010  0.00  0.00    +0.134 C 
BRANCH  28  29
ATOM     29  C   UNL     1       0.002  -0.004   0.002  0.00  0.00    +0.356 C 
ATOM     30  O   UNL     1       1.056  -0.594  -0.011  0.00  0.00    -0.246 OA
ATOM     31  O   UNL     1      -0.016   1.338   0.009  0.00  0.00    -0.246 OA
ENDBRANCH  28  29
ENDBRANCH  27  28
ENDBRANCH  15  27
TORSDOF 4
