REMARK  Name = ZINC63150602
REMARK  5 active torsions:
REMARK  status: ('A' for Active; 'I' for Inactive)
REMARK    1  A    between atoms: C_7  and  C_10
REMARK    2  A    between atoms: N_12  and  N_13
REMARK    3  A    between atoms: C_14  and  C_16
REMARK    4  A    between atoms: N_19  and  C_25
REMARK    5  A    between atoms: C_20  and  C_21
REMARK                            x       y       z     vdW  Elec       q    Type
REMARK                         _______ _______ _______ _____ _____    ______ ____
ROOT
ATOM      1  N   UNL     1       0.203  -5.517  -0.029  0.00  0.00    -0.230 N 
ATOM      2  C   UNL     1       0.676  -6.779  -0.041  0.00  0.00    +0.264 C 
ATOM      3  O   UNL     1       1.875  -6.980  -0.053  0.00  0.00    -0.269 OA
ATOM      4  H   UNL     1      -0.753  -5.357  -0.019  0.00  0.00    +0.173 HD
ENDROOT
BRANCH   2   5
ATOM      5  C   UNL     1      -0.262  -7.917  -0.038  0.00  0.00    +0.088 A 
ATOM      6  C   UNL     1      -1.673  -7.841  -0.030  0.00  0.00    +0.148 A 
ATOM      7  N   UNL     1      -2.143  -9.058  -0.030  0.00  0.00    -0.174 NA
ATOM      8  N   UNL     1      -1.072  -9.959  -0.038  0.00  0.00    -0.227 N 
ATOM      9  C   UNL     1       0.075  -9.256  -0.048  0.00  0.00    +0.159 A 
BRANCH   8  10
ATOM     10  C   UNL     1      -1.177 -11.357  -0.040  0.00  0.00    +0.066 A 
ATOM     11  C   UNL     1      -0.247 -12.123  -0.731  0.00  0.00    +0.030 A 
ATOM     12  C   UNL     1      -0.352 -13.499  -0.733  0.00  0.00    +0.040 A 
ATOM     13  C   UNL     1      -1.384 -14.117  -0.045  0.00  0.00    +0.124 A 
ATOM     14  C   UNL     1      -2.312 -13.355   0.644  0.00  0.00    +0.040 A 
ATOM     15  C   UNL     1      -2.207 -11.978   0.653  0.00  0.00    +0.030 A 
ATOM     16  F   UNL     1      -1.485 -15.464  -0.048  0.00  0.00    -0.205 F 
ENDBRANCH   8  10
BRANCH   9  17
ATOM     17  C   UNL     1       1.470  -9.826  -0.065  0.00  0.00    +0.435 C 
ATOM     18  F   UNL     1       1.889  -9.995  -1.389  0.00  0.00    -0.164 F 
ATOM     19  F   UNL     1       2.340  -8.948   0.592  0.00  0.00    -0.164 F 
ATOM     20  F   UNL     1       1.476 -11.063   0.588  0.00  0.00    -0.164 F 
ENDBRANCH   9  17
ENDBRANCH   2   5
BRANCH   1  23
ATOM     21  C   UNL     1       0.622  -3.174  -0.021  0.00  0.00    +0.258 C 
ATOM     22  O   UNL     1      -0.578  -2.973  -0.008  0.00  0.00    -0.269 OA
ATOM     23  N   UNL     1       1.094  -4.436  -0.032  0.00  0.00    -0.230 N 
ATOM     24  H   UNL     1       2.051  -4.596  -0.043  0.00  0.00    +0.173 HD
BRANCH  21  31
ATOM     25  C   UNL     1      -0.016   1.346   0.009  0.00  0.00    +0.001 A 
ATOM     26  C   UNL     1       1.158   2.116   0.002  0.00  0.00    +0.002 A 
ATOM     27  C   UNL     1       2.384   1.551  -0.013  0.00  0.00    +0.026 A 
ATOM     28  C   UNL     1       2.495   0.083  -0.022  0.00  0.00    +0.043 A 
ATOM     29  N   UNL     1       3.529  -0.711  -0.036  0.00  0.00    -0.380 N 
ATOM     30  C   UNL     1       3.066  -2.103  -0.040  0.00  0.00    +0.154 C 
ATOM     31  C   UNL     1       1.555  -2.042  -0.024  0.00  0.00    +0.044 C 
ATOM     32  C   UNL     1       1.237  -0.701  -0.013  0.00  0.00    +0.008 A 
ATOM     33  C   UNL     1       0.002  -0.004   0.002  0.00  0.00    +0.010 A 
ATOM     34  H   UNL     1       4.456  -0.427  -0.044  0.00  0.00    +0.160 HD
ENDBRANCH  21  31
ENDBRANCH   1  23
TORSDOF 5
