REMARK  Name = ZINC20877375
REMARK  4 active torsions:
REMARK  status: ('A' for Active; 'I' for Inactive)
REMARK    1  A    between atoms: C_1  and  N_2
REMARK    2  A    between atoms: N_7  and  C_8
REMARK    3  A    between atoms: C_8  and  C_9
REMARK    4  A    between atoms: C_12  and  C_14
REMARK                            x       y       z     vdW  Elec       q    Type
REMARK                         _______ _______ _______ _____ _____    ______ ____
ROOT
ATOM      1  C   UNL     1      -3.342   2.741  -0.509  0.00  0.00    +0.123 A 
ATOM      2  C   UNL     1      -2.957   3.515   0.524  0.00  0.00    +0.047 A 
ATOM      3  C   UNL     1      -1.651   3.117   0.874  0.00  0.00    +0.050 A 
ATOM      4  C   UNL     1      -1.305   2.117   0.020  0.00  0.00    +0.137 A 
ATOM      5  O   UNL     1      -2.341   1.898  -0.812  0.00  0.00    -0.458 OA
ENDROOT
BRANCH   4   6
ATOM      6  C   UNL     1      -0.017   1.393   0.010  0.00  0.00    +0.036 A 
ATOM      7  C   UNL     1       1.186   2.101   0.002  0.00  0.00    +0.014 A 
ATOM      8  C   UNL     1       2.385   1.419  -0.014  0.00  0.00    +0.016 A 
ATOM      9  C   UNL     1       2.398   0.035  -0.021  0.00  0.00    +0.019 A 
ATOM     10  C   UNL     1       1.209  -0.675  -0.013  0.00  0.00    +0.036 A 
ATOM     11  C   UNL     1       0.002  -0.004   0.002  0.00  0.00    +0.053 A 
ATOM     12 CL   UNL     1      -1.488  -0.895   0.011  0.00  0.00    -0.083 Cl
ATOM     13 BR   UNL     1       4.046  -0.892  -0.042  0.00  0.00    -0.050 Br
ENDBRANCH   4   6
BRANCH   1  14
ATOM     14  C   UNL     1      -4.675   2.811  -1.210  0.00  0.00    +0.179 C 
BRANCH  14  21
ATOM     15  C   UNL     1      -4.707   5.695  -4.697  0.00  0.00    +0.178 C 
ATOM     16  N   UNL     1      -5.774   4.841  -4.168  0.00  0.00    -0.217 N 
ATOM     17  C   UNL     1      -5.702   3.993  -3.117  0.00  0.00    +0.235 A 
ATOM     18  N   UNL     1      -6.886   3.434  -2.988  0.00  0.00    -0.092 NA
ATOM     19  N   UNL     1      -7.689   3.872  -3.889  0.00  0.00    -0.021 NA
ATOM     20  N   UNL     1      -7.091   4.726  -4.647  0.00  0.00    -0.043 NA
ATOM     21  N   UNL     1      -4.593   3.760  -2.322  0.00  0.00    -0.305 N 
ATOM     22  H   UNL     1      -3.650   4.289  -2.526  0.00  0.00    +0.149 HD
ENDBRANCH  14  21
ENDBRANCH   1  14
TORSDOF 3
