REMARK  Name = ZINC63138195
REMARK  7 active torsions:
REMARK  status: ('A' for Active; 'I' for Inactive)
REMARK    1  A    between atoms: C_1  and  O_2
REMARK    2  A    between atoms: O_2  and  C_3
REMARK    3  A    between atoms: C_7  and  C_9
REMARK    4  A    between atoms: N_28  and  C_31
REMARK    5  A    between atoms: C_31  and  C_32
REMARK    6  A    between atoms: C_32  and  C_34
REMARK    7  A    between atoms: C_32  and  O_40
REMARK                            x       y       z     vdW  Elec       q    Type
REMARK                         _______ _______ _______ _____ _____    ______ ____
ROOT
ATOM      1  C   UNL     1       1.325  -4.106  -2.289  0.00  0.00    +0.134 C 
ATOM      2  C   UNL     1       2.694  -4.581  -1.802  0.00  0.00    +0.131 C 
ATOM      3  C   UNL     1       2.812  -6.037  -2.245  0.00  0.00    -0.034 C 
ATOM      4  C   UNL     1       2.946  -6.762  -1.143  0.00  0.00    -0.001 A 
ATOM      5  C   UNL     1       3.127  -8.208  -0.937  0.00  0.00    +0.010 A 
ATOM      6  C   UNL     1       3.229  -8.623   0.353  0.00  0.00    +0.001 A 
ATOM      7  C   UNL     1       3.169  -7.754   1.447  0.00  0.00    +0.002 A 
ATOM      8  C   UNL     1       3.007  -6.410   1.351  0.00  0.00    +0.026 A 
ATOM      9  C   UNL     1       2.889  -5.854   0.043  0.00  0.00    +0.043 A 
ATOM     10  N   UNL     1       2.740  -4.601  -0.334  0.00  0.00    -0.375 N 
ATOM     11  C   UNL     1       2.739  -6.419  -3.698  0.00  0.00    +0.065 C 
ATOM     12  C   UNL     1       1.666  -5.615  -4.384  0.00  0.00    +0.167 C 
ATOM     13  N   UNL     1       1.065  -4.515  -3.661  0.00  0.00    -0.279 N 
ATOM     14  C   UNL     1       0.103  -3.816  -4.348  0.00  0.00    +0.234 C 
ATOM     15  O   UNL     1      -0.427  -2.833  -3.875  0.00  0.00    -0.274 OA
ATOM     16  C   UNL     1      -0.265  -4.330  -5.724  0.00  0.00    +0.203 C 
ATOM     17  N   UNL     1      -0.399  -5.796  -5.655  0.00  0.00    -0.288 N 
ATOM     18  C   UNL     1       0.585  -6.472  -4.993  0.00  0.00    +0.237 C 
ATOM     19  O   UNL     1       0.593  -7.681  -4.904  0.00  0.00    -0.274 OA
ATOM     20  H   UNL     1       2.669  -3.825   0.244  0.00  0.00    +0.160 HD
ENDROOT
BRANCH   1  25
ATOM     21  C   UNL     1       0.606  -0.607  -1.056  0.00  0.00    +0.120 A 
ATOM     22  C   UNL     1       1.173   0.161  -2.063  0.00  0.00    +0.045 A 
ATOM     23  C   UNL     1       1.786  -0.455  -3.136  0.00  0.00    +0.004 A 
ATOM     24  C   UNL     1       1.836  -1.835  -3.208  0.00  0.00    +0.006 A 
ATOM     25  C   UNL     1       1.271  -2.602  -2.207  0.00  0.00    -0.021 A 
ATOM     26  C   UNL     1       0.661  -1.991  -1.128  0.00  0.00    +0.051 A 
BRANCH  21  28
ATOM     27  C   UNL     1      -0.017   1.425   0.010  0.00  0.00    +0.277 C 
ATOM     28  O   UNL     1       0.002  -0.004   0.002  0.00  0.00    -0.495 OA
ENDBRANCH  21  28
ENDBRANCH   1  25
BRANCH  17  29
ATOM     29  C   UNL     1      -1.534  -6.495  -6.264  0.00  0.00    +0.144 C 
BRANCH  29  30
ATOM     30  C   UNL     1      -1.190  -6.864  -7.708  0.00  0.00    +0.162 C 
BRANCH  30  31
ATOM     31  C   UNL     1      -2.357  -7.582  -8.335  0.00  0.00    -0.018 A 
ATOM     32  C   UNL     1      -3.386  -6.859  -8.909  0.00  0.00    +0.006 A 
ATOM     33  C   UNL     1      -4.457  -7.519  -9.484  0.00  0.00    +0.000 A 
ATOM     34  C   UNL     1      -4.498  -8.900  -9.484  0.00  0.00    +0.000 A 
ATOM     35  C   UNL     1      -3.469  -9.623  -8.910  0.00  0.00    +0.000 A 
ATOM     36  C   UNL     1      -2.396  -8.964  -8.340  0.00  0.00    +0.006 A 
ENDBRANCH  30  31
BRANCH  30  37
ATOM     37  O   UNL     1      -0.909  -5.675  -8.450  0.00  0.00    -0.386 OA
ATOM     38  H   UNL     1      -1.645  -5.048  -8.482  0.00  0.00    +0.210 HD
ENDBRANCH  30  37
ENDBRANCH  29  30
ENDBRANCH  17  29
TORSDOF 6
