REMARK  Name = ZINC67301231
REMARK  5 active torsions:
REMARK  status: ('A' for Active; 'I' for Inactive)
REMARK    1  A    between atoms: C_1  and  C_2
REMARK    2  A    between atoms: C_2  and  N_3
REMARK    3  A    between atoms: N_6  and  C_7
REMARK    4  A    between atoms: C_11  and  N_13
REMARK    5  A    between atoms: C_14  and  C_16
REMARK                            x       y       z     vdW  Elec       q    Type
REMARK                         _______ _______ _______ _____ _____    ______ ____
ROOT
ATOM      1  C   UNL     1       1.580  -3.753   2.629  0.00  0.00    +0.037 A 
ATOM      2  C   UNL     1       0.780  -4.602   1.874  0.00  0.00    +0.023 A 
ATOM      3  C   UNL     1       0.711  -5.946   2.185  0.00  0.00    +0.004 A 
ATOM      4  C   UNL     1       1.435  -6.451   3.248  0.00  0.00    +0.023 A 
ATOM      5  C   UNL     1       2.236  -5.607   4.007  0.00  0.00    +0.035 A 
ATOM      6  C   UNL     1       2.313  -4.258   3.693  0.00  0.00    +0.046 A 
ENDROOT
BRANCH   1  10
ATOM      7  N   UNL     1       2.898  -0.430   2.100  0.00  0.00    -0.299 N 
ATOM      8  C   UNL     1       2.806  -1.719   2.483  0.00  0.00    +0.304 C 
ATOM      9  O   UNL     1       3.766  -2.275   2.980  0.00  0.00    -0.253 OA
ATOM     10  N   UNL     1       1.650  -2.391   2.314  0.00  0.00    -0.269 N 
ATOM     11  H   UNL     1       2.132   0.014   1.703  0.00  0.00    +0.150 HD
ATOM     12  H   UNL     1       0.867  -1.931   1.973  0.00  0.00    +0.156 HD
BRANCH   7  14
ATOM     13  C   UNL     1       3.991   1.733   1.771  0.00  0.00    +0.024 C 
ATOM     14  C   UNL     1       4.154   0.301   2.284  0.00  0.00    +0.102 C 
ENDBRANCH   7  14
ENDBRANCH   1  10
BRANCH   5  15
ATOM     15  N   UNL     1       2.969  -6.119   5.083  0.00  0.00    -0.285 N 
ATOM     16  C   UNL     1       3.484  -7.363   5.018  0.00  0.00    +0.225 C 
ATOM     17  O   UNL     1       3.300  -8.044   4.031  0.00  0.00    -0.275 OA
ATOM     18  H   UNL     1       3.106  -5.579   5.877  0.00  0.00    +0.155 HD
BRANCH  16  19
ATOM     19  C   UNL     1       4.288  -7.907   6.170  0.00  0.00    +0.105 C 
ATOM     20  C   UNL     1       4.551  -9.395   5.942  0.00  0.00    +0.018 C 
ATOM     21  C   UNL     1       5.546  -9.878   7.003  0.00  0.00    +0.006 C 
ATOM     22  C   UNL     1       6.911  -9.261   6.700  0.00  0.00    +0.035 C 
ATOM     23  C   UNL     1       6.790  -7.771   6.519  0.00  0.00    -0.043 A 
ATOM     24  C   UNL     1       5.586  -7.150   6.271  0.00  0.00    -0.032 A 
ATOM     25  C   UNL     1       5.545  -5.772   6.107  0.00  0.00    +0.004 A 
ATOM     26  C   UNL     1       6.700  -5.021   6.193  0.00  0.00    +0.000 A 
ATOM     27  C   UNL     1       7.907  -5.645   6.445  0.00  0.00    +0.000 A 
ATOM     28  C   UNL     1       7.950  -7.013   6.607  0.00  0.00    +0.004 A 
ENDBRANCH  16  19
ENDBRANCH   5  15
TORSDOF 4
