REMARK  Name = ZINC20945429
REMARK  10 active torsions:
REMARK  status: ('A' for Active; 'I' for Inactive)
REMARK    1  A    between atoms: C_1  and  C_2
REMARK    2  A    between atoms: C_5  and  C_9
REMARK    3  A    between atoms: C_6  and  C_8
REMARK    4  A    between atoms: C_9  and  C_11
REMARK    5  A    between atoms: C_9  and  N_15
REMARK    6  A    between atoms: C_11  and  C_12
REMARK    7  A    between atoms: N_15  and  S_16
REMARK    8  A    between atoms: S_16  and  C_19
REMARK    9  A    between atoms: C_26  and  C_32
REMARK   10  A    between atoms: C_29  and  C_31
REMARK                            x       y       z     vdW  Elec       q    Type
REMARK                         _______ _______ _______ _____ _____    ______ ____
ROOT
ATOM      1  S   UNL     1       0.192   1.385   0.308  0.00  0.00    +0.059 S 
ATOM      2  O   UNL     1       0.320  -0.030   0.346  0.00  0.00    -0.153 OA
ATOM      3  O   UNL     1       1.317   2.252   0.335  0.00  0.00    -0.153 OA
ENDROOT
BRANCH   1   4
ATOM      4  C   UNL     1      -0.707   1.770  -1.158  0.00  0.00    +0.106 A 
ATOM      5  C   UNL     1      -0.646   3.043  -1.694  0.00  0.00    +0.030 A 
ATOM      6  C   UNL     1      -1.347   3.347  -2.841  0.00  0.00    +0.026 A 
ATOM      7  C   UNL     1      -2.124   2.373  -3.470  0.00  0.00    +0.040 A 
ATOM      8  C   UNL     1      -2.179   1.100  -2.925  0.00  0.00    -0.022 A 
ATOM      9  C   UNL     1      -1.469   0.798  -1.779  0.00  0.00    +0.034 A 
ATOM     10  C   UNL     1      -3.079   0.245  -3.788  0.00  0.00    +0.059 C 
ATOM     11  C   UNL     1      -3.546   1.185  -4.912  0.00  0.00    +0.083 C 
ATOM     12  N   UNL     1      -2.904   2.471  -4.627  0.00  0.00    -0.268 N 
ATOM     13  C   UNL     1      -3.044   3.586  -5.372  0.00  0.00    +0.217 C 
ATOM     14  O   UNL     1      -3.745   3.570  -6.361  0.00  0.00    -0.276 OA
ATOM     15  C   UNL     1      -2.329   4.852  -4.975  0.00  0.00    +0.109 C 
ATOM     16  C   UNL     1      -5.068   1.332  -4.883  0.00  0.00    +0.029 C 
ENDBRANCH   1   4
BRANCH   1  17
ATOM     17  N   UNL     1      -0.764   1.808   1.593  0.00  0.00    -0.182 NA
ATOM     18  H   UNL     1      -0.511   2.705   2.178  0.00  0.00    +0.149 HD
BRANCH  17  19
ATOM     19  C   UNL     1      -2.043   1.129   1.810  0.00  0.00    +0.117 C 
BRANCH  19  24
ATOM     20  C   UNL     1      -1.280  -3.304   5.438  0.00  0.00    +0.044 C 
ATOM     21  C   UNL     1      -1.479  -2.148   4.492  0.00  0.00    -0.050 A 
ATOM     22  C   UNL     1      -0.610  -1.073   4.520  0.00  0.00    +0.004 A 
ATOM     23  C   UNL     1      -0.789  -0.015   3.650  0.00  0.00    +0.006 A 
ATOM     24  C   UNL     1      -1.845  -0.027   2.756  0.00  0.00    -0.025 A 
ATOM     25  C   UNL     1      -2.714  -1.101   2.727  0.00  0.00    -0.045 A 
ATOM     26  C   UNL     1      -2.531  -2.162   3.595  0.00  0.00    +0.007 A 
ATOM     27  C   UNL     1      -3.860  -1.117   1.750  0.00  0.00    +0.044 C 
ENDBRANCH  19  24
BRANCH  19  28
ATOM     28  C   UNL     1      -3.048   2.113   2.411  0.00  0.00    +0.150 C 
BRANCH  28  29
ATOM     29  C   UNL     1      -3.355   3.194   1.407  0.00  0.00    +0.358 C 
ATOM     30  O   UNL     1      -2.908   3.123   0.286  0.00  0.00    -0.246 OA
ATOM     31  O   UNL     1      -4.124   4.237   1.757  0.00  0.00    -0.246 OA
ENDBRANCH  28  29
ENDBRANCH  19  28
ENDBRANCH  17  19
ENDBRANCH   1  17
TORSDOF 6
