REMARK  Name = ZINC08709440
REMARK  4 active torsions:
REMARK  status: ('A' for Active; 'I' for Inactive)
REMARK    1  A    between atoms: C_1  and  C_2
REMARK    2  A    between atoms: C_2  and  C_21
REMARK    3  A    between atoms: N_5  and  C_9
REMARK    4  A    between atoms: C_9  and  C_10
REMARK                            x       y       z     vdW  Elec       q    Type
REMARK                         _______ _______ _______ _____ _____    ______ ____
ROOT
ATOM      1  C   UNL     1      -0.013   1.086   0.008  0.00  0.00    +0.047 C 
ATOM      2  C   UNL     1      -0.729   1.579   1.267  0.00  0.00    +0.135 C 
ATOM      3  C   UNL     1      -0.026   1.077   2.512  0.00  0.00    +0.251 C 
ATOM      4  O   UNL     1       1.113   1.313   2.856  0.00  0.00    -0.272 OA
ATOM      5  N   UNL     1      -0.929   0.314   3.158  0.00  0.00    -0.220 N 
ATOM      6  C   UNL     1      -2.094   0.265   2.501  0.00  0.00    +0.310 C 
ATOM      7  O   UNL     1      -3.062  -0.361   2.887  0.00  0.00    -0.252 OA
ATOM      8  N   UNL     1      -2.073   0.985   1.365  0.00  0.00    -0.281 N 
ATOM      9  H   UNL     1      -2.802   1.093   0.734  0.00  0.00    +0.152 HD
ENDROOT
BRANCH   2  10
ATOM     10  C   UNL     1      -0.809   3.084   1.274  0.00  0.00    -0.012 A 
ATOM     11  C   UNL     1       0.197   3.825   1.866  0.00  0.00    +0.010 A 
ATOM     12  C   UNL     1       0.128   5.206   1.875  0.00  0.00    +0.050 A 
ATOM     13  C   UNL     1      -0.950   5.851   1.289  0.00  0.00    +0.166 A 
ATOM     14  C   UNL     1      -1.962   5.104   0.693  0.00  0.00    +0.167 A 
ATOM     15  C   UNL     1      -1.885   3.720   0.683  0.00  0.00    +0.055 A 
ATOM     16  O   UNL     1      -2.900   5.961   0.193  0.00  0.00    -0.453 OA
ATOM     17  C   UNL     1      -2.656   7.220   0.846  0.00  0.00    +0.466 C 
ATOM     18  O   UNL     1      -1.252   7.176   1.163  0.00  0.00    -0.453 OA
ENDBRANCH   2  10
BRANCH   5  19
ATOM     19  C   UNL     1      -0.669  -0.378   4.423  0.00  0.00    +0.166 C 
BRANCH  19  20
ATOM     20  C   UNL     1      -1.036   0.540   5.591  0.00  0.00    +0.229 C 
ATOM     21  C   UNL     1      -0.663  -0.136   6.917  0.00  0.00    +0.275 C 
ATOM     22  O   UNL     1      -1.032   0.742   7.987  0.00  0.00    -0.485 OA
ATOM     23  C   UNL     1      -2.270   1.304   7.918  0.00  0.00    +0.162 A 
ATOM     24  C   UNL     1      -2.829   1.860   9.058  0.00  0.00    +0.049 A 
ATOM     25  C   UNL     1      -4.084   2.437   9.003  0.00  0.00    +0.004 A 
ATOM     26  C   UNL     1      -4.784   2.462   7.811  0.00  0.00    +0.004 A 
ATOM     27  C   UNL     1      -4.233   1.908   6.672  0.00  0.00    +0.049 A 
ATOM     28  C   UNL     1      -2.975   1.326   6.721  0.00  0.00    +0.163 A 
ATOM     29  O   UNL     1      -2.448   0.779   5.591  0.00  0.00    -0.480 OA
ENDBRANCH  19  20
ENDBRANCH   5  19
TORSDOF 3
