REMARK  Name = ZINC52627902
REMARK  9 active torsions:
REMARK  status: ('A' for Active; 'I' for Inactive)
REMARK    1  A    between atoms: C_1  and  C_2
REMARK    2  A    between atoms: C_2  and  C_3
REMARK    3  A    between atoms: C_7  and  C_13
REMARK    4  A    between atoms: C_15  and  O_19
REMARK    5  A    between atoms: O_19  and  C_20
REMARK    6  A    between atoms: C_20  and  C_21
REMARK    7  A    between atoms: C_21  and  C_23
REMARK    8  A    between atoms: C_21  and  N_33
REMARK    9  A    between atoms: C_23  and  C_24
REMARK                            x       y       z     vdW  Elec       q    Type
REMARK                         _______ _______ _______ _____ _____    ______ ____
ROOT
ATOM      1  C   UNL     1       0.353  -4.128   6.149  0.00  0.00    +0.004 A 
ATOM      2  C   UNL     1       1.072  -4.554   7.268  0.00  0.00    +0.057 A 
ATOM      3  C   UNL     1       0.467  -5.454   8.135  0.00  0.00    +0.139 A 
ATOM      4  C   UNL     1      -0.821  -5.896   7.862  0.00  0.00    +0.156 A 
ATOM      5  N   UNL     1      -1.471  -5.473   6.796  0.00  0.00    -0.259 NA
ATOM      6  C   UNL     1      -0.938  -4.615   5.950  0.00  0.00    +0.119 A 
ENDROOT
BRANCH   1  11
ATOM      7  C   UNL     1       0.731  -0.503   1.223  0.00  0.00    +0.042 A 
ATOM      8  C   UNL     1       0.106  -1.385   2.052  0.00  0.00    +0.031 A 
ATOM      9  C   UNL     1       0.795  -1.846   3.190  0.00  0.00    -0.014 A 
ATOM     10  C   UNL     1       0.222  -2.753   4.090  0.00  0.00    +0.017 A 
ATOM     11  C   UNL     1       0.951  -3.168   5.190  0.00  0.00    -0.016 A 
ATOM     12  C   UNL     1       2.253  -2.687   5.407  0.00  0.00    +0.009 A 
ATOM     13  C   UNL     1       2.826  -1.807   4.545  0.00  0.00    +0.010 A 
ATOM     14  C   UNL     1       2.112  -1.366   3.418  0.00  0.00    +0.000 A 
ATOM     15  C   UNL     1       2.663  -0.458   2.500  0.00  0.00    +0.119 A 
ATOM     16  N   UNL     1       1.964  -0.076   1.457  0.00  0.00    -0.259 NA
BRANCH   7  18
ATOM     17  C   UNL     1      -0.019   1.526   0.010  0.00  0.00    +0.010 C 
ATOM     18  C   UNL     1       0.002  -0.004   0.002  0.00  0.00    +0.052 C 
ENDBRANCH   7  18
ENDBRANCH   1  11
BRANCH   3  19
ATOM     19  O   UNL     1       1.127  -5.898   9.238  0.00  0.00    -0.492 OA
BRANCH  19  20
ATOM     20  C   UNL     1       0.436  -6.822  10.079  0.00  0.00    +0.213 C 
BRANCH  20  21
ATOM     21  C   UNL     1       1.331  -7.205  11.260  0.00  0.00    -0.033 C 
BRANCH  21  22
ATOM     22  N   UNL     1       1.570  -6.022  12.097  0.00  0.00    +0.382 N 
ATOM     23  H   UNL     1       2.161  -6.274  12.875  0.00  0.00    -0.089 HD
ATOM     24  H   UNL     1       2.025  -5.308  11.547  0.00  0.00    -0.089 HD
ATOM     25  H   UNL     1       0.690  -5.671  12.442  0.00  0.00    -0.089 HD
ENDBRANCH  21  22
BRANCH  21  26
ATOM     26  C   UNL     1       0.641  -8.288  12.093  0.00  0.00    +0.020 C 
BRANCH  26  27
ATOM     27  C   UNL     1       1.573  -8.752  13.183  0.00  0.00    -0.043 C 
ATOM     28  C   UNL     1       1.613  -8.311  14.461  0.00  0.00    -0.001 A 
ATOM     29  C   UNL     1       0.833  -7.304  15.190  0.00  0.00    +0.010 A 
ATOM     30  C   UNL     1       1.112  -7.075  16.493  0.00  0.00    +0.001 A 
ATOM     31  C   UNL     1       2.125  -7.774  17.164  0.00  0.00    +0.002 A 
ATOM     32  C   UNL     1       2.885  -8.714  16.561  0.00  0.00    +0.026 A 
ATOM     33  C   UNL     1       2.678  -9.035  15.191  0.00  0.00    +0.043 A 
ATOM     34  N   UNL     1       3.272  -9.891  14.396  0.00  0.00    -0.380 N 
ATOM     35  C   UNL     1       2.647  -9.811  13.071  0.00  0.00    +0.144 C 
ATOM     36  H   UNL     1       4.000 -10.482  14.643  0.00  0.00    +0.160 HD
ENDBRANCH  26  27
ENDBRANCH  21  26
ENDBRANCH  20  21
ENDBRANCH  19  20
ENDBRANCH   3  19
TORSDOF 8
