REMARK  Name = ZINC67209300
REMARK  6 active torsions:
REMARK  status: ('A' for Active; 'I' for Inactive)
REMARK    1  A    between atoms: C_1  and  C_2
REMARK    2  A    between atoms: C_2  and  C_4
REMARK    3  A    between atoms: C_2  and  N_20
REMARK    4  A    between atoms: C_8  and  N_17
REMARK    5  A    between atoms: N_17  and  C_18
REMARK    6  A    between atoms: N_17  and  C_19
REMARK                            x       y       z     vdW  Elec       q    Type
REMARK                         _______ _______ _______ _____ _____    ______ ____
ROOT
ATOM      1  C   UNL     1       0.755  -0.446  -1.343  0.00  0.00    +0.241 C 
ATOM      2  O   UNL     1       0.170   0.038  -0.397  0.00  0.00    -0.273 OA
ATOM      3  N   UNL     1       0.325  -0.202  -2.597  0.00  0.00    -0.271 N 
ATOM      4  C   UNL     1       0.934  -0.891  -3.743  0.00  0.00    +0.099 C 
ATOM      5  C   UNL     1      -0.200  -1.360  -4.664  0.00  0.00    -0.047 C 
ATOM      6  C   UNL     1      -0.944  -0.135  -5.196  0.00  0.00    +0.023 C 
ATOM      7  C   UNL     1      -1.343   0.772  -4.062  0.00  0.00    -0.027 A 
ATOM      8  C   UNL     1      -0.715   0.710  -2.830  0.00  0.00    +0.039 A 
ATOM      9  C   UNL     1      -1.110   1.561  -1.805  0.00  0.00    +0.024 A 
ATOM     10  C   UNL     1      -2.134   2.464  -2.013  0.00  0.00    +0.002 A 
ATOM     11  C   UNL     1      -2.766   2.519  -3.241  0.00  0.00    +0.000 A 
ATOM     12  C   UNL     1      -2.366   1.684  -4.263  0.00  0.00    +0.005 A 
ENDROOT
BRANCH   5  13
ATOM     13  N   UNL     1       0.361  -2.123  -5.787  0.00  0.00    +0.379 N 
ATOM     14  C   UNL     1       1.086  -3.292  -5.270  0.00  0.00    -0.096 C 
ATOM     15  C   UNL     1      -0.726  -2.571  -6.667  0.00  0.00    -0.096 C 
ATOM     16  H   UNL     1       0.996  -1.537  -6.308  0.00  0.00    -0.082 HD
ENDBRANCH   5  13
BRANCH   1  18
ATOM     17  C   UNL     1       1.601  -2.775  -1.419  0.00  0.00    +0.038 C 
ATOM     18  C   UNL     1       1.962  -1.319  -1.117  0.00  0.00    +0.169 C 
BRANCH  18  19
ATOM     19  N   UNL     1       2.394  -1.202   0.277  0.00  0.00    -0.212 N 
ATOM     20  C   UNL     1       3.611  -0.759   0.660  0.00  0.00    +0.247 C 
ATOM     21  O   UNL     1       4.520  -0.396  -0.055  0.00  0.00    -0.273 OA
ATOM     22  C   UNL     1       3.598  -0.812   2.167  0.00  0.00    +0.113 C 
ATOM     23  C   UNL     1       4.698  -1.743   2.695  0.00  0.00    +0.035 C 
ATOM     24  C   UNL     1       5.847  -0.779   3.089  0.00  0.00    +0.003 C 
ATOM     25  C   UNL     1       5.090   0.442   3.669  0.00  0.00    +0.003 C 
ATOM     26  C   UNL     1       3.838   0.573   2.773  0.00  0.00    +0.035 C 
ATOM     27  N   UNL     1       2.268  -1.321   2.504  0.00  0.00    -0.285 N 
ATOM     28  C   UNL     1       1.631  -1.516   1.332  0.00  0.00    +0.310 C 
ATOM     29  O   UNL     1       0.493  -1.933   1.242  0.00  0.00    -0.252 OA
ATOM     30  H   UNL     1       1.914  -1.481   3.393  0.00  0.00    +0.151 HD
ENDBRANCH  18  19
ENDBRANCH   1  18
TORSDOF 3
