REMARK  Name = ZINC09915795
REMARK  13 active torsions:
REMARK  status: ('A' for Active; 'I' for Inactive)
REMARK    1  A    between atoms: C_1  and  C_2
REMARK    2  A    between atoms: C_6  and  O_13
REMARK    3  A    between atoms: O_13  and  C_14
REMARK    4  A    between atoms: C_14  and  C_29
REMARK    5  A    between atoms: C_15  and  C_27
REMARK    6  A    between atoms: C_15  and  O_28
REMARK    7  A    between atoms: C_16  and  C_25
REMARK    8  A    between atoms: C_16  and  O_26
REMARK    9  A    between atoms: C_17  and  C_23
REMARK   10  A    between atoms: C_17  and  O_24
REMARK   11  A    between atoms: C_18  and  C_20
REMARK   12  A    between atoms: C_18  and  C_21
REMARK   13  A    between atoms: C_21  and  O_22
REMARK                            x       y       z     vdW  Elec       q    Type
REMARK                         _______ _______ _______ _____ _____    ______ ____
ROOT
ATOM      1  C   UNL     1      -0.906   3.690   0.027  0.00  0.00    +0.242 C 
ATOM      2  C   UNL     1      -2.276   4.353   0.114  0.00  0.00    +0.159 C 
ATOM      3  C   UNL     1      -2.201   5.798   0.586  0.00  0.00    +0.129 C 
ATOM      4  C   UNL     1      -1.317   5.972   1.813  0.00  0.00    +0.125 C 
ATOM      5  C   UNL     1       0.039   5.291   1.651  0.00  0.00    +0.125 C 
ATOM      6  O   UNL     1      -0.075   3.988   1.124  0.00  0.00    -0.326 OA
ATOM      7  C   UNL     1       0.974   6.168   0.815  0.00  0.00    +0.047 C 
ATOM      8  C   UNL     1      -1.081   7.476   2.040  0.00  0.00    +0.047 C 
ATOM      9  C   UNL     1      -3.627   6.265   0.946  0.00  0.00    +0.047 C 
ATOM     10  C   UNL     1      -3.180   3.537   1.046  0.00  0.00    +0.051 C 
ATOM     11  C   UNL     1      -0.238   4.041  -1.306  0.00  0.00    +0.092 C 
ENDROOT
BRANCH   4  12
ATOM     12  O   UNL     1      -1.974   5.450   2.975  0.00  0.00    -0.383 OA
ATOM     13  H   UNL     1      -1.484   5.587   3.798  0.00  0.00    +0.210 HD
ENDBRANCH   4  12
BRANCH   3  14
ATOM     14  O   UNL     1      -1.731   6.635  -0.479  0.00  0.00    -0.383 OA
ATOM     15  H   UNL     1      -2.253   6.569  -1.290  0.00  0.00    +0.210 HD
ENDBRANCH   3  14
BRANCH   2  16
ATOM     16  O   UNL     1      -2.870   4.334  -1.198  0.00  0.00    -0.379 OA
ATOM     17  H   UNL     1      -2.993   3.446  -1.562  0.00  0.00    +0.211 HD
ENDBRANCH   2  16
BRANCH   1  18
ATOM     18  O   UNL     1      -1.124   2.259   0.020  0.00  0.00    -0.456 OA
BRANCH  18  24
ATOM     19  C   UNL     1       4.146   2.182  -0.026  0.00  0.00    +0.113 C 
ATOM     20  C   UNL     1       3.450   0.845  -0.026  0.00  0.00    +0.229 C 
ATOM     21  O   UNL     1       4.101  -0.177  -0.038  0.00  0.00    -0.273 OA
ATOM     22  N   UNL     1       2.103   0.786  -0.014  0.00  0.00    -0.284 N 
ATOM     23  C   UNL     1       1.260   1.878   0.000  0.00  0.00    +0.140 A 
ATOM     24  C   UNL     1      -0.018   1.465   0.010  0.00  0.00    +0.150 A 
ATOM     25  C   UNL     1       0.002  -0.004   0.002  0.00  0.00    +0.042 A 
ATOM     26  C   UNL     1       1.357  -0.379  -0.013  0.00  0.00    +0.060 A 
ATOM     27  C   UNL     1       1.693  -1.726  -0.023  0.00  0.00    +0.027 A 
ATOM     28  C   UNL     1       0.701  -2.683  -0.019  0.00  0.00    +0.002 A 
ATOM     29  C   UNL     1      -0.636  -2.314  -0.004  0.00  0.00    +0.001 A 
ATOM     30  C   UNL     1      -0.991  -0.983   0.006  0.00  0.00    +0.013 A 
ENDBRANCH  18  24
ENDBRANCH   1  18
BRANCH   5  31
ATOM     31  C   UNL     1       0.666   5.175   3.061  0.00  0.00    +0.193 C 
BRANCH  31  32
ATOM     32  O   UNL     1       1.999   4.672   2.950  0.00  0.00    -0.392 OA
ATOM     33  H   UNL     1       2.454   4.573   3.797  0.00  0.00    +0.210 HD
ENDBRANCH  31  32
ENDBRANCH   5  31
TORSDOF 7
