REMARK  Name = ZINC40125094
REMARK  10 active torsions:
REMARK  status: ('A' for Active; 'I' for Inactive)
REMARK    1  A    between atoms: C_1  and  C_2
REMARK    2  A    between atoms: C_2  and  N_3
REMARK    3  A    between atoms: N_3  and  C_4
REMARK    4  A    between atoms: N_3  and  C_6
REMARK    5  A    between atoms: C_4  and  C_5
REMARK    6  A    between atoms: C_9  and  C_12
REMARK    7  A    between atoms: C_14  and  C_20
REMARK    8  A    between atoms: C_20  and  C_22
REMARK    9  A    between atoms: C_23  and  C_28
REMARK   10  A    between atoms: C_25  and  C_27
REMARK                            x       y       z     vdW  Elec       q    Type
REMARK                         _______ _______ _______ _____ _____    ______ ____
ROOT
ATOM      1  C   UNL     1      -3.995  -1.524   4.937  0.00  0.00    +0.142 C 
ATOM      2  C   UNL     1      -4.068  -3.011   5.198  0.00  0.00    +0.077 C 
ATOM      3  C   UNL     1      -5.380  -3.328   5.286  0.00  0.00    +0.249 C 
ATOM      4  C   UNL     1      -6.189  -2.108   5.094  0.00  0.00    +0.285 C 
ATOM      5  O   UNL     1      -7.403  -2.065   5.118  0.00  0.00    -0.267 OA
ATOM      6  N   UNL     1      -5.383  -1.048   4.890  0.00  0.00    -0.298 N 
ATOM      7  O   UNL     1      -5.873  -4.568   5.514  0.00  0.00    -0.282 OA
ATOM      8  H   UNL     1      -5.668  -0.133   4.739  0.00  0.00    +0.150 HD
ENDROOT
BRANCH   1  12
ATOM      9  C   UNL     1      -2.058  -0.781   1.201  0.00  0.00    +0.030 A 
ATOM     10  C   UNL     1      -1.392  -0.527   2.393  0.00  0.00    +0.023 A 
ATOM     11  C   UNL     1      -2.021  -0.768   3.599  0.00  0.00    +0.007 A 
ATOM     12  C   UNL     1      -3.312  -1.262   3.620  0.00  0.00    -0.022 A 
ATOM     13  C   UNL     1      -3.978  -1.516   2.435  0.00  0.00    +0.007 A 
ATOM     14  C   UNL     1      -3.357  -1.272   1.226  0.00  0.00    +0.023 A 
BRANCH   9  15
ATOM     15  N   UNL     1      -1.425  -0.539  -0.020  0.00  0.00    -0.330 N 
BRANCH  15  17
ATOM     16  C   UNL     1      -0.087   1.509  -0.049  0.00  0.00    +0.024 C 
ATOM     17  C   UNL     1      -0.054  -0.021  -0.045  0.00  0.00    +0.102 C 
ENDBRANCH  15  17
BRANCH  15  18
ATOM     18  C   UNL     1      -2.131  -0.802  -1.277  0.00  0.00    +0.102 C 
ATOM     19  C   UNL     1      -1.867  -2.243  -1.718  0.00  0.00    +0.024 C 
ENDBRANCH  15  18
ENDBRANCH   9  15
ENDBRANCH   1  12
BRANCH   2  20
ATOM     20  C   UNL     1      -2.933  -3.933   5.330  0.00  0.00    +0.203 C 
ATOM     21  O   UNL     1      -2.762  -4.810   4.502  0.00  0.00    -0.286 OA
BRANCH  20  22
ATOM     22  C   UNL     1      -2.006  -3.798   6.458  0.00  0.00    +0.082 A 
ATOM     23  C   UNL     1      -0.830  -4.487   6.729  0.00  0.00    +0.057 A 
ATOM     24  N   UNL     1      -0.201  -4.149   7.826  0.00  0.00    -0.249 NA
ATOM     25  C   UNL     1      -0.659  -3.212   8.624  0.00  0.00    +0.076 A 
ATOM     26  S   UNL     1      -2.070  -2.698   7.863  0.00  0.00    -0.069 S 
ATOM     27  C   UNL     1      -0.060  -2.710   9.913  0.00  0.00    +0.073 C 
ATOM     28  C   UNL     1      -0.308  -5.563   5.811  0.00  0.00    +0.067 C 
ENDBRANCH  20  22
ENDBRANCH   2  20
TORSDOF 6
