REMARK  Name = ZINC20243060
REMARK  5 active torsions:
REMARK  status: ('A' for Active; 'I' for Inactive)
REMARK    1  A    between atoms: C_1  and  C_2
REMARK    2  A    between atoms: C_5  and  C_38
REMARK    3  A    between atoms: C_10  and  C_12
REMARK    4  A    between atoms: N_18  and  C_30
REMARK    5  A    between atoms: C_30  and  C_31
REMARK                            x       y       z     vdW  Elec       q    Type
REMARK                         _______ _______ _______ _____ _____    ______ ____
ROOT
ATOM      1  C   UNL     1      -2.964   3.868  -1.931  0.00  0.00    +0.039 A 
ATOM      2  C   UNL     1      -2.909   2.474  -1.872  0.00  0.00    +0.015 A 
ATOM      3  C   UNL     1      -4.080   1.744  -1.895  0.00  0.00    +0.030 A 
ATOM      4  C   UNL     1      -5.301   2.385  -1.992  0.00  0.00    +0.115 A 
ATOM      5  C   UNL     1      -5.374   3.769  -2.050  0.00  0.00    +0.063 A 
ATOM      6  C   UNL     1      -4.195   4.511  -2.020  0.00  0.00    +0.038 A 
ATOM      7  N   UNL     1      -6.582   4.439  -2.119  0.00  0.00    -0.261 N 
ATOM      8  C   UNL     1      -7.644   4.229  -2.848  0.00  0.00    +0.253 C 
ATOM      9  O   UNL     1      -8.546   5.029  -2.691  0.00  0.00    -0.270 OA
ATOM     10  C   UNL     1      -7.911   3.173  -3.826  0.00  0.00    +0.062 A 
ATOM     11  C   UNL     1      -8.522   3.495  -5.045  0.00  0.00    +0.015 A 
ATOM     12  C   UNL     1      -8.783   2.509  -5.970  0.00  0.00    +0.001 A 
ATOM     13  C   UNL     1      -8.446   1.193  -5.704  0.00  0.00    +0.002 A 
ATOM     14  C   UNL     1      -7.839   0.864  -4.504  0.00  0.00    +0.028 A 
ATOM     15  C   UNL     1      -7.571   1.843  -3.574  0.00  0.00    +0.106 A 
ATOM     16  S   UNL     1      -6.784   1.428  -2.051  0.00  0.00    +0.028 S 
ATOM     17  O   UNL     1      -7.623   1.910  -1.011  0.00  0.00    -0.164 OA
ATOM     18  O   UNL     1      -6.393   0.065  -2.149  0.00  0.00    -0.164 OA
ENDROOT
BRANCH   1  26
ATOM     19  C   UNL     1      -0.281   2.125   1.934  0.00  0.00    +0.009 C 
ATOM     20  C   UNL     1      -0.304   3.388   1.070  0.00  0.00    +0.004 C 
ATOM     21  C   UNL     1       1.101   3.991   1.009  0.00  0.00    +0.009 C 
ATOM     22  C   UNL     1       1.073   5.271   0.172  0.00  0.00    +0.004 C 
ATOM     23  C   UNL     1       0.629   4.934  -1.255  0.00  0.00    +0.111 C 
ATOM     24  N   UNL     1      -0.656   4.224  -1.195  0.00  0.00    -0.297 N 
ATOM     25  C   UNL     1      -0.763   3.029  -0.347  0.00  0.00    +0.111 C 
ATOM     26  C   UNL     1      -1.715   4.659  -1.906  0.00  0.00    +0.247 C 
ATOM     27  O   UNL     1      -1.644   5.702  -2.526  0.00  0.00    -0.270 OA
ATOM     28  C   UNL     1       0.088   6.265   0.792  0.00  0.00    +0.009 C 
ENDBRANCH   1  26
BRANCH   7  29
ATOM     29  C   UNL     1      -6.687   5.589  -1.217  0.00  0.00    +0.149 C 
BRANCH  29  30
ATOM     30  C   UNL     1      -7.313   5.151   0.082  0.00  0.00    -0.030 A 
ATOM     31  C   UNL     1      -8.674   5.296   0.277  0.00  0.00    +0.006 A 
ATOM     32  C   UNL     1      -9.249   4.890   1.466  0.00  0.00    +0.020 A 
ATOM     33  C   UNL     1      -8.462   4.349   2.466  0.00  0.00    +0.041 A 
ATOM     34  C   UNL     1      -7.099   4.210   2.273  0.00  0.00    +0.020 A 
ATOM     35  C   UNL     1      -6.525   4.611   1.081  0.00  0.00    +0.006 A 
ATOM     36 CL   UNL     1      -9.183   3.845   3.962  0.00  0.00    -0.084 Cl
ENDBRANCH  29  30
ENDBRANCH   7  29
TORSDOF 3
