REMARK  Name = ZINC39663814
REMARK  11 active torsions:
REMARK  status: ('A' for Active; 'I' for Inactive)
REMARK    1  A    between atoms: C_1  and  C_2
REMARK    2  A    between atoms: C_4  and  C_9
REMARK    3  A    between atoms: C_13  and  C_22
REMARK    4  A    between atoms: N_24  and  C_25
REMARK    5  A    between atoms: C_25  and  C_26
REMARK    6  A    between atoms: C_26  and  C_28
REMARK    7  A    between atoms: C_26  and  N_36
REMARK    8  A    between atoms: C_31  and  O_34
REMARK    9  A    between atoms: O_34  and  C_35
REMARK   10  A    between atoms: N_36  and  C_37
REMARK   11  A    between atoms: N_36  and  C_38
REMARK                            x       y       z     vdW  Elec       q    Type
REMARK                         _______ _______ _______ _____ _____    ______ ____
ROOT
ATOM      1  C   UNL     1       0.046  -2.833  -2.477  0.00  0.00    +0.247 C 
ATOM      2  O   UNL     1      -0.070  -2.238  -3.532  0.00  0.00    -0.270 OA
ATOM      3  N   UNL     1       0.168  -4.175  -2.470  0.00  0.00    -0.296 N 
ATOM      4  C   UNL     1       0.188  -5.078  -1.296  0.00  0.00    +0.121 C 
ATOM      5  C   UNL     1      -0.628  -6.313  -1.740  0.00  0.00    +0.100 C 
ATOM      6  C   UNL     1      -0.540  -6.310  -3.276  0.00  0.00    -0.004 C 
ATOM      7  C   UNL     1       0.307  -5.081  -3.635  0.00  0.00    +0.115 C 
ATOM      8  C   UNL     1       0.139  -7.584  -3.768  0.00  0.00    -0.010 C 
ATOM      9  C   UNL     1       0.163  -7.584  -5.300  0.00  0.00    -0.082 C 
ATOM     10  N   UNL     1      -1.210  -7.508  -5.812  0.00  0.00    +0.379 N 
ATOM     11  C   UNL     1      -1.825  -6.237  -5.411  0.00  0.00    -0.082 C 
ATOM     12  C   UNL     1      -1.933  -6.180  -3.884  0.00  0.00    -0.010 C 
ATOM     13  H   UNL     1      -1.196  -7.570  -6.819  0.00  0.00    -0.086 HD
ATOM     14  H   UNL     1      -1.750  -8.274  -5.439  0.00  0.00    -0.086 HD
ENDROOT
BRANCH   1  18
ATOM     15  C   UNL     1      -1.213   1.215   0.153  0.00  0.00    +0.047 C 
ATOM     16  C   UNL     1      -0.552  -0.137   0.066  0.00  0.00    -0.015 A 
ATOM     17  C   UNL     1      -0.561  -0.831  -1.125  0.00  0.00    +0.019 A 
ATOM     18  C   UNL     1       0.052  -2.083  -1.204  0.00  0.00    +0.037 A 
ATOM     19  C   UNL     1       0.672  -2.625  -0.075  0.00  0.00    +0.016 A 
ATOM     20  C   UNL     1       0.674  -1.922   1.110  0.00  0.00    +0.039 A 
ATOM     21  C   UNL     1       0.069  -0.676   1.182  0.00  0.00    +0.126 A 
ATOM     22  F   UNL     1       0.079   0.011   2.345  0.00  0.00    -0.205 F 
ENDBRANCH   1  18
BRANCH   5  23
ATOM     23  C   UNL     1      -2.062  -6.183  -1.294  0.00  0.00    +0.218 C 
ATOM     24  O   UNL     1      -2.593  -5.093  -1.272  0.00  0.00    -0.275 OA
ATOM     25  N   UNL     1      -2.753  -7.278  -0.920  0.00  0.00    -0.316 N 
ATOM     26  H   UNL     1      -2.328  -8.149  -0.938  0.00  0.00    +0.149 HD
BRANCH  25  27
ATOM     27  C   UNL     1      -4.147  -7.151  -0.487  0.00  0.00    +0.093 C 
BRANCH  27  28
ATOM     28  C   UNL     1      -4.733  -8.543  -0.241  0.00  0.00    -0.021 C 
BRANCH  28  29
ATOM     29  C   UNL     1      -4.687  -9.341  -1.518  0.00  0.00    -0.059 A 
ATOM     30  C   UNL     1      -5.648  -9.140  -2.492  0.00  0.00    +0.005 A 
ATOM     31  C   UNL     1      -5.609  -9.870  -3.664  0.00  0.00    +0.046 A 
ATOM     32  C   UNL     1      -4.604 -10.806  -3.864  0.00  0.00    +0.120 A 
ATOM     33  C   UNL     1      -3.640 -11.005  -2.885  0.00  0.00    +0.046 A 
ATOM     34  C   UNL     1      -3.681 -10.268  -1.717  0.00  0.00    +0.005 A 
BRANCH  32  35
ATOM     35  O   UNL     1      -4.563 -11.525  -5.015  0.00  0.00    -0.495 OA
ATOM     36  C   UNL     1      -3.500 -12.470  -5.153  0.00  0.00    +0.277 C 
ENDBRANCH  32  35
ENDBRANCH  28  29
BRANCH  28  37
ATOM     37  N   UNL     1      -6.126  -8.415   0.208  0.00  0.00    +0.382 N 
ATOM     38  C   UNL     1      -6.652  -9.742   0.555  0.00  0.00    -0.096 C 
ATOM     39  C   UNL     1      -6.183  -7.542   1.387  0.00  0.00    -0.096 C 
ATOM     40  H   UNL     1      -6.683  -8.017  -0.533  0.00  0.00    -0.082 HD
ENDBRANCH  28  37
ENDBRANCH  27  28
ENDBRANCH  25  27
ENDBRANCH   5  23
TORSDOF 7
