REMARK  Name = ZINC06932595
REMARK  11 active torsions:
REMARK  status: ('A' for Active; 'I' for Inactive)
REMARK    1  A    between atoms: C_1  and  C_2
REMARK    2  A    between atoms: C_7  and  N_12
REMARK    3  A    between atoms: C_9  and  C_11
REMARK    4  A    between atoms: N_12  and  C_13
REMARK    5  A    between atoms: C_13  and  C_14
REMARK    6  A    between atoms: C_14  and  C_16
REMARK    7  A    between atoms: C_14  and  O_33
REMARK    8  A    between atoms: C_16  and  O_17
REMARK    9  A    between atoms: O_17  and  C_18
REMARK   10  A    between atoms: C_18  and  C_19
REMARK   11  A    between atoms: C_18  and  C_26
REMARK                            x       y       z     vdW  Elec       q    Type
REMARK                         _______ _______ _______ _____ _____    ______ ____
ROOT
ATOM      1  C   UNL     1      -2.011  -6.069   1.484  0.00  0.00    +0.190 C 
ENDROOT
BRANCH   1   2
ATOM      2  C   UNL     1      -2.031  -4.543   1.367  0.00  0.00    +0.123 C 
BRANCH   2   3
ATOM      3  O   UNL     1      -2.735  -3.989   2.481  0.00  0.00    -0.391 OA
ATOM      4  H   UNL     1      -2.345  -4.204   3.339  0.00  0.00    +0.210 HD
ENDBRANCH   2   3
BRANCH   2   5
ATOM      5  C   UNL     1      -0.596  -4.014   1.356  0.00  0.00    -0.048 C 
BRANCH   5   6
ATOM      6  N   UNL     1      -0.615  -2.549   1.244  0.00  0.00    +0.383 N 
ATOM      7  H   UNL     1      -1.112  -2.158   2.030  0.00  0.00    -0.085 HD
ATOM      8  H   UNL     1      -1.078  -2.284   0.387  0.00  0.00    -0.085 HD
BRANCH   6  14
ATOM      9  C   UNL     1      -0.019   1.526   0.010  0.00  0.00    +0.008 C 
ATOM     10  C   UNL     1       0.002  -0.004   0.002  0.00  0.00    -0.013 C 
ATOM     11  C   UNL     1       0.718  -0.497  -1.257  0.00  0.00    +0.003 C 
ATOM     12  C   UNL     1       0.739  -2.027  -1.265  0.00  0.00    -0.001 C 
ATOM     13  C   UNL     1       1.479  -2.534  -0.026  0.00  0.00    -0.015 C 
ATOM     14  C   UNL     1       0.763  -2.041   1.233  0.00  0.00    -0.069 C 
ATOM     15  C   UNL     1       0.742  -0.511   1.242  0.00  0.00    -0.025 C 
ATOM     16  C   UNL     1       0.026  -0.018   2.500  0.00  0.00    +0.006 C 
ENDBRANCH   6  14
ENDBRANCH   5   6
ENDBRANCH   2   5
ENDBRANCH   1   2
BRANCH   1  17
ATOM     17  O   UNL     1      -3.345  -6.572   1.378  0.00  0.00    -0.365 OA
BRANCH  17  18
ATOM     18  C   UNL     1      -3.438  -7.995   1.475  0.00  0.00    +0.178 C 
BRANCH  18  19
ATOM     19  C   UNL     1      -3.624  -8.389   2.918  0.00  0.00    -0.014 A 
ATOM     20  C   UNL     1      -4.454  -7.644   3.735  0.00  0.00    +0.009 A 
ATOM     21  C   UNL     1      -4.625  -8.005   5.058  0.00  0.00    +0.039 A 
ATOM     22  C   UNL     1      -3.966  -9.112   5.565  0.00  0.00    +0.123 A 
ATOM     23  C   UNL     1      -3.135  -9.857   4.745  0.00  0.00    +0.039 A 
ATOM     24  C   UNL     1      -2.969  -9.497   3.421  0.00  0.00    +0.009 A 
ATOM     25  F   UNL     1      -4.132  -9.465   6.858  0.00  0.00    -0.205 F 
ENDBRANCH  18  19
BRANCH  18  26
ATOM     26  C   UNL     1      -4.615  -8.477   0.667  0.00  0.00    -0.014 A 
ATOM     27  C   UNL     1      -5.760  -7.707   0.586  0.00  0.00    +0.009 A 
ATOM     28  C   UNL     1      -6.840  -8.148  -0.155  0.00  0.00    +0.039 A 
ATOM     29  C   UNL     1      -6.775  -9.362  -0.817  0.00  0.00    +0.123 A 
ATOM     30  C   UNL     1      -5.627 -10.133  -0.735  0.00  0.00    +0.039 A 
ATOM     31  C   UNL     1      -4.547  -9.688   0.002  0.00  0.00    +0.009 A 
ATOM     32  F   UNL     1      -7.830  -9.795  -1.541  0.00  0.00    -0.205 F 
ENDBRANCH  18  26
ENDBRANCH  17  18
ENDBRANCH   1  17
TORSDOF 9
