REMARK  Name = ZINC04294134
REMARK  5 active torsions:
REMARK  status: ('A' for Active; 'I' for Inactive)
REMARK    1  A    between atoms: C_1  and  C_2
REMARK    2  A    between atoms: C_3  and  C_26
REMARK    3  A    between atoms: C_4  and  C_17
REMARK    4  A    between atoms: C_10  and  C_12
REMARK    5  A    between atoms: C_20  and  N_23
REMARK                            x       y       z     vdW  Elec       q    Type
REMARK                         _______ _______ _______ _____ _____    ______ ____
ROOT
ATOM      1  C   UNL     1      -0.018   1.503   0.010  0.00  0.00    +0.061 C 
ATOM      2  C   UNL     1       0.002  -0.004   0.002  0.00  0.00    +0.018 C 
ATOM      3  C   UNL     1      -1.163  -0.668   0.004  0.00  0.00    +0.060 C 
ATOM      4  C   UNL     1      -1.253  -2.170   0.009  0.00  0.00    +0.177 C 
ATOM      5  N   UNL     1       0.061  -2.738  -0.282  0.00  0.00    -0.220 N 
ATOM      6  C   UNL     1       1.208  -2.013  -0.281  0.00  0.00    +0.219 A 
ATOM      7  N   UNL     1       1.213  -0.651  -0.013  0.00  0.00    -0.287 N 
ATOM      8  N   UNL     1       2.196  -2.813  -0.570  0.00  0.00    -0.193 NA
ATOM      9  C   UNL     1       1.724  -4.057  -0.767  0.00  0.00    +0.190 A 
ATOM     10  N   UNL     1       0.415  -4.048  -0.600  0.00  0.00    -0.147 NA
ATOM     11  H   UNL     1       2.041  -0.176   0.160  0.00  0.00    +0.155 HD
ENDROOT
BRANCH   4  12
ATOM     12  C   UNL     1      -1.715  -2.641   1.364  0.00  0.00    -0.018 A 
ATOM     13  C   UNL     1      -0.971  -2.343   2.490  0.00  0.00    +0.008 A 
ATOM     14  C   UNL     1      -1.395  -2.775   3.733  0.00  0.00    +0.033 A 
ATOM     15  C   UNL     1      -2.563  -3.505   3.850  0.00  0.00    +0.126 A 
ATOM     16  C   UNL     1      -3.308  -3.803   2.724  0.00  0.00    +0.033 A 
ATOM     17  C   UNL     1      -2.886  -3.367   1.481  0.00  0.00    +0.008 A 
BRANCH  15  18
ATOM     18  N   UNL     1      -3.017  -3.969   5.180  0.00  0.00    +0.056 N 
ATOM     19  O   UNL     1      -2.365  -3.709   6.165  0.00  0.00    -0.126 OA
ATOM     20  O   UNL     1      -4.038  -4.607   5.282  0.00  0.00    -0.126 OA
ENDBRANCH  15  18
ENDBRANCH   4  12
BRANCH   9  21
ATOM     21  C   UNL     1       2.538  -5.241  -1.115  0.00  0.00    +0.058 A 
ATOM     22  C   UNL     1       3.892  -5.333  -1.299  0.00  0.00    +0.019 A 
ATOM     23  C   UNL     1       4.434  -6.558  -1.623  0.00  0.00    +0.008 A 
ATOM     24  C   UNL     1       3.614  -7.632  -1.749  0.00  0.00    +0.046 A 
ATOM     25  S   UNL     1       2.013  -6.924  -1.397  0.00  0.00    -0.093 S 
ENDBRANCH   9  21
BRANCH   3  26
ATOM     26  C   UNL     1      -2.365   0.080   0.002  0.00  0.00    +0.241 C 
ATOM     27  O   UNL     1      -2.324   1.297  -0.002  0.00  0.00    -0.271 OA
ATOM     28  N   UNL     1      -3.553  -0.555   0.004  0.00  0.00    -0.325 N 
ATOM     29  H   UNL     1      -3.585  -1.525   0.007  0.00  0.00    +0.145 HD
ATOM     30  H   UNL     1      -4.377  -0.043   0.003  0.00  0.00    +0.145 HD
ENDBRANCH   3  26
TORSDOF 4
