REMARK  Name = ZINC49182595
REMARK  7 active torsions:
REMARK  status: ('A' for Active; 'I' for Inactive)
REMARK    1  A    between atoms: C_1  and  C_2
REMARK    2  A    between atoms: C_2  and  C_3
REMARK    3  A    between atoms: C_2  and  C_4
REMARK    4  A    between atoms: C_4  and  C_5
REMARK    5  A    between atoms: C_5  and  N_6
REMARK    6  A    between atoms: N_9  and  N_10
REMARK    7  A    between atoms: C_11  and  C_13
REMARK                            x       y       z     vdW  Elec       q    Type
REMARK                         _______ _______ _______ _____ _____    ______ ____
ROOT
ATOM      1  N   UNL     1       4.108  -1.442  -4.667  0.00  0.00    -0.229 N 
ATOM      2  C   UNL     1       4.739  -1.877  -5.776  0.00  0.00    +0.263 C 
ATOM      3  O   UNL     1       5.921  -1.643  -5.934  0.00  0.00    -0.269 OA
ATOM      4  H   UNL     1       3.164  -1.629  -4.541  0.00  0.00    +0.173 HD
ENDROOT
BRANCH   2   5
ATOM      5  C   UNL     1       3.994  -2.637  -6.799  0.00  0.00    +0.073 A 
ATOM      6  C   UNL     1       2.633  -2.902  -6.624  0.00  0.00    +0.017 A 
ATOM      7  C   UNL     1       1.943  -3.612  -7.583  0.00  0.00    +0.016 A 
ATOM      8  C   UNL     1       2.594  -4.063  -8.720  0.00  0.00    +0.021 A 
ATOM      9  C   UNL     1       3.941  -3.806  -8.902  0.00  0.00    +0.054 A 
ATOM     10  C   UNL     1       4.645  -3.090  -7.951  0.00  0.00    +0.137 A 
ATOM     11  F   UNL     1       5.959  -2.833  -8.132  0.00  0.00    -0.205 F 
ATOM     12 BR   UNL     1       1.637  -5.037 -10.029  0.00  0.00    -0.050 Br
ENDBRANCH   2   5
BRANCH   1  16
ATOM     13  N   UNL     1       2.873  -0.545  -2.413  0.00  0.00    -0.298 N 
ATOM     14  C   UNL     1       4.184  -0.286  -2.587  0.00  0.00    +0.316 C 
ATOM     15  O   UNL     1       4.798   0.340  -1.745  0.00  0.00    -0.251 OA
ATOM     16  N   UNL     1       4.815  -0.721  -3.696  0.00  0.00    -0.218 N 
ATOM     17  H   UNL     1       2.384  -1.045  -3.085  0.00  0.00    +0.150 HD
ATOM     18  H   UNL     1       5.758  -0.534  -3.822  0.00  0.00    +0.174 HD
BRANCH  13  19
ATOM     19  C   UNL     1       2.187  -0.073  -1.207  0.00  0.00    +0.106 C 
BRANCH  19  20
ATOM     20  C   UNL     1       0.718  -0.497  -1.257  0.00  0.00    +0.022 C 
BRANCH  20  22
ATOM     21  C   UNL     1      -0.019   1.526   0.010  0.00  0.00    +0.007 C 
ATOM     22  C   UNL     1       0.002  -0.004   0.002  0.00  0.00    -0.016 C 
ATOM     23  C   UNL     1      -1.433  -0.534   0.013  0.00  0.00    +0.007 C 
ENDBRANCH  20  22
ENDBRANCH  19  20
ENDBRANCH  13  19
ENDBRANCH   1  16
TORSDOF 5
