REMARK  Name = ZINC08281781
REMARK  6 active torsions:
REMARK  status: ('A' for Active; 'I' for Inactive)
REMARK    1  A    between atoms: C_1  and  C_2
REMARK    2  A    between atoms: C_3  and  O_28
REMARK    3  A    between atoms: C_12  and  C_13
REMARK    4  A    between atoms: C_13  and  O_14
REMARK    5  A    between atoms: O_14  and  C_15
REMARK    6  A    between atoms: C_15  and  C_17
REMARK                            x       y       z     vdW  Elec       q    Type
REMARK                         _______ _______ _______ _____ _____    ______ ____
ROOT
ATOM      1  C   UNL     1       8.455   2.918  -0.063  0.00  0.00    +0.051 C 
ATOM      2  C   UNL     1       7.293   1.959  -0.058  0.00  0.00    +0.034 A 
ATOM      3  C   UNL     1       7.520   0.592  -0.067  0.00  0.00    +0.123 A 
ATOM      4  C   UNL     1       6.453  -0.303  -0.062  0.00  0.00    +0.046 A 
ATOM      5  C   UNL     1       5.167   0.154  -0.046  0.00  0.00    +0.015 A 
ATOM      6  C   UNL     1       4.919   1.531  -0.037  0.00  0.00    +0.024 A 
ATOM      7  C   UNL     1       5.993   2.441  -0.043  0.00  0.00    +0.146 A 
ATOM      8  O   UNL     1       5.750   3.769  -0.034  0.00  0.00    -0.422 OA
ATOM      9  C   UNL     1       4.497   4.251  -0.019  0.00  0.00    +0.338 A 
ATOM     10  O   UNL     1       4.326   5.457  -0.011  0.00  0.00    -0.245 OA
ATOM     11  C   UNL     1       3.375   3.398  -0.018  0.00  0.00    +0.099 A 
ATOM     12  C   UNL     1       3.550   2.051  -0.021  0.00  0.00    +0.007 A 
ENDROOT
BRANCH   3  13
ATOM     13  O   UNL     1       8.793   0.121  -0.083  0.00  0.00    -0.506 OA
ATOM     14  H   UNL     1       9.154  -0.010  -0.970  0.00  0.00    +0.292 HD
ENDBRANCH   3  13
BRANCH  12  15
ATOM     15  C   UNL     1       2.367   1.117  -0.015  0.00  0.00    +0.268 C 
BRANCH  15  16
ATOM     16  O   UNL     1       1.139   1.891   0.001  0.00  0.00    -0.457 OA
BRANCH  16  17
ATOM     17  C   UNL     1      -0.014   1.204   0.009  0.00  0.00    +0.352 C 
ATOM     18  O   UNL     1       0.002  -0.004   0.002  0.00  0.00    -0.247 OA
BRANCH  17  19
ATOM     19  C   UNL     1      -1.329   1.940   0.019  0.00  0.00    +0.318 C 
ATOM     20  C   UNL     1      -1.503   2.708  -1.298  0.00  0.00    +0.285 C 
ATOM     21  O   UNL     1      -2.765   3.383  -1.261  0.00  0.00    -0.484 OA
ATOM     22  C   UNL     1      -3.835   2.656  -0.836  0.00  0.00    +0.162 A 
ATOM     23  C   UNL     1      -5.117   3.111  -1.105  0.00  0.00    +0.049 A 
ATOM     24  C   UNL     1      -6.213   2.388  -0.674  0.00  0.00    +0.004 A 
ATOM     25  C   UNL     1      -6.035   1.209   0.026  0.00  0.00    +0.004 A 
ATOM     26  C   UNL     1      -4.760   0.749   0.296  0.00  0.00    +0.049 A 
ATOM     27  C   UNL     1      -3.655   1.470  -0.134  0.00  0.00    +0.163 A 
ATOM     28  O   UNL     1      -2.406   1.003   0.136  0.00  0.00    -0.471 OA
ENDBRANCH  17  19
ENDBRANCH  16  17
ENDBRANCH  15  16
ENDBRANCH  12  15
TORSDOF 5
