REMARK  Name = ZINC39634731
REMARK  13 active torsions:
REMARK  status: ('A' for Active; 'I' for Inactive)
REMARK    1  A    between atoms: C_1  and  C_2
REMARK    2  A    between atoms: C_2  and  C_3
REMARK    3  A    between atoms: C_2  and  N_4
REMARK    4  A    between atoms: N_4  and  C_5
REMARK    5  A    between atoms: N_4  and  C_34
REMARK    6  A    between atoms: C_5  and  C_6
REMARK    7  A    between atoms: C_6  and  N_7
REMARK    8  A    between atoms: C_8  and  C_10
REMARK    9  A    between atoms: C_21  and  C_23
REMARK   10  A    between atoms: C_26  and  O_29
REMARK   11  A    between atoms: O_29  and  C_30
REMARK   12  A    between atoms: C_34  and  C_35
REMARK   13  A    between atoms: C_34  and  C_36
REMARK                            x       y       z     vdW  Elec       q    Type
REMARK                         _______ _______ _______ _____ _____    ______ ____
ROOT
ATOM      1  C   UNL     1      -3.434   4.153  -3.373  0.00  0.00    +0.100 C 
ATOM      2  C   UNL     1      -3.131   3.898  -4.866  0.00  0.00    +0.121 C 
ATOM      3  N   UNL     1      -3.337   5.211  -5.521  0.00  0.00    -0.296 N 
ATOM      4  C   UNL     1      -2.780   6.193  -4.559  0.00  0.00    +0.115 C 
ATOM      5  C   UNL     1      -3.202   5.661  -3.175  0.00  0.00    -0.004 C 
ATOM      6  C   UNL     1      -4.491   6.339  -2.720  0.00  0.00    -0.010 C 
ATOM      7  C   UNL     1      -4.220   7.826  -2.476  0.00  0.00    -0.082 C 
ATOM      8  N   UNL     1      -3.178   7.974  -1.453  0.00  0.00    +0.379 N 
ATOM      9  C   UNL     1      -1.916   7.401  -1.937  0.00  0.00    -0.082 C 
ATOM     10  C   UNL     1      -2.089   5.896  -2.159  0.00  0.00    -0.010 C 
ATOM     11  C   UNL     1      -3.902   5.458  -6.719  0.00  0.00    +0.247 C 
ATOM     12  O   UNL     1      -4.410   4.551  -7.350  0.00  0.00    -0.270 OA
ATOM     13  H   UNL     1      -3.045   8.954  -1.250  0.00  0.00    -0.086 HD
ATOM     14  H   UNL     1      -3.463   7.495  -0.612  0.00  0.00    -0.086 HD
ENDROOT
BRANCH  11  15
ATOM     15  C   UNL     1      -3.905   6.829  -7.265  0.00  0.00    +0.037 A 
ATOM     16  C   UNL     1      -2.979   7.769  -6.806  0.00  0.00    +0.016 A 
ATOM     17  C   UNL     1      -2.985   9.047  -7.318  0.00  0.00    +0.047 A 
ATOM     18  C   UNL     1      -3.911   9.403  -8.291  0.00  0.00    +0.130 A 
ATOM     19  C   UNL     1      -4.835   8.471  -8.751  0.00  0.00    +0.047 A 
ATOM     20  C   UNL     1      -4.832   7.189  -8.248  0.00  0.00    +0.016 A 
BRANCH  18  21
ATOM     21  O   UNL     1      -3.915  10.664  -8.793  0.00  0.00    -0.406 OA
BRANCH  21  22
ATOM     22  C   UNL     1      -4.894  10.962  -9.790  0.00  0.00    +0.575 C 
ATOM     23  F   UNL     1      -6.174  10.765  -9.261  0.00  0.00    -0.133 F 
ATOM     24  F   UNL     1      -4.756  12.295 -10.194  0.00  0.00    -0.133 F 
ATOM     25  F   UNL     1      -4.710  10.120 -10.892  0.00  0.00    -0.133 F 
ENDBRANCH  21  22
ENDBRANCH  18  21
ENDBRANCH  11  15
BRANCH   1  27
ATOM     26  N   UNL     1      -2.894   2.940  -1.286  0.00  0.00    -0.317 N 
ATOM     27  C   UNL     1      -2.494   3.359  -2.503  0.00  0.00    +0.218 C 
ATOM     28  O   UNL     1      -1.378   3.098  -2.898  0.00  0.00    -0.275 OA
ATOM     29  H   UNL     1      -3.787   3.149  -0.971  0.00  0.00    +0.149 HD
BRANCH  26  30
ATOM     30  C   UNL     1      -1.980   2.168  -0.441  0.00  0.00    +0.085 C 
BRANCH  30  31
ATOM     31  C   UNL     1      -2.676   1.819   0.876  0.00  0.00    -0.059 C 
BRANCH  31  32
ATOM     32  N   UNL     1      -1.710   1.194   1.790  0.00  0.00    +0.384 N 
ATOM     33  H   UNL     1      -0.905   1.794   1.890  0.00  0.00    -0.081 HD
BRANCH  32  35
ATOM     34  C   UNL     1      -2.423  -0.695   0.404  0.00  0.00    -0.014 C 
ATOM     35  C   UNL     1      -1.290  -0.103   1.245  0.00  0.00    -0.074 C 
ATOM     36  C   UNL     1      -0.051   0.089   0.367  0.00  0.00    -0.014 C 
ENDBRANCH  32  35
BRANCH  32  37
ATOM     37  C   UNL     1      -2.337   0.993   3.103  0.00  0.00    -0.074 C 
ATOM     38  C   UNL     1      -1.289   0.490   4.097  0.00  0.00    -0.014 C 
ATOM     39  C   UNL     1      -2.917   2.319   3.600  0.00  0.00    -0.014 C 
ENDBRANCH  32  37
ENDBRANCH  31  32
ENDBRANCH  30  31
ENDBRANCH  26  30
ENDBRANCH   1  27
TORSDOF 9
