REMARK  Name = ZINC20412966
REMARK  8 active torsions:
REMARK  status: ('A' for Active; 'I' for Inactive)
REMARK    1  A    between atoms: C_1  and  C_2
REMARK    2  A    between atoms: C_3  and  C_30
REMARK    3  A    between atoms: C_4  and  C_22
REMARK    4  A    between atoms: C_10  and  C_11
REMARK    5  A    between atoms: C_14  and  O_17
REMARK    6  A    between atoms: O_17  and  C_18
REMARK    7  A    between atoms: C_25  and  O_28
REMARK    8  A    between atoms: O_28  and  C_29
REMARK                            x       y       z     vdW  Elec       q    Type
REMARK                         _______ _______ _______ _____ _____    ______ ____
ROOT
ATOM      1  C   UNL     1       7.191   3.807   2.680  0.00  0.00    +0.066 C 
ATOM      2  C   UNL     1       6.529   3.470   1.369  0.00  0.00    +0.051 C 
ATOM      3  C   UNL     1       6.272   2.166   1.056  0.00  0.00    +0.062 C 
ATOM      4  C   UNL     1       5.607   1.870  -0.268  0.00  0.00    +0.160 C 
ATOM      5  N   UNL     1       5.279   3.033  -1.140  0.00  0.00    -0.275 N 
ATOM      6  C   UNL     1       4.693   2.974  -2.343  0.00  0.00    +0.268 A 
ATOM      7  O   UNL     1       4.370   1.907  -2.831  0.00  0.00    -0.266 OA
ATOM      8  C   UNL     1       4.452   4.237  -3.055  0.00  0.00    +0.081 A 
ATOM      9  C   UNL     1       3.881   4.447  -4.269  0.00  0.00    +0.028 C 
ATOM     10  S   UNL     1       5.110   5.419  -1.890  0.00  0.00    -0.046 S 
ATOM     11  C   UNL     1       5.624   4.265  -0.633  0.00  0.00    +0.178 A 
ATOM     12  N   UNL     1       6.201   4.444   0.528  0.00  0.00    -0.228 NA
ENDROOT
BRANCH   9  13
ATOM     13  C   UNL     1       3.934   5.779  -4.884  0.00  0.00    -0.024 A 
ATOM     14  C   UNL     1       3.206   6.045  -6.051  0.00  0.00    +0.011 A 
ATOM     15  C   UNL     1       3.255   7.297  -6.620  0.00  0.00    +0.046 A 
ATOM     16  C   UNL     1       4.034   8.295  -6.045  0.00  0.00    +0.120 A 
ATOM     17  C   UNL     1       4.763   8.036  -4.889  0.00  0.00    +0.046 A 
ATOM     18  C   UNL     1       4.717   6.788  -4.309  0.00  0.00    +0.011 A 
BRANCH  16  19
ATOM     19  O   UNL     1       4.082   9.527  -6.613  0.00  0.00    -0.495 OA
ATOM     20  C   UNL     1       3.309   9.725  -7.798  0.00  0.00    +0.277 C 
ENDBRANCH  16  19
ENDBRANCH   9  13
BRANCH   4  21
ATOM     21  C   UNL     1       4.327   1.126   0.012  0.00  0.00    -0.020 A 
ATOM     22  C   UNL     1       3.232   1.802   0.519  0.00  0.00    +0.009 A 
ATOM     23  C   UNL     1       2.058   1.122   0.777  0.00  0.00    +0.046 A 
ATOM     24  C   UNL     1       1.976  -0.240   0.526  0.00  0.00    +0.120 A 
ATOM     25  C   UNL     1       3.075  -0.916   0.017  0.00  0.00    +0.046 A 
ATOM     26  C   UNL     1       4.248  -0.231  -0.239  0.00  0.00    +0.009 A 
BRANCH  24  27
ATOM     27  O   UNL     1       0.822  -0.910   0.779  0.00  0.00    -0.495 OA
ATOM     28  C   UNL     1       0.810  -2.311   0.497  0.00  0.00    +0.277 C 
ENDBRANCH  24  27
ENDBRANCH   4  21
BRANCH   3  29
ATOM     29  C   UNL     1       6.616   1.128   1.942  0.00  0.00    +0.242 C 
ATOM     30  O   UNL     1       7.594   0.436   1.718  0.00  0.00    -0.271 OA
ATOM     31  N   UNL     1       5.864   0.899   3.037  0.00  0.00    -0.325 N 
ATOM     32  H   UNL     1       6.133   0.087   3.729  0.00  0.00    +0.145 HD
ATOM     33  H   UNL     1       4.981   1.523   3.238  0.00  0.00    +0.145 HD
ENDBRANCH   3  29
TORSDOF 5
