REMARK  Name = ZINC40909187
REMARK  5 active torsions:
REMARK  status: ('A' for Active; 'I' for Inactive)
REMARK    1  A    between atoms: C_1  and  C_2
REMARK    2  A    between atoms: C_2  and  C_4
REMARK    3  A    between atoms: C_2  and  O_11
REMARK    4  A    between atoms: C_7  and  N_10
REMARK    5  A    between atoms: O_11  and  C_12
REMARK                            x       y       z     vdW  Elec       q    Type
REMARK                         _______ _______ _______ _____ _____    ______ ____
ROOT
ATOM      1  C   UNL     1      -0.252   1.493  -0.100  0.00  0.00    +0.057 C 
ATOM      2  C   UNL     1       0.002  -0.012   0.005  0.00  0.00    +0.200 C 
ENDROOT
BRANCH   2   3
ATOM      3  C   UNL     1       0.861  -0.294   1.210  0.00  0.00    -0.008 A 
ATOM      4  C   UNL     1       2.228  -0.097   1.145  0.00  0.00    +0.009 A 
ATOM      5  C   UNL     1       3.018  -0.354   2.248  0.00  0.00    +0.023 A 
ATOM      6  C   UNL     1       2.438  -0.812   3.424  0.00  0.00    +0.025 A 
ATOM      7  C   UNL     1       1.064  -1.009   3.487  0.00  0.00    +0.023 A 
ATOM      8  C   UNL     1       0.279  -0.744   2.382  0.00  0.00    +0.009 A 
BRANCH   6   9
ATOM      9  N   UNL     1       3.234  -1.074   4.541  0.00  0.00    -0.358 N 
ATOM     10  H   UNL     1       4.193  -0.936   4.496  0.00  0.00    +0.142 HD
ATOM     11  H   UNL     1       2.828  -1.393   5.362  0.00  0.00    +0.142 HD
ENDBRANCH   6   9
ENDBRANCH   2   3
BRANCH   2  12
ATOM     12  O   UNL     1       0.671  -0.465  -1.174  0.00  0.00    -0.485 OA
BRANCH  12  13
ATOM     13  C   UNL     1      -0.107  -0.775  -2.244  0.00  0.00    +0.121 A 
ATOM     14  C   UNL     1       0.465  -1.331  -3.380  0.00  0.00    +0.046 A 
ATOM     15  C   UNL     1      -0.328  -1.646  -4.467  0.00  0.00    +0.018 A 
ATOM     16  C   UNL     1      -1.689  -1.406  -4.424  0.00  0.00    +0.014 A 
ATOM     17  C   UNL     1      -2.261  -0.852  -3.293  0.00  0.00    +0.018 A 
ATOM     18  C   UNL     1      -1.473  -0.540  -2.202  0.00  0.00    +0.046 A 
ATOM     19  I   UNL     1      -2.888  -1.884  -6.074  0.00  0.00    -0.044 I 
ENDBRANCH  12  13
ENDBRANCH   2  12
TORSDOF 4
