REMARK  Name = ZINC35683877
REMARK  5 active torsions:
REMARK  status: ('A' for Active; 'I' for Inactive)
REMARK    1  A    between atoms: C_7  and  C_13
REMARK    2  A    between atoms: N_15  and  C_16
REMARK    3  A    between atoms: C_16  and  C_17
REMARK    4  A    between atoms: N_19  and  C_20
REMARK    5  A    between atoms: C_20  and  C_21
REMARK                            x       y       z     vdW  Elec       q    Type
REMARK                         _______ _______ _______ _____ _____    ______ ____
ROOT
ATOM      1  C   UNL     1       0.014  -2.947  -0.013  0.00  0.00    +0.245 C 
ATOM      2  O   UNL     1       0.061  -4.157  -0.113  0.00  0.00    -0.270 OA
ATOM      3  N   UNL     1      -1.177  -2.327   0.104  0.00  0.00    -0.303 N 
ATOM      4  H   UNL     1      -1.220  -1.358   0.110  0.00  0.00    +0.150 HD
ENDROOT
BRANCH   1  11
ATOM      5  C   UNL     1       3.898  -4.813   0.012  0.00  0.00    +0.001 A 
ATOM      6  C   UNL     1       5.057  -4.048   0.004  0.00  0.00    +0.002 A 
ATOM      7  C   UNL     1       4.989  -2.672  -0.011  0.00  0.00    +0.026 A 
ATOM      8  C   UNL     1       3.748  -2.039  -0.019  0.00  0.00    +0.050 A 
ATOM      9  C   UNL     1       2.578  -2.818  -0.011  0.00  0.00    +0.011 A 
ATOM     10  C   UNL     1       2.671  -4.214   0.004  0.00  0.00    +0.011 A 
ATOM     11  C   UNL     1       1.266  -2.153  -0.020  0.00  0.00    +0.051 A 
ATOM     12  C   UNL     1       1.228  -0.789  -0.035  0.00  0.00    +0.083 A 
ATOM     13  C   UNL     1       2.479  -0.034  -0.042  0.00  0.00    +0.250 A 
ATOM     14  O   UNL     1       2.445   1.184  -0.055  0.00  0.00    -0.268 OA
ATOM     15  N   UNL     1       3.667  -0.663  -0.033  0.00  0.00    -0.322 N 
ATOM     16  H   UNL     1       4.482  -0.139  -0.038  0.00  0.00    +0.169 HD
ENDBRANCH   1  11
BRANCH   3  17
ATOM     17  C   UNL     1      -2.406  -3.116   0.223  0.00  0.00    +0.200 C 
BRANCH  17  18
ATOM     18  C   UNL     1      -3.588  -2.189   0.340  0.00  0.00    +0.230 C 
ATOM     19  O   UNL     1      -3.421  -0.988   0.326  0.00  0.00    -0.274 OA
ATOM     20  N   UNL     1      -4.832  -2.695   0.461  0.00  0.00    -0.310 N 
ATOM     21  H   UNL     1      -4.965  -3.656   0.472  0.00  0.00    +0.149 HD
BRANCH  20  22
ATOM     22  C   UNL     1      -5.981  -1.794   0.575  0.00  0.00    +0.139 C 
BRANCH  22  23
ATOM     23  C   UNL     1      -7.245  -2.606   0.697  0.00  0.00    -0.030 A 
ATOM     24  C   UNL     1      -7.938  -2.981  -0.439  0.00  0.00    +0.006 A 
ATOM     25  C   UNL     1      -9.097  -3.725  -0.328  0.00  0.00    +0.020 A 
ATOM     26  C   UNL     1      -9.564  -4.095   0.921  0.00  0.00    +0.041 A 
ATOM     27  C   UNL     1      -8.870  -3.720   2.058  0.00  0.00    +0.020 A 
ATOM     28  C   UNL     1      -7.708  -2.980   1.945  0.00  0.00    +0.006 A 
ATOM     29 CL   UNL     1     -11.021  -5.030   1.062  0.00  0.00    -0.084 Cl
ENDBRANCH  22  23
ENDBRANCH  20  22
ENDBRANCH  17  18
ENDBRANCH   3  17
TORSDOF 5
