REMARK  Name = ZINC09607312
REMARK  6 active torsions:
REMARK  status: ('A' for Active; 'I' for Inactive)
REMARK    1  A    between atoms: C_4  and  N_7
REMARK    2  A    between atoms: C_8  and  C_28
REMARK    3  A    between atoms: C_11  and  S_12
REMARK    4  A    between atoms: S_12  and  C_13
REMARK    5  A    between atoms: C_13  and  C_14
REMARK    6  A    between atoms: N_16  and  C_17
REMARK                            x       y       z     vdW  Elec       q    Type
REMARK                         _______ _______ _______ _____ _____    ______ ____
ROOT
ATOM      1  C   UNL     1       4.964  -2.718   0.158  0.00  0.00    +0.173 C 
ENDROOT
BRANCH   1   2
ATOM      2  C   UNL     1       3.648  -1.991   0.060  0.00  0.00    +0.227 C 
ATOM      3  O   UNL     1       2.608  -2.615   0.066  0.00  0.00    -0.275 OA
ATOM      4  N   UNL     1       3.626  -0.647  -0.035  0.00  0.00    -0.285 N 
ATOM      5  H   UNL     1       4.457  -0.152  -0.107  0.00  0.00    +0.155 HD
BRANCH   4   6
ATOM      6  C   UNL     1       2.403   0.036  -0.028  0.00  0.00    +0.037 A 
ATOM      7  C   UNL     1       2.306   1.280   0.582  0.00  0.00    +0.027 A 
ATOM      8  C   UNL     1       1.101   1.957   0.591  0.00  0.00    +0.051 A 
ATOM      9  C   UNL     1      -0.011   1.391  -0.011  0.00  0.00    +0.162 A 
ATOM     10  C   UNL     1       0.083   0.148  -0.621  0.00  0.00    +0.164 A 
ATOM     11  C   UNL     1       1.288  -0.531  -0.632  0.00  0.00    +0.072 A 
ATOM     12  O   UNL     1      -1.021  -0.399  -1.208  0.00  0.00    -0.488 OA
ATOM     13  C   UNL     1      -1.494   0.258  -2.385  0.00  0.00    +0.232 C 
ATOM     14  C   UNL     1      -2.402   1.423  -2.024  0.00  0.00    +0.082 C 
ATOM     15  C   UNL     1      -1.664   2.522  -1.276  0.00  0.00    +0.232 C 
ATOM     16  O   UNL     1      -1.207   2.050  -0.003  0.00  0.00    -0.488 OA
ENDBRANCH   4   6
ENDBRANCH   1   2
BRANCH   1  17
ATOM     17  S   UNL     1       4.663  -4.499   0.271  0.00  0.00    -0.076 S 
BRANCH  17  22
ATOM     18  N   UNL     1       6.719  -6.389   0.476  0.00  0.00    -0.274 N 
ATOM     19  C   UNL     1       8.088  -6.356   0.522  0.00  0.00    +0.142 A 
ATOM     20  N   UNL     1       8.447  -5.106   0.448  0.00  0.00    -0.133 NA
ATOM     21  N   UNL     1       7.411  -4.352   0.353  0.00  0.00    -0.122 NA
ATOM     22  C   UNL     1       6.322  -5.085   0.371  0.00  0.00    +0.197 A 
BRANCH  18  26
ATOM     23  C   UNL     1       4.276  -9.764   0.620  0.00  0.00    +0.000 A 
ATOM     24  C   UNL     1       4.309  -8.985  -0.522  0.00  0.00    +0.002 A 
ATOM     25  C   UNL     1       5.117  -7.866  -0.572  0.00  0.00    +0.026 A 
ATOM     26  C   UNL     1       5.897  -7.525   0.524  0.00  0.00    +0.050 A 
ATOM     27  C   UNL     1       5.865  -8.312   1.667  0.00  0.00    +0.026 A 
ATOM     28  C   UNL     1       5.051  -9.427   1.714  0.00  0.00    +0.002 A 
ENDBRANCH  18  26
BRANCH  19  29
ATOM     29  C   UNL     1       9.007  -7.545   0.639  0.00  0.00    +0.057 C 
ATOM     30  C   UNL     1      10.492  -7.268   0.880  0.00  0.00    +0.012 C 
ATOM     31  C   UNL     1      10.018  -7.768  -0.487  0.00  0.00    +0.012 C 
ENDBRANCH  19  29
ENDBRANCH  17  22
ENDBRANCH   1  17
TORSDOF 6
