REMARK  Name = ZINC45764779
REMARK  6 active torsions:
REMARK  status: ('A' for Active; 'I' for Inactive)
REMARK    1  A    between atoms: C_1  and  N_2
REMARK    2  A    between atoms: N_2  and  C_3
REMARK    3  A    between atoms: C_3  and  C_4
REMARK    4  A    between atoms: N_16  and  C_17
REMARK    5  A    between atoms: C_22  and  C_23
REMARK    6  A    between atoms: C_23  and  C_24
REMARK                            x       y       z     vdW  Elec       q    Type
REMARK                         _______ _______ _______ _____ _____    ______ ____
ROOT
ATOM      1  C   UNL     1      -0.008   1.450   0.011  0.00  0.00    +0.134 C 
ATOM      2  N   UNL     1       0.010  -0.015  -0.003  0.00  0.00    -0.284 N 
ATOM      3  C   UNL     1      -0.009  -0.677  -1.177  0.00  0.00    +0.306 C 
ATOM      4  O   UNL     1      -0.088  -1.891  -1.188  0.00  0.00    -0.252 OA
ATOM      5  N   UNL     1       0.061   0.005  -2.337  0.00  0.00    -0.269 N 
ATOM      6  H   UNL     1       0.042   0.975  -2.331  0.00  0.00    +0.156 HD
ENDROOT
BRANCH   5   7
ATOM      7  C   UNL     1       0.160  -0.686  -3.550  0.00  0.00    +0.038 A 
ATOM      8  C   UNL     1       0.692  -1.969  -3.579  0.00  0.00    +0.023 A 
ATOM      9  C   UNL     1       0.788  -2.648  -4.777  0.00  0.00    +0.002 A 
ATOM     10  C   UNL     1       0.356  -2.052  -5.948  0.00  0.00    +0.000 A 
ATOM     11  C   UNL     1      -0.173  -0.775  -5.923  0.00  0.00    +0.006 A 
ATOM     12  C   UNL     1      -0.278  -0.093  -4.726  0.00  0.00    -0.017 A 
BRANCH  12  13
ATOM     13  C   UNL     1      -0.861   1.296  -4.699  0.00  0.00    +0.132 C 
BRANCH  13  14
ATOM     14  C   UNL     1       0.252   2.310  -4.773  0.00  0.00    +0.215 C 
ATOM     15  O   UNL     1       1.405   1.940  -4.841  0.00  0.00    -0.276 OA
ATOM     16  N   UNL     1      -0.035   3.627  -4.763  0.00  0.00    -0.329 N 
ATOM     17  H   UNL     1      -0.957   3.922  -4.708  0.00  0.00    +0.145 HD
ATOM     18  H   UNL     1       0.682   4.279  -4.811  0.00  0.00    +0.145 HD
ENDBRANCH  13  14
ENDBRANCH  12  13
ENDBRANCH   5   7
BRANCH   2  19
ATOM     19  C   UNL     1       0.048  -0.759   1.258  0.00  0.00    +0.144 C 
BRANCH  19  20
ATOM     20  C   UNL     1      -1.354  -0.926   1.785  0.00  0.00    -0.022 A 
ATOM     21  C   UNL     1      -2.417  -0.504   1.048  0.00  0.00    +0.006 A 
ATOM     22  C   UNL     1      -3.720  -0.650   1.519  0.00  0.00    +0.001 A 
ATOM     23  C   UNL     1      -3.968  -1.218   2.731  0.00  0.00    +0.008 A 
ATOM     24  C   UNL     1      -2.896  -1.666   3.521  0.00  0.00    -0.018 A 
ATOM     25  C   UNL     1      -1.570  -1.523   3.039  0.00  0.00    -0.013 A 
ATOM     26  C   UNL     1      -0.498  -1.976   3.827  0.00  0.00    +0.009 A 
ATOM     27  C   UNL     1      -0.746  -2.549   5.036  0.00  0.00    +0.001 A 
ATOM     28  C   UNL     1      -2.050  -2.695   5.507  0.00  0.00    +0.001 A 
ATOM     29  C   UNL     1      -3.112  -2.257   4.777  0.00  0.00    +0.008 A 
ENDBRANCH  19  20
ENDBRANCH   2  19
TORSDOF 5
