REMARK  Name = ZINC05564324
REMARK  10 active torsions:
REMARK  status: ('A' for Active; 'I' for Inactive)
REMARK    1  A    between atoms: C_1  and  C_2
REMARK    2  A    between atoms: C_2  and  N_3
REMARK    3  A    between atoms: N_3  and  C_4
REMARK    4  A    between atoms: N_3  and  C_6
REMARK    5  A    between atoms: C_4  and  C_5
REMARK    6  A    between atoms: C_9  and  C_12
REMARK    7  A    between atoms: C_15  and  C_26
REMARK    8  A    between atoms: C_21  and  N_25
REMARK    9  A    between atoms: C_22  and  C_23
REMARK   10  A    between atoms: C_29  and  C_32
REMARK                            x       y       z     vdW  Elec       q    Type
REMARK                         _______ _______ _______ _____ _____    ______ ____
ROOT
ATOM      1  C   UNL     1      -0.117  -6.138  -1.717  0.00  0.00    +0.102 C 
ATOM      2  C   UNL     1      -1.590  -6.425  -1.854  0.00  0.00    +0.054 A 
ATOM      3  C   UNL     1      -2.571  -6.367  -0.922  0.00  0.00    +0.074 A 
ATOM      4  N   UNL     1      -3.738  -6.718  -1.541  0.00  0.00    -0.273 N 
ATOM      5  N   UNL     1      -3.447  -6.995  -2.885  0.00  0.00    -0.135 NA
ATOM      6  H   UNL     1      -4.612  -6.767  -1.124  0.00  0.00    +0.189 HD
ATOM      7  C   UNL     1      -2.169  -6.822  -3.075  0.00  0.00    +0.245 A 
ATOM      8  O   UNL     1      -1.431  -6.974  -4.208  0.00  0.00    -0.421 OA
ATOM      9  C   UNL     1      -0.090  -6.999  -4.077  0.00  0.00    +0.201 C 
ATOM     10  C   UNL     1       0.577  -6.631  -2.961  0.00  0.00    +0.098 C 
ENDROOT
BRANCH   3  11
ATOM     11  C   UNL     1      -2.409  -5.994   0.501  0.00  0.00    +0.000 A 
ATOM     12  C   UNL     1      -1.353  -6.517   1.246  0.00  0.00    +0.010 A 
ATOM     13  C   UNL     1      -1.207  -6.165   2.572  0.00  0.00    +0.004 A 
ATOM     14  C   UNL     1      -2.106  -5.295   3.163  0.00  0.00    -0.050 A 
ATOM     15  C   UNL     1      -3.156  -4.773   2.429  0.00  0.00    +0.004 A 
ATOM     16  C   UNL     1      -3.309  -5.112   1.100  0.00  0.00    +0.010 A 
ATOM     17  C   UNL     1      -1.942  -4.915   4.612  0.00  0.00    +0.044 C 
ENDBRANCH   3  11
BRANCH   1  21
ATOM     18  C   UNL     1       0.501  -1.932  -1.297  0.00  0.00    +0.013 A 
ATOM     19  C   UNL     1       0.924  -2.795  -0.304  0.00  0.00    +0.022 A 
ATOM     20  C   UNL     1       0.724  -4.156  -0.440  0.00  0.00    +0.006 A 
ATOM     21  C   UNL     1       0.101  -4.654  -1.568  0.00  0.00    -0.034 A 
ATOM     22  C   UNL     1      -0.324  -3.790  -2.561  0.00  0.00    +0.006 A 
ATOM     23  C   UNL     1      -0.128  -2.429  -2.424  0.00  0.00    +0.022 A 
BRANCH  18  24
ATOM     24  N   UNL     1       0.703  -0.555  -1.160  0.00  0.00    -0.394 NA
ATOM     25  H   UNL     1       0.332  -0.078  -1.968  0.00  0.00    +0.126 HD
BRANCH  24  27
ATOM     26  C   UNL     1      -1.495  -0.229  -0.130  0.00  0.00    +0.022 C 
ATOM     27  C   UNL     1       0.017  -0.078   0.048  0.00  0.00    +0.081 C 
ENDBRANCH  24  27
BRANCH  24  28
ATOM     28  C   UNL     1       2.142  -0.280  -1.047  0.00  0.00    +0.081 C 
ATOM     29  C   UNL     1       2.837  -0.660  -2.356  0.00  0.00    +0.022 C 
ENDBRANCH  24  28
ENDBRANCH  18  24
ENDBRANCH   1  21
BRANCH   9  30
ATOM     30  N   UNL     1       0.650  -7.428  -5.150  0.00  0.00    -0.328 N 
ATOM     31  H   UNL     1       0.204  -7.700  -5.968  0.00  0.00    +0.145 HD
ATOM     32  H   UNL     1       1.617  -7.459  -5.092  0.00  0.00    +0.145 HD
ENDBRANCH   9  30
BRANCH  10  33
ATOM     33  C   UNL     1       2.007  -6.714  -2.960  0.00  0.00    +0.101 C 
ATOM     34  N   UNL     1       3.141  -6.779  -2.958  0.00  0.00    -0.191 NA
ENDBRANCH  10  33
TORSDOF 7
