REMARK  Name = ZINC66684909
REMARK  4 active torsions:
REMARK  status: ('A' for Active; 'I' for Inactive)
REMARK    1  A    between atoms: C_4  and  C_7
REMARK    2  A    between atoms: C_7  and  C_14
REMARK    3  A    between atoms: C_14  and  N_15
REMARK    4  A    between atoms: C_16  and  C_18
REMARK                            x       y       z     vdW  Elec       q    Type
REMARK                         _______ _______ _______ _____ _____    ______ ____
ROOT
ATOM      1  N   UNL     1       4.698   1.200   1.131  0.00  0.00    -0.310 N 
ATOM      2  C   UNL     1       5.466   1.819   2.049  0.00  0.00    +0.249 C 
ATOM      3  O   UNL     1       5.972   1.178   2.951  0.00  0.00    -0.270 OA
ATOM      4  H   UNL     1       4.235   1.720   0.455  0.00  0.00    +0.149 HD
ENDROOT
BRANCH   2   5
ATOM      5  C   UNL     1       5.691   3.271   1.961  0.00  0.00    +0.102 A 
ATOM      6  C   UNL     1       6.574   3.909   2.822  0.00  0.00    +0.031 A 
ATOM      7  C   UNL     1       6.759   5.302   2.699  0.00  0.00    +0.037 A 
ATOM      8  C   UNL     1       6.078   6.023   1.732  0.00  0.00    +0.030 A 
ATOM      9  N   UNL     1       5.217   5.405   0.899  0.00  0.00    -0.325 N 
ATOM     10  H   UNL     1       4.746   5.931   0.234  0.00  0.00    +0.169 HD
ATOM     11  C   UNL     1       4.996   4.081   0.959  0.00  0.00    +0.261 A 
ATOM     12  O   UNL     1       4.215   3.557   0.184  0.00  0.00    -0.267 OA
ATOM     13  C   UNL     1       6.280   7.508   1.572  0.00  0.00    +0.054 C 
ATOM     14  C   UNL     1       6.795   8.140   2.861  0.00  0.00    +0.014 C 
ATOM     15  C   UNL     1       8.070   7.413   3.307  0.00  0.00    +0.080 C 
ATOM     16  C   UNL     1       7.686   5.983   3.619  0.00  0.00    +0.165 C 
ATOM     17  O   UNL     1       8.127   5.415   4.597  0.00  0.00    -0.292 OA
ENDBRANCH   2   5
BRANCH   1  18
ATOM     18  C   UNL     1       4.563  -0.259   1.153  0.00  0.00    +0.116 C 
BRANCH  18  19
ATOM     19  C   UNL     1       3.759  -0.715  -0.067  0.00  0.00    +0.011 C 
ATOM     20  C   UNL     1       4.347  -0.050  -1.326  0.00  0.00    +0.013 C 
ATOM     21  C   UNL     1       5.625  -0.747  -1.828  0.00  0.00    +0.001 C 
ATOM     22  C   UNL     1       6.549  -1.135  -0.705  0.00  0.00    +0.000 C 
ATOM     23  C   UNL     1       6.251  -2.596  -0.309  0.00  0.00    +0.000 C 
ATOM     24  C   UNL     1       5.083  -2.711   0.551  0.00  0.00    +0.001 C 
ATOM     25  C   UNL     1       3.795  -2.218  -0.139  0.00  0.00    +0.013 C 
BRANCH  19  29
ATOM     26  C   UNL     1      -0.294   0.552   0.402  0.00  0.00    +0.000 A 
ATOM     27  C   UNL     1       0.249  -0.367   1.280  0.00  0.00    +0.000 A 
ATOM     28  C   UNL     1       1.560  -0.777   1.129  0.00  0.00    +0.004 A 
ATOM     29  C   UNL     1       2.329  -0.269   0.098  0.00  0.00    -0.040 A 
ATOM     30  C   UNL     1       1.786   0.650  -0.781  0.00  0.00    +0.004 A 
ATOM     31  C   UNL     1       0.475   1.061  -0.628  0.00  0.00    +0.000 A 
ENDBRANCH  19  29
ENDBRANCH  18  19
ENDBRANCH   1  18
TORSDOF 4
