REMARK  Name = ZINC29352779
REMARK  3 active torsions:
REMARK  status: ('A' for Active; 'I' for Inactive)
REMARK    1  A    between atoms: C_4  and  N_7
REMARK    2  A    between atoms: C_8  and  C_14
REMARK    3  A    between atoms: C_19  and  C_22
REMARK                            x       y       z     vdW  Elec       q    Type
REMARK                         _______ _______ _______ _____ _____    ______ ____
ROOT
ATOM      1  C   UNL     1       2.736  -3.041   0.168  0.00  0.00    +0.268 C 
ATOM      2  O   UNL     1       1.568  -2.702   0.111  0.00  0.00    -0.268 OA
ATOM      3  N   UNL     1       3.053  -4.339   0.340  0.00  0.00    -0.259 N 
ATOM      4  C   UNL     1       2.049  -5.290   0.454  0.00  0.00    +0.165 A 
ATOM      5  N   UNL     1       2.151  -6.594   0.631  0.00  0.00    -0.223 NA
ATOM      6  C   UNL     1       1.068  -7.364   0.720  0.00  0.00    +0.096 A 
ATOM      7  C   UNL     1      -0.170  -6.789   0.625  0.00  0.00    +0.078 A 
ATOM      8  S   UNL     1       0.276  -5.071   0.408  0.00  0.00    -0.060 S 
ATOM      9  H   UNL     1       3.984  -4.609   0.385  0.00  0.00    +0.157 HD
ENDROOT
BRANCH   1  11
ATOM     10  N   UNL     1       3.620  -0.661  -0.139  0.00  0.00    -0.284 N 
ATOM     11  C   UNL     1       3.796  -2.037   0.047  0.00  0.00    +0.127 A 
ATOM     12  C   UNL     1       5.128  -2.266   0.096  0.00  0.00    +0.116 A 
ATOM     13  N   UNL     1       5.768  -1.065  -0.056  0.00  0.00    -0.339 N 
ATOM     14  H   UNL     1       6.729  -0.933  -0.062  0.00  0.00    +0.167 HD
ATOM     15  C   UNL     1       4.843  -0.099  -0.203  0.00  0.00    +0.163 A 
ATOM     16  S   UNL     1       5.166   1.567  -0.430  0.00  0.00    -0.013 S 
BRANCH  10  20
ATOM     17  C   UNL     1      -0.026   1.332  -0.452  0.00  0.00    +0.000 A 
ATOM     18  C   UNL     1       0.592   0.840  -1.588  0.00  0.00    +0.002 A 
ATOM     19  C   UNL     1       1.800   0.179  -1.487  0.00  0.00    +0.026 A 
ATOM     20  C   UNL     1       2.396   0.009  -0.244  0.00  0.00    +0.049 A 
ATOM     21  C   UNL     1       1.773   0.503   0.894  0.00  0.00    +0.026 A 
ATOM     22  C   UNL     1       0.564   1.163   0.787  0.00  0.00    +0.002 A 
ENDBRANCH  10  20
ENDBRANCH   1  11
BRANCH   6  23
ATOM     23  C   UNL     1       1.203  -8.823   0.917  0.00  0.00    +0.066 A 
ATOM     24  C   UNL     1       2.372  -9.513   1.032  0.00  0.00    +0.029 A 
ATOM     25  C   UNL     1       2.044 -10.868   1.207  0.00  0.00    +0.019 A 
ATOM     26  C   UNL     1       0.698 -10.970   1.195  0.00  0.00    +0.083 A 
ATOM     27  N   UNL     1       0.172  -9.721   1.023  0.00  0.00    -0.359 N 
ATOM     28  H   UNL     1      -0.773  -9.506   0.981  0.00  0.00    +0.165 HD
ENDBRANCH   6  23
TORSDOF 3
