REMARK  Name = ZINC21231388
REMARK  9 active torsions:
REMARK  status: ('A' for Active; 'I' for Inactive)
REMARK    1  A    between atoms: C_1  and  C_2
REMARK    2  A    between atoms: C_2  and  C_3
REMARK    3  A    between atoms: C_2  and  C_4
REMARK    4  A    between atoms: C_4  and  C_6
REMARK    5  A    between atoms: C_4  and  S_12
REMARK    6  A    between atoms: S_12  and  C_13
REMARK    7  A    between atoms: C_16  and  C_24
REMARK    8  A    between atoms: N_17  and  C_18
REMARK    9  A    between atoms: C_18  and  C_19
REMARK                            x       y       z     vdW  Elec       q    Type
REMARK                         _______ _______ _______ _____ _____    ______ ____
ROOT
ATOM      1  C   UNL     1      -2.666  -0.861   2.141  0.00  0.00    +0.193 A 
ATOM      2  N   UNL     1      -2.291  -1.286   3.327  0.00  0.00    -0.122 NA
ATOM      3  N   UNL     1      -1.408  -2.211   3.205  0.00  0.00    -0.128 NA
ATOM      4  C   UNL     1      -1.169  -2.438   1.935  0.00  0.00    +0.165 A 
ATOM      5  N   UNL     1      -1.962  -1.576   1.214  0.00  0.00    -0.295 N 
ENDROOT
BRANCH   4   6
ATOM      6  C   UNL     1      -0.222  -3.431   1.383  0.00  0.00    +0.019 A 
ATOM      7  C   UNL     1       0.222  -3.317   0.064  0.00  0.00    +0.013 A 
ATOM      8  C   UNL     1       1.109  -4.243  -0.444  0.00  0.00    +0.021 A 
ATOM      9  C   UNL     1       1.550  -5.290   0.348  0.00  0.00    +0.041 A 
ATOM     10  C   UNL     1       1.109  -5.412   1.655  0.00  0.00    +0.021 A 
ATOM     11  C   UNL     1       0.226  -4.489   2.175  0.00  0.00    +0.013 A 
ATOM     12 CL   UNL     1       2.661  -6.456  -0.301  0.00  0.00    -0.084 Cl
ENDBRANCH   4   6
BRANCH   1  13
ATOM     13  S   UNL     1      -3.853   0.397   1.809  0.00  0.00    -0.073 S 
BRANCH  13  14
ATOM     14  C   UNL     1      -4.204   0.952   3.496  0.00  0.00    +0.143 C 
BRANCH  14  15
ATOM     15  C   UNL     1      -2.997   1.663   4.052  0.00  0.00    +0.234 C 
ATOM     16  O   UNL     1      -2.200   2.183   3.300  0.00  0.00    -0.274 OA
ATOM     17  N   UNL     1      -2.803   1.720   5.384  0.00  0.00    -0.239 N 
ATOM     18  C   UNL     1      -1.724   2.356   5.881  0.00  0.00    +0.303 C 
ATOM     19  O   UNL     1      -0.925   2.878   5.128  0.00  0.00    -0.253 OA
ATOM     20  N   UNL     1      -1.530   2.413   7.214  0.00  0.00    -0.313 N 
ATOM     21  H   UNL     1      -3.526   1.248   6.066  0.00  0.00    +0.159 HD
ATOM     22  H   UNL     1      -0.649   2.932   7.620  0.00  0.00    +0.146 HD
ATOM     23  H   UNL     1      -2.252   1.941   7.896  0.00  0.00    +0.146 HD
ENDBRANCH  14  15
BRANCH  14  25
ATOM     24  C   UNL     1      -5.064   3.126   2.614  0.00  0.00    +0.009 C 
ATOM     25  C   UNL     1      -5.397   1.909   3.481  0.00  0.00    +0.005 C 
ATOM     26  C   UNL     1      -6.619   1.192   2.904  0.00  0.00    +0.009 C 
ENDBRANCH  14  25
ENDBRANCH  13  14
ENDBRANCH   1  13
BRANCH   5  27
ATOM     27  C   UNL     1      -2.042  -1.455  -0.244  0.00  0.00    +0.200 C 
BRANCH  27  28
ATOM     28  C   UNL     1      -1.161  -0.321  -0.702  0.00  0.00    +0.125 A 
ATOM     29  C   UNL     1       0.160  -0.397  -0.941  0.00  0.00    +0.046 A 
ATOM     30  C   UNL     1       0.578   0.890  -1.348  0.00  0.00    +0.041 A 
ATOM     31  C   UNL     1      -0.513   1.677  -1.333  0.00  0.00    +0.195 A 
ATOM     32  O   UNL     1      -1.564   0.938  -0.941  0.00  0.00    -0.466 OA
ENDBRANCH  27  28
ENDBRANCH   5  27
TORSDOF 7
