REMARK  Name = ZINC66251005
REMARK  8 active torsions:
REMARK  status: ('A' for Active; 'I' for Inactive)
REMARK    1  A    between atoms: C_1  and  C_2
REMARK    2  A    between atoms: C_4  and  N_25
REMARK    3  A    between atoms: C_7  and  S_8
REMARK    4  A    between atoms: S_8  and  N_11
REMARK    5  A    between atoms: N_11  and  C_12
REMARK    6  A    between atoms: C_14  and  C_24
REMARK    7  A    between atoms: N_16  and  C_17
REMARK    8  A    between atoms: C_17  and  C_18
REMARK                            x       y       z     vdW  Elec       q    Type
REMARK                         _______ _______ _______ _____ _____    ______ ____
ROOT
ATOM      1  N   UNL     1       1.176   1.029   2.916  0.00  0.00    -0.200 N 
ATOM      2  H   UNL     1       1.909   0.826   3.519  0.00  0.00    +0.175 HD
ENDROOT
BRANCH   1   3
ATOM      3  C   UNL     1       1.215   2.184   2.139  0.00  0.00    +0.137 A 
ATOM      4  C   UNL     1       0.307   2.546   1.191  0.00  0.00    +0.069 A 
ATOM      5  C   UNL     1       0.717   3.768   0.651  0.00  0.00    +0.062 A 
ATOM      6  N   UNL     1       1.825   4.130   1.246  0.00  0.00    -0.174 NA
ATOM      7  N   UNL     1       2.158   3.152   2.192  0.00  0.00    -0.245 N 
ATOM      8  C   UNL     1       0.006   4.538  -0.431  0.00  0.00    +0.067 C 
BRANCH   7   9
ATOM      9  C   UNL     1       3.324   3.172   3.079  0.00  0.00    +0.180 C 
BRANCH   9  10
ATOM     10  C   UNL     1       4.484   2.491   2.399  0.00  0.00    -0.026 A 
ATOM     11  C   UNL     1       4.674   1.131   2.553  0.00  0.00    +0.005 A 
ATOM     12  C   UNL     1       5.738   0.507   1.929  0.00  0.00    +0.000 A 
ATOM     13  C   UNL     1       6.613   1.243   1.152  0.00  0.00    +0.000 A 
ATOM     14  C   UNL     1       6.423   2.604   0.998  0.00  0.00    +0.000 A 
ATOM     15  C   UNL     1       5.356   3.227   1.618  0.00  0.00    +0.005 A 
ENDBRANCH   9  10
ENDBRANCH   7   9
ENDBRANCH   1   3
BRANCH   1  16
ATOM     16  S   UNL     1      -0.120   0.004   2.812  0.00  0.00    +0.074 S 
ATOM     17  O   UNL     1      -1.285   0.810   2.919  0.00  0.00    -0.150 OA
ATOM     18  O   UNL     1       0.144  -1.076   3.697  0.00  0.00    -0.150 OA
BRANCH  16  25
ATOM     19  C   UNL     1       2.061  -1.777   1.707  0.00  0.00    +0.046 C 
ATOM     20  C   UNL     1       0.922  -1.475   0.767  0.00  0.00    -0.022 A 
ATOM     21  C   UNL     1       0.918  -2.007  -0.508  0.00  0.00    +0.038 A 
ATOM     22  C   UNL     1      -0.127  -1.730  -1.370  0.00  0.00    +0.127 A 
ATOM     23  C   UNL     1      -1.168  -0.920  -0.955  0.00  0.00    +0.034 A 
ATOM     24  C   UNL     1      -1.164  -0.388   0.320  0.00  0.00    +0.031 A 
ATOM     25  C   UNL     1      -0.121  -0.669   1.183  0.00  0.00    +0.112 A 
BRANCH  22  26
ATOM     26  N   UNL     1      -0.131  -2.300  -2.736  0.00  0.00    +0.056 N 
ATOM     27  O   UNL     1       0.780  -3.008  -3.098  0.00  0.00    -0.126 OA
ATOM     28  O   UNL     1      -1.045  -2.057  -3.489  0.00  0.00    -0.126 OA
ENDBRANCH  22  26
ENDBRANCH  16  25
ENDBRANCH   1  16
TORSDOF 6
