REMARK  Name = ZINC14201382
REMARK  5 active torsions:
REMARK  status: ('A' for Active; 'I' for Inactive)
REMARK    1  A    between atoms: C_14  and  C_16
REMARK    2  A    between atoms: C_16  and  S_17
REMARK    3  A    between atoms: S_17  and  C_18
REMARK    4  A    between atoms: N_23  and  C_24
REMARK    5  A    between atoms: C_24  and  C_25
REMARK                            x       y       z     vdW  Elec       q    Type
REMARK                         _______ _______ _______ _____ _____    ______ ____
ROOT
ATOM      1  C   UNL     1       4.317   2.625  -1.968  0.00  0.00    +0.000 C 
ATOM      2  C   UNL     1       3.914   2.004  -0.630  0.00  0.00    +0.003 C 
ATOM      3  C   UNL     1       3.953   3.075   0.462  0.00  0.00    +0.035 C 
ATOM      4  C   UNL     1       2.983   4.202   0.106  0.00  0.00    +0.114 C 
ATOM      5  C   UNL     1       3.382   4.822  -1.233  0.00  0.00    +0.035 C 
ATOM      6  C   UNL     1       3.343   3.749  -2.324  0.00  0.00    +0.003 C 
ATOM      7  C   UNL     1       3.005   5.254   1.182  0.00  0.00    +0.243 C 
ATOM      8  O   UNL     1       4.050   5.514   1.739  0.00  0.00    -0.273 OA
ATOM      9  N   UNL     1       1.889   5.909   1.537  0.00  0.00    -0.253 N 
ATOM     10  C   UNL     1       0.686   5.653   1.004  0.00  0.00    +0.237 C 
ATOM     11  O   UNL     1      -0.283   6.258   1.408  0.00  0.00    -0.274 OA
ATOM     12  C   UNL     1       0.514   4.628  -0.094  0.00  0.00    +0.204 C 
ATOM     13  N   UNL     1       1.620   3.660   0.006  0.00  0.00    -0.278 N 
ATOM     14  C   UNL     1       1.391   2.331   0.001  0.00  0.00    +0.227 C 
ATOM     15  O   UNL     1       2.143   1.585   0.591  0.00  0.00    -0.275 OA
ATOM     16  H   UNL     1       1.956   6.602   2.212  0.00  0.00    +0.158 HD
ENDROOT
BRANCH  14  17
ATOM     17  C   UNL     1       0.202   1.774  -0.737  0.00  0.00    +0.172 C 
BRANCH  17  18
ATOM     18  S   UNL     1       0.169  -0.031  -0.557  0.00  0.00    -0.088 S 
BRANCH  18  19
ATOM     19  C   UNL     1      -1.259  -0.524  -1.463  0.00  0.00    +0.160 A 
ATOM     20  N   UNL     1      -2.127   0.217  -2.123  0.00  0.00    -0.133 NA
ATOM     21  N   UNL     1      -3.182  -0.380  -2.774  0.00  0.00    -0.125 NA
ATOM     22  C   UNL     1      -3.327  -1.690  -2.724  0.00  0.00    +0.182 A 
ATOM     23  S   UNL     1      -1.923  -2.161  -1.726  0.00  0.00    -0.025 S 
ATOM     24  N   UNL     1      -4.310  -2.489  -3.296  0.00  0.00    -0.320 N 
ATOM     25  H   UNL     1      -4.286  -3.451  -3.172  0.00  0.00    +0.148 HD
BRANCH  24  26
ATOM     26  C   UNL     1      -5.382  -1.880  -4.086  0.00  0.00    +0.135 C 
BRANCH  26  27
ATOM     27  C   UNL     1      -6.324  -2.972  -4.597  0.00  0.00    +0.135 C 
ATOM     28  C   UNL     1      -7.452  -2.342  -5.436  0.00  0.00    +0.035 C 
ATOM     29  C   UNL     1      -7.319  -3.021  -6.821  0.00  0.00    +0.031 C 
ATOM     30  C   UNL     1      -6.529  -4.309  -6.477  0.00  0.00    +0.160 C 
ATOM     31  O   UNL     1      -5.605  -3.876  -5.452  0.00  0.00    -0.375 OA
ENDBRANCH  26  27
ENDBRANCH  24  26
ENDBRANCH  18  19
ENDBRANCH  17  18
ENDBRANCH  14  17
TORSDOF 5
