REMARK  Name = ZINC08624014
REMARK  8 active torsions:
REMARK  status: ('A' for Active; 'I' for Inactive)
REMARK    1  A    between atoms: C_1  and  C_2
REMARK    2  A    between atoms: C_3  and  C_31
REMARK    3  A    between atoms: C_5  and  N_11
REMARK    4  A    between atoms: C_6  and  C_7
REMARK    5  A    between atoms: C_7  and  O_9
REMARK    6  A    between atoms: O_9  and  C_10
REMARK    7  A    between atoms: C_12  and  C_14
REMARK    8  A    between atoms: C_14  and  N_15
REMARK                            x       y       z     vdW  Elec       q    Type
REMARK                         _______ _______ _______ _____ _____    ______ ____
ROOT
ATOM      1  N   UNL     1       7.000  -0.100  -0.064  0.00  0.00    -0.215 N 
ATOM      2  C   UNL     1       7.431  -0.710  -1.187  0.00  0.00    +0.251 C 
ATOM      3  O   UNL     1       7.196  -0.390  -2.333  0.00  0.00    -0.272 OA
ATOM      4  C   UNL     1       8.272  -1.876  -0.717  0.00  0.00    +0.138 C 
ATOM      5  C   UNL     1       9.708  -1.722  -1.203  0.00  0.00    +0.040 C 
ATOM      6  C   UNL     1       9.745  -2.009  -2.709  0.00  0.00    +0.008 C 
ATOM      7  C   UNL     1       9.471  -3.497  -2.925  0.00  0.00    +0.035 C 
ATOM      8  C   UNL     1       8.219  -3.917  -2.202  0.00  0.00    -0.042 A 
ATOM      9  C   UNL     1       7.669  -3.171  -1.181  0.00  0.00    -0.012 A 
ATOM     10  C   UNL     1       6.516  -3.617  -0.549  0.00  0.00    +0.006 A 
ATOM     11  C   UNL     1       5.915  -4.798  -0.936  0.00  0.00    +0.000 A 
ATOM     12  C   UNL     1       6.465  -5.544  -1.962  0.00  0.00    +0.000 A 
ATOM     13  C   UNL     1       7.612  -5.104  -2.590  0.00  0.00    +0.004 A 
ATOM     14  N   UNL     1       8.216  -1.785   0.749  0.00  0.00    -0.281 N 
ATOM     15  C   UNL     1       7.454  -0.713   1.036  0.00  0.00    +0.310 C 
ATOM     16  O   UNL     1       7.203  -0.345   2.167  0.00  0.00    -0.252 OA
ATOM     17  H   UNL     1       8.647  -2.378   1.384  0.00  0.00    +0.152 HD
ENDROOT
BRANCH   1  18
ATOM     18  C   UNL     1       6.144   1.089  -0.050  0.00  0.00    +0.214 C 
BRANCH  18  20
ATOM     19  N   UNL     1       3.724   1.600  -0.025  0.00  0.00    -0.278 N 
ATOM     20  C   UNL     1       4.698   0.668  -0.039  0.00  0.00    +0.236 C 
ATOM     21  O   UNL     1       4.409  -0.510  -0.042  0.00  0.00    -0.274 OA
ATOM     22  H   UNL     1       3.955   2.542  -0.022  0.00  0.00    +0.155 HD
BRANCH  19  27
ATOM     23  C   UNL     1      -1.313   2.108   0.020  0.00  0.00    +0.045 C 
ATOM     24  C   UNL     1      -0.016   1.341   0.009  0.00  0.00    -0.025 A 
ATOM     25  C   UNL     1       0.002  -0.004   0.002  0.00  0.00    -0.008 A 
ATOM     26  S   UNL     1       1.740  -0.391  -0.017  0.00  0.00    -0.078 S 
ATOM     27  C   UNL     1       2.394   1.213  -0.014  0.00  0.00    +0.086 A 
ATOM     28  C   UNL     1       1.259   2.018   0.001  0.00  0.00    +0.091 A 
ATOM     29  C   UNL     1      -1.167  -0.955   0.008  0.00  0.00    +0.052 C 
BRANCH  28  30
ATOM     30  C   UNL     1       1.354   3.479   0.007  0.00  0.00    +0.342 C 
ATOM     31  O   UNL     1       1.403   4.080   1.063  0.00  0.00    -0.245 OA
BRANCH  30  32
ATOM     32  O   UNL     1       1.386   4.158  -1.158  0.00  0.00    -0.464 OA
ATOM     33  C   UNL     1       1.481   5.604  -1.075  0.00  0.00    +0.280 C 
ENDBRANCH  30  32
ENDBRANCH  28  30
ENDBRANCH  19  27
ENDBRANCH  18  20
ENDBRANCH   1  18
TORSDOF 5
