REMARK  Name = ZINC02209423
REMARK  9 active torsions:
REMARK  status: ('A' for Active; 'I' for Inactive)
REMARK    1  A    between atoms: C_1  and  C_2
REMARK    2  A    between atoms: C_5  and  C_8
REMARK    3  A    between atoms: C_22  and  S_37
REMARK    4  A    between atoms: C_25  and  C_27
REMARK    5  A    between atoms: C_30  and  O_35
REMARK    6  A    between atoms: C_31  and  O_33
REMARK    7  A    between atoms: O_33  and  C_34
REMARK    8  A    between atoms: O_35  and  C_36
REMARK    9  A    between atoms: S_37  and  C_38
REMARK                            x       y       z     vdW  Elec       q    Type
REMARK                         _______ _______ _______ _____ _____    ______ ____
ROOT
ATOM      1  C   UNL     1       0.059  -4.275  -0.021  0.00  0.00    +0.234 C 
ATOM      2  C   UNL     1       1.464  -4.755   0.204  0.00  0.00    +0.025 C 
ATOM      3  C   UNL     1       1.920  -4.981   1.454  0.00  0.00    +0.058 C 
ATOM      4  C   UNL     1       0.979  -4.747   2.579  0.00  0.00    +0.040 A 
ATOM      5  C   UNL     1       1.427  -4.633   3.887  0.00  0.00    +0.013 A 
ATOM      6  C   UNL     1       0.517  -4.414   4.904  0.00  0.00    +0.001 A 
ATOM      7  C   UNL     1      -0.834  -4.309   4.619  0.00  0.00    +0.004 A 
ATOM      8  C   UNL     1      -1.288  -4.423   3.318  0.00  0.00    +0.046 A 
ATOM      9  C   UNL     1      -0.387  -4.643   2.290  0.00  0.00    +0.131 A 
ATOM     10  O   UNL     1      -0.803  -4.765   1.008  0.00  0.00    -0.479 OA
ATOM     11  N   UNL     1       3.187  -5.407   1.679  0.00  0.00    -0.326 N 
ATOM     12  C   UNL     1       4.070  -5.643   0.732  0.00  0.00    +0.216 C 
ATOM     13  N   UNL     1       5.346  -6.066   0.786  0.00  0.00    -0.192 NA
ATOM     14  C   UNL     1       5.847  -6.165  -0.429  0.00  0.00    +0.174 C 
ATOM     15  N   UNL     1       4.890  -5.800  -1.339  0.00  0.00    -0.239 N 
ATOM     16  N   UNL     1       3.753  -5.465  -0.600  0.00  0.00    -0.209 N 
ATOM     17  C   UNL     1       2.406  -4.999  -0.953  0.00  0.00    +0.159 C 
ATOM     18  H   UNL     1       3.461  -5.546   2.599  0.00  0.00    +0.169 HD
ATOM     19  H   UNL     1       4.983  -5.779  -2.305  0.00  0.00    +0.172 HD
ENDROOT
BRANCH   1  24
ATOM     20  C   UNL     1      -0.018   1.503   0.010  0.00  0.00    +0.044 C 
ATOM     21  C   UNL     1       0.002  -0.004   0.002  0.00  0.00    -0.050 A 
ATOM     22  C   UNL     1       0.006  -0.689  -1.199  0.00  0.00    +0.004 A 
ATOM     23  C   UNL     1       0.025  -2.071  -1.206  0.00  0.00    +0.008 A 
ATOM     24  C   UNL     1       0.040  -2.768  -0.013  0.00  0.00    -0.003 A 
ATOM     25  C   UNL     1       0.037  -2.084   1.188  0.00  0.00    +0.008 A 
ATOM     26  C   UNL     1       0.023  -0.702   1.195  0.00  0.00    +0.004 A 
ENDBRANCH   1  24
BRANCH  17  27
ATOM     27  C   UNL     1       2.541  -3.714  -1.728  0.00  0.00    -0.017 A 
ATOM     28  C   UNL     1       3.391  -2.722  -1.276  0.00  0.00    +0.009 A 
ATOM     29  C   UNL     1       3.519  -1.541  -1.983  0.00  0.00    +0.050 A 
ATOM     30  C   UNL     1       2.795  -1.350  -3.149  0.00  0.00    +0.162 A 
ATOM     31  C   UNL     1       1.939  -2.349  -3.605  0.00  0.00    +0.162 A 
ATOM     32  C   UNL     1       1.820  -3.532  -2.893  0.00  0.00    +0.055 A 
BRANCH  31  33
ATOM     33  O   UNL     1       1.226  -2.166  -4.748  0.00  0.00    -0.491 OA
ATOM     34  C   UNL     1       0.368  -3.233  -5.156  0.00  0.00    +0.277 C 
ENDBRANCH  31  33
BRANCH  30  35
ATOM     35  O   UNL     1       2.919  -0.189  -3.846  0.00  0.00    -0.491 OA
ATOM     36  C   UNL     1       3.814   0.792  -3.318  0.00  0.00    +0.277 C 
ENDBRANCH  30  35
ENDBRANCH  17  27
BRANCH  14  37
ATOM     37  S   UNL     1       7.485  -6.683  -0.821  0.00  0.00    -0.092 S 
ATOM     38  C   UNL     1       8.237  -7.019   0.795  0.00  0.00    +0.093 C 
ENDBRANCH  14  37
TORSDOF 5
