REMARK  Name = ZINC17085957
REMARK  9 active torsions:
REMARK  status: ('A' for Active; 'I' for Inactive)
REMARK    1  A    between atoms: C_1  and  C_2
REMARK    2  A    between atoms: C_2  and  O_3
REMARK    3  A    between atoms: O_3  and  C_4
REMARK    4  A    between atoms: C_8  and  C_11
REMARK    5  A    between atoms: C_9  and  O_10
REMARK    6  A    between atoms: C_20  and  C_24
REMARK    7  A    between atoms: C_24  and  C_25
REMARK    8  A    between atoms: C_24  and  C_26
REMARK    9  A    between atoms: C_24  and  C_27
REMARK                            x       y       z     vdW  Elec       q    Type
REMARK                         _______ _______ _______ _____ _____    ______ ____
ROOT
ATOM      1  C   UNL     1      -2.998  -2.638  -1.532  0.00  0.00    +0.194 C 
ATOM      2  N   UNL     1      -1.923  -3.114  -0.643  0.00  0.00    -0.316 N 
ATOM      3  C   UNL     1      -0.943  -2.209  -0.325  0.00  0.00    +0.080 A 
ATOM      4  C   UNL     1      -1.139  -0.821  -0.378  0.00  0.00    +0.068 A 
ATOM      5  C   UNL     1       0.002  -0.004   0.002  0.00  0.00    -0.023 A 
ATOM      6  C   UNL     1       1.115  -0.684   0.356  0.00  0.00    -0.004 A 
ATOM      7  S   UNL     1       0.677  -2.395   0.198  0.00  0.00    -0.078 S 
ATOM      8  C   UNL     1       2.428  -0.107   0.788  0.00  0.00    +0.046 C 
ATOM      9  C   UNL     1       2.218   1.375   1.130  0.00  0.00    -0.000 C 
ATOM     10  C   UNL     1       1.422   2.033  -0.001  0.00  0.00    +0.009 C 
ATOM     11  C   UNL     1      -0.019   1.520   0.010  0.00  0.00    +0.037 C 
ATOM     12  C   UNL     1      -2.473  -0.334  -0.799  0.00  0.00    +0.248 C 
ATOM     13  O   UNL     1      -2.761   0.848  -0.751  0.00  0.00    -0.270 OA
ATOM     14  N   UNL     1      -3.357  -1.255  -1.236  0.00  0.00    -0.289 N 
ATOM     15  H   UNL     1      -1.934  -4.149  -0.271  0.00  0.00    +0.149 HD
ATOM     16  H   UNL     1      -4.395  -0.916  -1.367  0.00  0.00    +0.151 HD
ENDROOT
BRANCH   1  21
ATOM     17  C   UNL     1      -2.661  -1.999  -5.248  0.00  0.00    +0.162 A 
ATOM     18  C   UNL     1      -1.675  -2.911  -5.592  0.00  0.00    +0.049 A 
ATOM     19  C   UNL     1      -1.123  -3.729  -4.624  0.00  0.00    +0.004 A 
ATOM     20  C   UNL     1      -1.547  -3.636  -3.311  0.00  0.00    +0.011 A 
ATOM     21  C   UNL     1      -2.534  -2.733  -2.963  0.00  0.00    +0.036 A 
ATOM     22  C   UNL     1      -3.092  -1.910  -3.928  0.00  0.00    +0.165 A 
BRANCH  22  23
ATOM     23  O   UNL     1      -4.058  -1.016  -3.586  0.00  0.00    -0.503 OA
ATOM     24  H   UNL     1      -4.398  -0.946  -2.542  0.00  0.00    +0.292 HD
ENDBRANCH  22  23
BRANCH  17  25
ATOM     25  O   UNL     1      -3.206  -1.194  -6.199  0.00  0.00    -0.489 OA
BRANCH  25  27
ATOM     26  C   UNL     1      -3.440  -0.359  -8.455  0.00  0.00    +0.048 C 
ATOM     27  C   UNL     1      -2.714  -1.341  -7.533  0.00  0.00    +0.226 C 
ENDBRANCH  25  27
ENDBRANCH  17  25
ENDBRANCH   1  21
BRANCH   9  28
ATOM     28  C   UNL     1       3.575   2.066   1.272  0.00  0.00    -0.035 C 
ATOM     29  C   UNL     1       4.346   1.952  -0.044  0.00  0.00    +0.011 C 
ATOM     30  C   UNL     1       3.363   3.542   1.613  0.00  0.00    +0.011 C 
ATOM     31  C   UNL     1       4.375   1.394   2.391  0.00  0.00    +0.011 C 
ENDBRANCH   9  28
TORSDOF 5
