REMARK  Name = ZINC03421465
REMARK  8 active torsions:
REMARK  status: ('A' for Active; 'I' for Inactive)
REMARK    1  A    between atoms: C_3  and  C_6
REMARK    2  A    between atoms: C_9  and  S_18
REMARK    3  A    between atoms: N_10  and  C_11
REMARK    4  A    between atoms: C_11  and  C_12
REMARK    5  A    between atoms: S_18  and  C_19
REMARK    6  A    between atoms: C_19  and  C_20
REMARK    7  A    between atoms: N_22  and  C_23
REMARK    8  A    between atoms: C_24  and  C_31
REMARK                            x       y       z     vdW  Elec       q    Type
REMARK                         _______ _______ _______ _____ _____    ______ ____
ROOT
ATOM      1  C   UNL     1       2.462   0.920  -0.017  0.00  0.00    +0.173 C 
ENDROOT
BRANCH   1   2
ATOM      2  C   UNL     1       1.147   1.655   0.000  0.00  0.00    +0.228 C 
ATOM      3  O   UNL     1       1.130   2.868   0.007  0.00  0.00    -0.275 OA
ATOM      4  N   UNL     1      -0.011   0.966   0.007  0.00  0.00    -0.279 N 
ATOM      5  H   UNL     1       0.002  -0.004   0.002  0.00  0.00    +0.155 HD
BRANCH   4   6
ATOM      6  C   UNL     1      -1.221   1.643   0.017  0.00  0.00    +0.084 A 
ATOM      7  C   UNL     1      -2.502   1.116   0.014  0.00  0.00    +0.068 A 
ATOM      8  C   UNL     1      -3.621   2.057   0.030  0.00  0.00    -0.023 A 
ATOM      9  C   UNL     1      -3.274   3.357   0.036  0.00  0.00    -0.004 A 
ATOM     10  S   UNL     1      -1.498   3.351   0.027  0.00  0.00    -0.077 S 
ATOM     11  C   UNL     1      -4.476   4.262   0.049  0.00  0.00    +0.043 C 
ATOM     12  C   UNL     1      -5.644   3.350   0.488  0.00  0.00    +0.010 C 
ATOM     13  C   UNL     1      -5.147   1.963   0.035  0.00  0.00    +0.037 C 
BRANCH   7  14
ATOM     14  C   UNL     1      -2.727  -0.332   0.001  0.00  0.00    +0.244 C 
ATOM     15  O   UNL     1      -2.819  -0.944   1.049  0.00  0.00    -0.270 OA
ATOM     16  N   UNL     1      -2.833  -0.987  -1.173  0.00  0.00    -0.325 N 
ATOM     17  H   UNL     1      -2.760  -0.499  -2.009  0.00  0.00    +0.145 HD
ATOM     18  H   UNL     1      -2.982  -1.945  -1.182  0.00  0.00    +0.145 HD
ENDBRANCH   7  14
ENDBRANCH   4   6
ENDBRANCH   1   2
BRANCH   1  19
ATOM     19  S   UNL     1       3.822   2.115  -0.023  0.00  0.00    -0.077 S 
BRANCH  19  23
ATOM     20  C   UNL     1       7.218   0.180  -0.066  0.00  0.00    +0.172 A 
ATOM     21  N   UNL     1       6.331  -0.791  -0.063  0.00  0.00    -0.128 NA
ATOM     22  N   UNL     1       5.143  -0.299  -0.049  0.00  0.00    -0.122 NA
ATOM     23  C   UNL     1       5.197   1.013  -0.042  0.00  0.00    +0.192 A 
ATOM     24  N   UNL     1       6.518   1.366  -0.058  0.00  0.00    -0.299 N 
BRANCH  20  27
ATOM     25  C   UNL     1      10.805  -0.986  -0.318  0.00  0.00    +0.008 A 
ATOM     26  C   UNL     1       9.433  -1.085  -0.364  0.00  0.00    +0.019 A 
ATOM     27  C   UNL     1       8.682   0.028  -0.080  0.00  0.00    +0.056 A 
ATOM     28  S   UNL     1       9.943   1.241   0.275  0.00  0.00    -0.094 S 
ATOM     29  C   UNL     1      11.372   0.202   0.018  0.00  0.00    +0.046 A 
ENDBRANCH  20  27
BRANCH  24  30
ATOM     30  C   UNL     1       7.072   2.722  -0.063  0.00  0.00    +0.157 C 
BRANCH  30  31
ATOM     31  C   UNL     1       7.284   3.192   1.377  0.00  0.00    +0.138 C 
ATOM     32  C   UNL     1       7.754   4.662   1.385  0.00  0.00    +0.035 C 
ATOM     33  C   UNL     1       8.812   4.663   2.524  0.00  0.00    +0.031 C 
ATOM     34  C   UNL     1       9.414   3.243   2.369  0.00  0.00    +0.160 C 
ATOM     35  O   UNL     1       8.307   2.405   1.999  0.00  0.00    -0.375 OA
ENDBRANCH  30  31
ENDBRANCH  24  30
ENDBRANCH  19  23
ENDBRANCH   1  19
TORSDOF 8
