REMARK  Name = ZINC63479921
REMARK  3 active torsions:
REMARK  status: ('A' for Active; 'I' for Inactive)
REMARK    1  A    between atoms: C_7  and  C_10
REMARK    2  A    between atoms: C_10  and  C_11
REMARK    3  A    between atoms: N_19  and  C_22
REMARK                            x       y       z     vdW  Elec       q    Type
REMARK                         _______ _______ _______ _____ _____    ______ ____
ROOT
ATOM      1  C   UNL     1       0.578  -3.960  -1.268  0.00  0.00    +0.072 C 
ATOM      2  C   UNL     1      -0.465  -5.074  -1.501  0.00  0.00    +0.107 C 
ATOM      3  C   UNL     1      -1.323  -4.575  -2.697  0.00  0.00    +0.123 C 
ATOM      4  C   UNL     1      -2.691  -4.378  -2.085  0.00  0.00    +0.233 C 
ATOM      5  O   UNL     1      -3.677  -3.998  -2.680  0.00  0.00    -0.274 OA
ATOM      6  N   UNL     1      -2.646  -4.688  -0.784  0.00  0.00    -0.210 N 
ATOM      7  C   UNL     1      -1.435  -5.100  -0.342  0.00  0.00    +0.232 C 
ATOM      8  O   UNL     1      -1.165  -5.433   0.791  0.00  0.00    -0.274 OA
ATOM      9  C   UNL     1      -0.710  -3.219  -3.071  0.00  0.00    +0.136 C 
ATOM     10  N   UNL     1      -0.036  -2.734  -1.844  0.00  0.00    -0.295 NA
ATOM     11  C   UNL     1      -1.760  -2.248  -3.530  0.00  0.00    +0.006 A 
ATOM     12  C   UNL     1      -2.888  -1.722  -2.940  0.00  0.00    +0.046 A 
ATOM     13  C   UNL     1      -3.678  -0.820  -3.635  0.00  0.00    +0.124 A 
ATOM     14  C   UNL     1      -3.330  -0.452  -4.924  0.00  0.00    +0.040 A 
ATOM     15  C   UNL     1      -2.202  -0.979  -5.518  0.00  0.00    +0.026 A 
ATOM     16  C   UNL     1      -1.402  -1.885  -4.825  0.00  0.00    +0.039 A 
ATOM     17  N   UNL     1      -0.229  -2.543  -5.205  0.00  0.00    -0.283 N 
ATOM     18  C   UNL     1       0.240  -3.346  -4.230  0.00  0.00    +0.243 C 
ATOM     19  O   UNL     1       1.236  -4.036  -4.278  0.00  0.00    -0.273 OA
ATOM     20  F   UNL     1      -4.784  -0.302  -3.058  0.00  0.00    -0.205 F 
ATOM     21  H   UNL     1      -0.693  -2.321  -1.199  0.00  0.00    +0.124 HD
ATOM     22  H   UNL     1       0.197  -2.435  -6.070  0.00  0.00    +0.155 HD
ENDROOT
BRANCH   6  23
ATOM     23  C   UNL     1      -3.766  -4.600   0.056  0.00  0.00    +0.044 A 
ATOM     24  C   UNL     1      -4.839  -5.462  -0.123  0.00  0.00    +0.027 A 
ATOM     25  C   UNL     1      -5.941  -5.373   0.705  0.00  0.00    +0.040 A 
ATOM     26  C   UNL     1      -5.975  -4.426   1.714  0.00  0.00    +0.124 A 
ATOM     27  C   UNL     1      -4.905  -3.565   1.895  0.00  0.00    +0.040 A 
ATOM     28  C   UNL     1      -3.799  -3.654   1.072  0.00  0.00    +0.027 A 
ATOM     29  F   UNL     1      -7.053  -4.340   2.523  0.00  0.00    -0.205 F 
ENDBRANCH   6  23
BRANCH   1  30
ATOM     30  C   UNL     1       0.834  -3.774   0.229  0.00  0.00    +0.052 C 
BRANCH  30  37
ATOM     31  C   UNL     1       0.702   0.742   1.030  0.00  0.00    +0.001 A 
ATOM     32  C   UNL     1       1.969   1.328   1.154  0.00  0.00    +0.002 A 
ATOM     33  C   UNL     1       3.114   0.620   1.046  0.00  0.00    +0.026 A 
ATOM     34  C   UNL     1       3.072  -0.779   0.797  0.00  0.00    +0.043 A 
ATOM     35  N   UNL     1       4.024  -1.669   0.653  0.00  0.00    -0.380 N 
ATOM     36  C   UNL     1       3.409  -2.978   0.410  0.00  0.00    +0.144 C 
ATOM     37  C   UNL     1       1.915  -2.744   0.429  0.00  0.00    -0.040 C 
ATOM     38  C   UNL     1       1.746  -1.423   0.662  0.00  0.00    -0.001 A 
ATOM     39  C   UNL     1       0.550  -0.581   0.793  0.00  0.00    +0.010 A 
ATOM     40  H   UNL     1       4.977  -1.491   0.699  0.00  0.00    +0.160 HD
ENDBRANCH  30  37
ENDBRANCH   1  30
TORSDOF 3
