REMARK  Name = ZINC11735511
REMARK  7 active torsions:
REMARK  status: ('A' for Active; 'I' for Inactive)
REMARK    1  A    between atoms: C_1  and  C_2
REMARK    2  A    between atoms: C_2  and  C_4
REMARK    3  A    between atoms: C_2  and  O_23
REMARK    4  A    between atoms: C_4  and  N_5
REMARK    5  A    between atoms: C_13  and  C_14
REMARK    6  A    between atoms: C_14  and  C_16
REMARK    7  A    between atoms: C_14  and  N_40
REMARK                            x       y       z     vdW  Elec       q    Type
REMARK                         _______ _______ _______ _____ _____    ______ ____
ROOT
ATOM      1  N   UNL     1       0.002  -0.004   0.002  0.00  0.00    -0.326 N 
ATOM      2  C   UNL     1      -0.017   1.376   0.010  0.00  0.00    +0.069 A 
ATOM      3  C   UNL     1      -1.026   2.329   0.029  0.00  0.00    +0.028 A 
ATOM      4  C   UNL     1      -0.700   3.669   0.028  0.00  0.00    +0.002 A 
ATOM      5  C   UNL     1       0.629   4.070   0.018  0.00  0.00    +0.002 A 
ATOM      6  C   UNL     1       1.635   3.146   0.003  0.00  0.00    +0.030 A 
ATOM      7  C   UNL     1       1.328   1.782  -0.001  0.00  0.00    +0.089 A 
ATOM      8  N   UNL     1       2.082   0.653  -0.014  0.00  0.00    -0.234 NA
ATOM      9  C   UNL     1       1.306  -0.391  -0.013  0.00  0.00    +0.100 A 
ENDROOT
BRANCH   1  10
ATOM     10  C   UNL     1      -1.166  -0.888   0.008  0.00  0.00    +0.154 C 
BRANCH  10  12
ATOM     11  C   UNL     1      -2.727  -2.208  -1.428  0.00  0.00    +0.039 C 
ATOM     12  C   UNL     1      -1.587  -1.188  -1.432  0.00  0.00    +0.131 C 
BRANCH  12  13
ATOM     13  O   UNL     1      -2.029   0.017  -2.059  0.00  0.00    -0.390 OA
ATOM     14  H   UNL     1      -2.311  -0.098  -2.977  0.00  0.00    +0.210 HD
ENDBRANCH  12  13
ENDBRANCH  10  12
ENDBRANCH   1  10
BRANCH   9  15
ATOM     15  C   UNL     1       1.782  -1.821  -0.025  0.00  0.00    +0.023 C 
BRANCH  15  16
ATOM     16  C   UNL     1       2.303  -2.189   1.340  0.00  0.00    -0.055 A 
ATOM     17  C   UNL     1       3.577  -1.810   1.719  0.00  0.00    +0.004 A 
ATOM     18  C   UNL     1       4.053  -2.143   2.974  0.00  0.00    +0.020 A 
ATOM     19  C   UNL     1       3.258  -2.865   3.845  0.00  0.00    +0.041 A 
ATOM     20  C   UNL     1       1.985  -3.249   3.463  0.00  0.00    +0.020 A 
ATOM     21  C   UNL     1       1.508  -2.911   2.211  0.00  0.00    +0.004 A 
ATOM     22 CL   UNL     1       3.858  -3.290   5.418  0.00  0.00    -0.084 Cl
ENDBRANCH  15  16
BRANCH  15  25
ATOM     23  H   UNL     1       3.638  -1.371  -0.795  0.00  0.00    -0.089 HD
ATOM     24  H   UNL     1       3.150  -2.933  -1.090  0.00  0.00    -0.089 HD
ATOM     25  N   UNL     1       2.845  -1.962  -1.037  0.00  0.00    +0.387 N 
ATOM     26  H   UNL     1       2.480  -1.675  -1.952  0.00  0.00    -0.089 HD
ENDBRANCH  15  25
ENDBRANCH   9  15
TORSDOF 6
