REMARK  Name = ZINC03372665
REMARK  11 active torsions:
REMARK  status: ('A' for Active; 'I' for Inactive)
REMARK    1  A    between atoms: C_1  and  C_2
REMARK    2  A    between atoms: C_2  and  C_3
REMARK    3  A    between atoms: C_2  and  C_4
REMARK    4  A    between atoms: C_4  and  C_6
REMARK    5  A    between atoms: C_4  and  N_22
REMARK    6  A    between atoms: C_6  and  O_8
REMARK    7  A    between atoms: O_8  and  C_9
REMARK    8  A    between atoms: C_9  and  C_10
REMARK    9  A    between atoms: N_12  and  C_13
REMARK   10  A    between atoms: N_22  and  S_23
REMARK   11  A    between atoms: S_23  and  C_26
REMARK                            x       y       z     vdW  Elec       q    Type
REMARK                         _______ _______ _______ _____ _____    ______ ____
ROOT
ATOM      1  C   UNL     1      -2.237  -0.162  -1.108  0.00  0.00    +0.327 C 
ATOM      2  O   UNL     1      -2.595  -1.111  -1.765  0.00  0.00    -0.249 OA
ENDROOT
BRANCH   1   3
ATOM      3  C   UNL     1      -1.481  -0.379   0.178  0.00  0.00    +0.187 C 
BRANCH   3   5
ATOM      4  C   UNL     1      -0.285   1.807  -0.013  0.00  0.00    +0.009 C 
ATOM      5  C   UNL     1      -0.108   0.290   0.081  0.00  0.00    +0.012 C 
ATOM      6  C   UNL     1       0.715  -0.051   1.324  0.00  0.00    +0.009 C 
ENDBRANCH   3   5
BRANCH   3   7
ATOM      7  N   UNL     1      -1.309  -1.815   0.407  0.00  0.00    -0.176 NA
ATOM      8  H   UNL     1      -0.767  -2.342  -0.201  0.00  0.00    +0.149 HD
BRANCH   7   9
ATOM      9  S   UNL     1      -2.039  -2.539   1.705  0.00  0.00    +0.059 S 
ATOM     10  O   UNL     1      -1.699  -3.918   1.646  0.00  0.00    -0.153 OA
ATOM     11  O   UNL     1      -1.749  -1.731   2.837  0.00  0.00    -0.153 OA
BRANCH   9  12
ATOM     12  C   UNL     1      -3.779  -2.439   1.447  0.00  0.00    +0.105 A 
ATOM     13  C   UNL     1      -4.485  -1.345   1.913  0.00  0.00    +0.028 A 
ATOM     14  C   UNL     1      -5.850  -1.266   1.711  0.00  0.00    +0.002 A 
ATOM     15  C   UNL     1      -6.509  -2.280   1.041  0.00  0.00    +0.000 A 
ATOM     16  C   UNL     1      -5.803  -3.373   0.574  0.00  0.00    +0.002 A 
ATOM     17  C   UNL     1      -4.438  -3.450   0.773  0.00  0.00    +0.028 A 
ENDBRANCH   9  12
ENDBRANCH   7   9
ENDBRANCH   3   7
ENDBRANCH   1   3
BRANCH   1  18
ATOM     18  O   UNL     1      -2.512   1.084  -1.523  0.00  0.00    -0.454 OA
BRANCH  18  19
ATOM     19  C   UNL     1      -3.232   1.215  -2.751  0.00  0.00    +0.328 C 
BRANCH  19  20
ATOM     20  C   UNL     1      -3.447   2.675  -3.054  0.00  0.00    +0.255 C 
ATOM     21  O   UNL     1      -3.026   3.521  -2.293  0.00  0.00    -0.272 OA
ATOM     22  N   UNL     1      -4.108   3.042  -4.170  0.00  0.00    -0.283 N 
ATOM     23  H   UNL     1      -4.386   2.369  -4.812  0.00  0.00    +0.155 HD
BRANCH  22  24
ATOM     24  C   UNL     1      -4.394   4.393  -4.403  0.00  0.00    +0.037 A 
ATOM     25  C   UNL     1      -5.583   4.754  -5.023  0.00  0.00    +0.027 A 
ATOM     26  C   UNL     1      -5.866   6.087  -5.253  0.00  0.00    +0.051 A 
ATOM     27  C   UNL     1      -4.966   7.066  -4.866  0.00  0.00    +0.166 A 
ATOM     28  C   UNL     1      -3.773   6.707  -4.243  0.00  0.00    +0.168 A 
ATOM     29  C   UNL     1      -3.492   5.371  -4.008  0.00  0.00    +0.072 A 
ATOM     30  O   UNL     1      -3.067   7.842  -3.964  0.00  0.00    -0.453 OA
ATOM     31  C   UNL     1      -3.650   8.869  -4.788  0.00  0.00    +0.466 C 
ATOM     32  O   UNL     1      -5.007   8.427  -4.977  0.00  0.00    -0.453 OA
ENDBRANCH  22  24
ENDBRANCH  19  20
ENDBRANCH  18  19
ENDBRANCH   1  18
TORSDOF 9
