REMARK  Name = ZINC12079287
REMARK  8 active torsions:
REMARK  status: ('A' for Active; 'I' for Inactive)
REMARK    1  A    between atoms: C_1  and  C_2
REMARK    2  A    between atoms: C_5  and  C_7
REMARK    3  A    between atoms: C_7  and  N_8
REMARK    4  A    between atoms: C_11  and  C_28
REMARK    5  A    between atoms: C_12  and  C_18
REMARK    6  A    between atoms: C_23  and  N_53
REMARK    7  A    between atoms: C_26  and  N_53
REMARK    8  A    between atoms: C_27  and  N_53
REMARK                            x       y       z     vdW  Elec       q    Type
REMARK                         _______ _______ _______ _____ _____    ______ ____
ROOT
ATOM      1  N   UNL     1       1.590   3.812   1.381  0.00  0.00    -0.321 N 
ATOM      2  C   UNL     1       2.041   5.091   1.636  0.00  0.00    +0.131 A 
ATOM      3  C   UNL     1       2.248   5.529   2.979  0.00  0.00    +0.051 A 
ATOM      4  C   UNL     1       2.068   4.827   4.178  0.00  0.00    -0.019 A 
ATOM      5  C   UNL     1       2.332   5.437   5.366  0.00  0.00    +0.080 A 
ATOM      6  S   UNL     1       2.868   7.065   4.867  0.00  0.00    -0.064 S 
ATOM      7  C   UNL     1       2.717   6.859   3.112  0.00  0.00    +0.114 A 
ATOM      8  N   UNL     1       2.931   7.622   2.059  0.00  0.00    -0.228 NA
ATOM      9  C   UNL     1       2.716   7.159   0.843  0.00  0.00    +0.224 A 
ATOM     10  N   UNL     1       2.283   5.927   0.641  0.00  0.00    -0.220 NA
ATOM     11  C   UNL     1       1.577   3.403   4.153  0.00  0.00    +0.046 C 
ATOM     12  H   UNL     1       1.318   3.238   2.114  0.00  0.00    +0.148 HD
ENDROOT
BRANCH   5  13
ATOM     13  C   UNL     1       2.207   4.891   6.723  0.00  0.00    +0.254 C 
ATOM     14  O   UNL     1       1.822   3.748   6.886  0.00  0.00    -0.269 OA
ATOM     15  N   UNL     1       2.518   5.655   7.789  0.00  0.00    -0.299 N 
ATOM     16  C   UNL     1       2.992   7.046   7.736  0.00  0.00    +0.106 C 
ATOM     17  C   UNL     1       3.243   7.499   9.190  0.00  0.00    +0.005 C 
ATOM     18  C   UNL     1       3.436   6.157   9.944  0.00  0.00    -0.050 C 
ATOM     19  C   UNL     1       2.433   5.237   9.200  0.00  0.00    +0.093 C 
BRANCH  18  22
ATOM     20  C   UNL     1       3.254   5.022  12.075  0.00  0.00    -0.096 C 
ATOM     21  C   UNL     1       3.836   7.371  12.001  0.00  0.00    -0.096 C 
ATOM     22  N   UNL     1       3.043   6.299  11.362  0.00  0.00    +0.379 N 
ATOM     23  H   UNL     1       2.048   6.547  11.410  0.00  0.00    -0.082 HD
ENDBRANCH  18  22
ENDBRANCH   5  13
BRANCH   1  24
ATOM     24  C   UNL     1       1.520   3.322   0.002  0.00  0.00    +0.177 C 
BRANCH  24  29
ATOM     25  C   UNL     1       1.400  -1.720   0.113  0.00  0.00    +0.086 C 
ATOM     26  C   UNL     1       0.946  -0.284   0.045  0.00  0.00    +0.102 A 
ATOM     27  C   UNL     1      -0.328   0.134  -0.057  0.00  0.00    +0.045 A 
ATOM     28  C   UNL     1      -0.294   1.547  -0.088  0.00  0.00    +0.046 A 
ATOM     29  C   UNL     1       0.999   1.908  -0.003  0.00  0.00    +0.122 A 
ATOM     30  O   UNL     1       1.746   0.795   0.078  0.00  0.00    -0.463 OA
ENDBRANCH  24  29
ENDBRANCH   1  24
TORSDOF 4
