REMARK  Name = ZINC39756638
REMARK  7 active torsions:
REMARK  status: ('A' for Active; 'I' for Inactive)
REMARK    1  A    between atoms: C_1  and  C_2
REMARK    2  A    between atoms: C_4  and  C_12
REMARK    3  A    between atoms: C_12  and  C_14
REMARK    4  A    between atoms: C_14  and  C_16
REMARK    5  A    between atoms: C_14  and  S_17
REMARK    6  A    between atoms: S_17  and  C_18
REMARK    7  A    between atoms: N_23  and  C_24
REMARK                            x       y       z     vdW  Elec       q    Type
REMARK                         _______ _______ _______ _____ _____    ______ ____
ROOT
ATOM      1  C   UNL     1      -3.750  -1.043  -0.781  0.00  0.00    +0.117 C 
ATOM      2  C   UNL     1      -4.706  -0.185   0.051  0.00  0.00    +0.027 C 
ENDROOT
BRANCH   1   3
ATOM      3  C   UNL     1      -2.428  -0.333  -0.919  0.00  0.00    +0.174 C 
ATOM      4  O   UNL     1      -2.208   0.355  -1.895  0.00  0.00    -0.291 OA
BRANCH   3   7
ATOM      5  C   UNL     1      -0.049   1.594  -0.054  0.00  0.00    +0.035 C 
ATOM      6  C   UNL     1      -0.032   0.069   0.061  0.00  0.00    +0.111 C 
ATOM      7  C   UNL     1      -1.447  -0.467   0.087  0.00  0.00    +0.027 C 
ATOM      8  C   UNL     1      -1.577  -1.115   1.302  0.00  0.00    +0.006 A 
ATOM      9  C   UNL     1      -2.648  -1.811   1.911  0.00  0.00    +0.010 A 
ATOM     10  C   UNL     1      -2.494  -2.359   3.137  0.00  0.00    +0.001 A 
ATOM     11  C   UNL     1      -1.292  -2.270   3.857  0.00  0.00    +0.002 A 
ATOM     12  C   UNL     1      -0.210  -1.628   3.365  0.00  0.00    +0.026 A 
ATOM     13  C   UNL     1      -0.293  -1.003   2.035  0.00  0.00    +0.043 A 
ATOM     14  N   UNL     1       0.579  -0.334   1.332  0.00  0.00    -0.377 N 
ATOM     15  H   UNL     1       1.487  -0.134   1.606  0.00  0.00    +0.160 HD
ENDBRANCH   3   7
ENDBRANCH   1   3
BRANCH   1  16
ATOM     16  S   UNL     1      -4.463  -1.320  -2.426  0.00  0.00    -0.106 S 
BRANCH  16  17
ATOM     17  C   UNL     1      -5.951  -2.304  -2.100  0.00  0.00    +0.255 C 
ATOM     18  N   UNL     1      -6.839  -1.609  -1.149  0.00  0.00    -0.218 N 
ATOM     19  N   UNL     1      -6.934  -2.446  -0.031  0.00  0.00    -0.063 NA
ATOM     20  N   UNL     1      -6.279  -3.477  -0.155  0.00  0.00    -0.060 NA
ATOM     21  N   UNL     1      -5.608  -3.549  -1.386  0.00  0.00    -0.202 N 
ATOM     22  H   UNL     1      -7.268  -0.748  -1.273  0.00  0.00    +0.173 HD
BRANCH  21  23
ATOM     23  C   UNL     1      -4.745  -4.632  -1.864  0.00  0.00    +0.097 C 
ATOM     24  C   UNL     1      -5.547  -5.934  -1.924  0.00  0.00    +0.024 C 
ATOM     25  C   UNL     1      -4.646  -7.065  -2.424  0.00  0.00    +0.002 C 
ATOM     26  C   UNL     1      -3.465  -7.237  -1.467  0.00  0.00    +0.000 C 
ATOM     27  C   UNL     1      -2.663  -5.935  -1.407  0.00  0.00    +0.002 C 
ATOM     28  C   UNL     1      -3.564  -4.804  -0.907  0.00  0.00    +0.024 C 
ENDBRANCH  21  23
ENDBRANCH  16  17
ENDBRANCH   1  16
TORSDOF 5
