REMARK  Name = ZINC35363844
REMARK  9 active torsions:
REMARK  status: ('A' for Active; 'I' for Inactive)
REMARK    1  A    between atoms: C_1  and  C_2
REMARK    2  A    between atoms: C_4  and  C_37
REMARK    3  A    between atoms: C_13  and  C_16
REMARK    4  A    between atoms: C_16  and  C_18
REMARK    5  A    between atoms: C_16  and  O_19
REMARK    6  A    between atoms: N_22  and  C_25
REMARK    7  A    between atoms: C_25  and  C_26
REMARK    8  A    between atoms: C_31  and  O_32
REMARK    9  A    between atoms: O_32  and  C_33
REMARK                            x       y       z     vdW  Elec       q    Type
REMARK                         _______ _______ _______ _____ _____    ______ ____
ROOT
ATOM      1  C   UNL     1      -0.567   0.778  -0.591  0.00  0.00    +0.044 C 
ATOM      2  C   UNL     1      -0.420  -0.675  -0.222  0.00  0.00    -0.050 A 
ATOM      3  C   UNL     1      -0.605  -1.655  -1.180  0.00  0.00    +0.008 A 
ATOM      4  C   UNL     1      -0.472  -2.988  -0.848  0.00  0.00    -0.029 A 
ATOM      5  C   UNL     1      -0.149  -3.356   0.457  0.00  0.00    +0.042 A 
ATOM      6  C   UNL     1       0.035  -2.361   1.412  0.00  0.00    +0.004 A 
ATOM      7  C   UNL     1      -0.095  -1.032   1.075  0.00  0.00    +0.011 A 
ATOM      8  C   UNL     1       0.370  -3.076   2.690  0.00  0.00    +0.136 C 
ATOM      9  C   UNL     1      -0.636  -2.752   3.800  0.00  0.00    +0.123 C 
ATOM     10  C   UNL     1       0.061  -1.659   4.656  0.00  0.00    +0.109 C 
ATOM     11  C   UNL     1       1.423  -1.426   3.967  0.00  0.00    +0.096 C 
ATOM     12  N   UNL     1       1.690  -2.669   3.208  0.00  0.00    -0.293 NA
ATOM     13  C   UNL     1      -0.823  -0.448   4.462  0.00  0.00    +0.228 C 
ATOM     14  O   UNL     1      -0.641   0.640   4.965  0.00  0.00    -0.275 OA
ATOM     15  N   UNL     1      -1.837  -0.764   3.649  0.00  0.00    -0.237 N 
ATOM     16  C   UNL     1      -1.837  -2.044   3.214  0.00  0.00    +0.229 C 
ATOM     17  O   UNL     1      -2.655  -2.548   2.476  0.00  0.00    -0.275 OA
ATOM     18  C   UNL     1       0.347  -4.538   2.338  0.00  0.00    +0.243 C 
ATOM     19  O   UNL     1       0.564  -5.467   3.087  0.00  0.00    -0.273 OA
ATOM     20  N   UNL     1       0.038  -4.616   1.029  0.00  0.00    -0.283 N 
ATOM     21  C   UNL     1      -0.677  -4.048  -1.899  0.00  0.00    +0.045 C 
ATOM     22  H   UNL     1       2.074  -3.377   3.816  0.00  0.00    +0.124 HD
ATOM     23  H   UNL     1      -0.046  -5.450   0.541  0.00  0.00    +0.155 HD
ENDROOT
BRANCH  11  24
ATOM     24  C   UNL     1       2.512  -1.174   5.011  0.00  0.00    +0.129 C 
ATOM     25  C   UNL     1       3.851  -0.946   4.306  0.00  0.00    +0.039 C 
BRANCH  24  26
ATOM     26  O   UNL     1       2.176  -0.017   5.780  0.00  0.00    -0.390 OA
ATOM     27  H   UNL     1       2.089   0.791   5.257  0.00  0.00    +0.210 HD
ENDBRANCH  24  26
ENDBRANCH  11  24
BRANCH  15  28
ATOM     28  C   UNL     1      -2.873   0.198   3.263  0.00  0.00    +0.155 C 
BRANCH  28  29
ATOM     29  C   UNL     1      -4.072   0.032   4.160  0.00  0.00    +0.012 A 
ATOM     30  C   UNL     1      -5.209  -0.595   3.685  0.00  0.00    +0.009 A 
ATOM     31  C   UNL     1      -6.310  -0.748   4.507  0.00  0.00    +0.001 A 
ATOM     32  C   UNL     1      -6.277  -0.275   5.806  0.00  0.00    +0.004 A 
ATOM     33  C   UNL     1      -5.143   0.351   6.286  0.00  0.00    +0.046 A 
ATOM     34  C   UNL     1      -4.035   0.501   5.465  0.00  0.00    +0.125 A 
BRANCH  34  35
ATOM     35  O   UNL     1      -2.916   1.112   5.936  0.00  0.00    -0.495 OA
ATOM     36  C   UNL     1      -2.991   1.684   7.244  0.00  0.00    +0.277 C 
ENDBRANCH  34  35
ENDBRANCH  28  29
ENDBRANCH  15  28
TORSDOF 5
