REMARK  Name = ZINC14383091
REMARK  7 active torsions:
REMARK  status: ('A' for Active; 'I' for Inactive)
REMARK    1  A    between atoms: C_4  and  C_7
REMARK    2  A    between atoms: C_7  and  N_8
REMARK    3  A    between atoms: C_9  and  N_33
REMARK    4  A    between atoms: C_10  and  N_17
REMARK    5  A    between atoms: N_17  and  C_18
REMARK    6  A    between atoms: C_18  and  C_19
REMARK    7  A    between atoms: C_25  and  C_27
REMARK                            x       y       z     vdW  Elec       q    Type
REMARK                         _______ _______ _______ _____ _____    ______ ____
ROOT
ATOM      1  N   UNL     1       1.865   9.475  -0.587  0.00  0.00    -0.276 N 
ATOM      2  C   UNL     1       1.856   8.107  -0.738  0.00  0.00    +0.128 A 
ATOM      3  C   UNL     1       1.296   7.324   0.251  0.00  0.00    +0.140 A 
ATOM      4  C   UNL     1       0.759   7.951   1.392  0.00  0.00    +0.277 A 
ATOM      5  O   UNL     1       0.262   7.283   2.283  0.00  0.00    -0.266 OA
ATOM      6  N   UNL     1       0.799   9.294   1.492  0.00  0.00    -0.273 N 
ATOM      7  H   UNL     1       0.418   9.741   2.302  0.00  0.00    +0.173 HD
ATOM      8  C   UNL     1       1.344  10.041   0.516  0.00  0.00    +0.331 A 
ATOM      9  O   UNL     1       1.366  11.251   0.633  0.00  0.00    -0.246 OA
ENDROOT
BRANCH   3  10
ATOM     10  N   UNL     1       1.267   5.921   0.123  0.00  0.00    -0.255 N 
ATOM     11  C   UNL     1       0.087   5.278   0.017  0.00  0.00    +0.270 C 
ATOM     12  O   UNL     1      -0.947   5.913  -0.054  0.00  0.00    -0.268 OA
BRANCH  11  13
ATOM     13  C   UNL     1       0.050   3.797  -0.014  0.00  0.00    +0.126 A 
ATOM     14  C   UNL     1      -1.177   3.137  -0.012  0.00  0.00    +0.033 A 
ATOM     15  C   UNL     1      -1.195   1.752  -0.048  0.00  0.00    +0.004 A 
ATOM     16  C   UNL     1       0.014   1.075  -0.072  0.00  0.00    +0.020 A 
ATOM     17  C   UNL     1       1.197   1.796  -0.072  0.00  0.00    +0.111 A 
ATOM     18  N   UNL     1       1.186   3.111  -0.044  0.00  0.00    -0.250 NA
ENDBRANCH  11  13
BRANCH  10  19
ATOM     19  C   UNL     1       2.519   5.160   0.107  0.00  0.00    +0.149 C 
BRANCH  19  20
ATOM     20  C   UNL     1       2.962   4.891   1.522  0.00  0.00    -0.030 A 
ATOM     21  C   UNL     1       3.703   5.837   2.206  0.00  0.00    +0.005 A 
ATOM     22  C   UNL     1       4.104   5.592   3.506  0.00  0.00    +0.000 A 
ATOM     23  C   UNL     1       3.775   4.397   4.118  0.00  0.00    +0.000 A 
ATOM     24  C   UNL     1       3.038   3.449   3.432  0.00  0.00    +0.000 A 
ATOM     25  C   UNL     1       2.632   3.696   2.134  0.00  0.00    +0.005 A 
ENDBRANCH  19  20
ENDBRANCH  10  19
ENDBRANCH   3  10
BRANCH   2  26
ATOM     26  N   UNL     1       2.393   7.528  -1.863  0.00  0.00    -0.343 N 
ATOM     27  H   UNL     1       2.316   6.571  -1.999  0.00  0.00    +0.144 HD
ATOM     28  H   UNL     1       2.850   8.077  -2.520  0.00  0.00    +0.144 HD
ENDBRANCH   2  26
BRANCH   1  29
ATOM     29  C   UNL     1       2.452  10.318  -1.631  0.00  0.00    +0.163 C 
BRANCH  29  33
ATOM     30  C   UNL     1       6.607  10.897  -0.828  0.00  0.00    +0.000 A 
ATOM     31  C   UNL     1       6.195   9.827  -1.601  0.00  0.00    +0.000 A 
ATOM     32  C   UNL     1       4.850   9.640  -1.860  0.00  0.00    +0.005 A 
ATOM     33  C   UNL     1       3.918  10.522  -1.348  0.00  0.00    -0.028 A 
ATOM     34  C   UNL     1       4.330  11.595  -0.580  0.00  0.00    +0.005 A 
ATOM     35  C   UNL     1       5.675  11.779  -0.316  0.00  0.00    +0.000 A 
ENDBRANCH  29  33
ENDBRANCH   1  29
TORSDOF 7
