REMARK  Name = ZINC27663024
REMARK  6 active torsions:
REMARK  status: ('A' for Active; 'I' for Inactive)
REMARK    1  A    between atoms: C_1  and  C_2
REMARK    2  A    between atoms: C_10  and  C_11
REMARK    3  A    between atoms: N_13  and  C_14
REMARK    4  A    between atoms: C_15  and  C_22
REMARK    5  A    between atoms: N_24  and  C_25
REMARK    6  A    between atoms: C_25  and  C_26
REMARK                            x       y       z     vdW  Elec       q    Type
REMARK                         _______ _______ _______ _____ _____    ______ ____
ROOT
ATOM      1  C   UNL     1      -2.397   6.365  -1.602  0.00  0.00    +0.085 A 
ATOM      2  C   UNL     1      -1.364   5.665  -2.202  0.00  0.00    +0.069 A 
ATOM      3  C   UNL     1      -0.285   6.440  -2.813  0.00  0.00    -0.023 A 
ATOM      4  C   UNL     1      -0.424   7.776  -2.729  0.00  0.00    -0.004 A 
ATOM      5  S   UNL     1      -1.948   8.018  -1.849  0.00  0.00    -0.077 S 
ATOM      6  C   UNL     1       0.721   8.504  -3.380  0.00  0.00    +0.043 C 
ATOM      7  C   UNL     1       1.835   7.437  -3.510  0.00  0.00    +0.010 C 
ATOM      8  C   UNL     1       1.013   6.134  -3.562  0.00  0.00    +0.037 C 
ENDROOT
BRANCH   1  11
ATOM      9  C   UNL     1      -4.424   6.709  -0.430  0.00  0.00    +0.284 C 
ATOM     10  O   UNL     1      -4.259   7.911  -0.517  0.00  0.00    -0.266 OA
ATOM     11  N   UNL     1      -3.517   5.864  -0.959  0.00  0.00    -0.273 N 
ATOM     12  H   UNL     1      -3.666   4.777  -0.880  0.00  0.00    +0.156 HD
BRANCH   9  22
ATOM     13  C   UNL     1      -6.654   8.435   0.882  0.00  0.00    +0.048 C 
ATOM     14  C   UNL     1      -6.587   6.931   0.825  0.00  0.00    +0.008 A 
ATOM     15  C   UNL     1      -7.559   5.986   1.373  0.00  0.00    +0.025 A 
ATOM     16  C   UNL     1      -8.763   6.122   2.068  0.00  0.00    +0.032 A 
ATOM     17  C   UNL     1      -9.451   5.006   2.457  0.00  0.00    +0.042 A 
ATOM     18  C   UNL     1      -8.959   3.740   2.165  0.00  0.00    +0.023 A 
ATOM     19  C   UNL     1      -7.773   3.586   1.481  0.00  0.00    +0.048 A 
ATOM     20  C   UNL     1      -7.057   4.706   1.075  0.00  0.00    +0.136 A 
ATOM     21  O   UNL     1      -5.897   4.868   0.408  0.00  0.00    -0.450 OA
ATOM     22  C   UNL     1      -5.612   6.178   0.251  0.00  0.00    +0.194 A 
ATOM     23 CL   UNL     1     -10.947   5.172   3.321  0.00  0.00    -0.084 Cl
ENDBRANCH   9  22
ENDBRANCH   1  11
BRANCH   2  24
ATOM     24  C   UNL     1      -1.349   4.199  -2.219  0.00  0.00    +0.247 C 
ATOM     25  O   UNL     1      -1.870   3.595  -3.139  0.00  0.00    -0.270 OA
ATOM     26  N   UNL     1      -0.759   3.519  -1.216  0.00  0.00    -0.309 N 
ATOM     27  H   UNL     1      -0.289   4.064  -0.384  0.00  0.00    +0.149 HD
BRANCH  26  28
ATOM     28  C   UNL     1      -0.745   2.054  -1.233  0.00  0.00    +0.136 C 
BRANCH  28  29
ATOM     29  C   UNL     1      -0.019   1.537   0.011  0.00  0.00    +0.135 C 
ATOM     30  C   UNL     1       0.002  -0.004   0.002  0.00  0.00    +0.035 C 
ATOM     31  C   UNL     1       1.508  -0.363   0.039  0.00  0.00    +0.031 C 
ATOM     32  C   UNL     1       2.138   0.935   0.603  0.00  0.00    +0.160 C 
ATOM     33  O   UNL     1       1.348   1.983  -0.000  0.00  0.00    -0.375 OA
ENDBRANCH  28  29
ENDBRANCH  26  28
ENDBRANCH   2  24
TORSDOF 5
