REMARK  Name = ZINC39453789
REMARK  6 active torsions:
REMARK  status: ('A' for Active; 'I' for Inactive)
REMARK    1  A    between atoms: C_1  and  C_2
REMARK    2  A    between atoms: C_2  and  C_3
REMARK    3  A    between atoms: C_2  and  S_4
REMARK    4  A    between atoms: S_4  and  N_7
REMARK    5  A    between atoms: C_16  and  C_22
REMARK    6  A    between atoms: C_22  and  C_23
REMARK                            x       y       z     vdW  Elec       q    Type
REMARK                         _______ _______ _______ _____ _____    ______ ____
ROOT
ATOM      1  N   UNL     1      -1.615  -2.286   0.023  0.00  0.00    -0.174 N 
ATOM      2  C   UNL     1      -1.477  -2.957  -1.187  0.00  0.00    +0.134 A 
ATOM      3  C   UNL     1      -1.407  -4.335  -1.232  0.00  0.00    +0.085 A 
ATOM      4  C   UNL     1      -1.472  -5.114   0.017  0.00  0.00    +0.100 A 
ATOM      5  C   UNL     1      -1.611  -4.403   1.239  0.00  0.00    +0.069 A 
ATOM      6  C   UNL     1      -1.676  -2.933   1.200  0.00  0.00    +0.281 A 
ATOM      7  O   UNL     1      -1.789  -2.303   2.235  0.00  0.00    -0.265 OA
ATOM      8  C   UNL     1      -1.679  -5.087   2.443  0.00  0.00    +0.025 A 
ATOM      9  C   UNL     1      -1.606  -6.488   2.404  0.00  0.00    +0.005 A 
ATOM     10  C   UNL     1      -1.669  -7.267   3.572  0.00  0.00    -0.034 A 
ATOM     11  C   UNL     1      -1.593  -8.623   3.476  0.00  0.00    +0.004 A 
ATOM     12  C   UNL     1      -1.451  -9.259   2.245  0.00  0.00    +0.002 A 
ATOM     13  C   UNL     1      -1.384  -8.560   1.080  0.00  0.00    +0.028 A 
ATOM     14  C   UNL     1      -1.460  -7.155   1.108  0.00  0.00    +0.072 A 
ATOM     15  N   UNL     1      -1.400  -6.432  -0.010  0.00  0.00    -0.245 NA
ATOM     16  N   UNL     1      -1.284  -4.980  -2.447  0.00  0.00    -0.311 N 
ATOM     17  C   UNL     1      -1.804  -4.310  -3.648  0.00  0.00    +0.259 C 
ATOM     18  C   UNL     1      -1.203  -2.901  -3.709  0.00  0.00    +0.138 C 
ATOM     19  C   UNL     1      -1.412  -2.211  -2.387  0.00  0.00    +0.187 C 
ATOM     20  O   UNL     1      -1.527  -1.002  -2.350  0.00  0.00    -0.290 OA
ATOM     21  F   UNL     1      -3.199  -4.226  -3.576  0.00  0.00    -0.224 F 
ATOM     22  H   UNL     1      -0.864  -5.853  -2.506  0.00  0.00    +0.149 HD
ENDROOT
BRANCH   1  23
ATOM     23  S   UNL     1      -1.700  -0.632   0.015  0.00  0.00    +0.060 S 
ATOM     24  O   UNL     1      -1.821  -0.268   1.383  0.00  0.00    -0.153 OA
ATOM     25  O   UNL     1      -2.735  -0.327  -0.910  0.00  0.00    -0.153 OA
BRANCH  23  27
ATOM     26  C   UNL     1      -0.105   1.435  -0.801  0.00  0.00    +0.033 C 
ATOM     27  C   UNL     1      -0.098  -0.086  -0.638  0.00  0.00    +0.148 C 
ATOM     28  C   UNL     1       1.013  -0.489   0.334  0.00  0.00    +0.033 C 
ENDBRANCH  23  27
ENDBRANCH   1  23
BRANCH  10  29
ATOM     29  C   UNL     1      -1.821  -6.608   4.918  0.00  0.00    +0.071 C 
BRANCH  29  30
ATOM     30  C   UNL     1      -3.280  -6.348   5.189  0.00  0.00    -0.043 A 
ATOM     31  C   UNL     1      -3.854  -5.154   4.792  0.00  0.00    +0.004 A 
ATOM     32  C   UNL     1      -5.193  -4.915   5.040  0.00  0.00    +0.000 A 
ATOM     33  C   UNL     1      -5.958  -5.870   5.685  0.00  0.00    +0.000 A 
ATOM     34  C   UNL     1      -5.384  -7.063   6.081  0.00  0.00    +0.000 A 
ATOM     35  C   UNL     1      -4.046  -7.304   5.829  0.00  0.00    +0.004 A 
ENDBRANCH  29  30
ENDBRANCH  10  29
TORSDOF 4
