REMARK  Name = ZINC24455912
REMARK  7 active torsions:
REMARK  status: ('A' for Active; 'I' for Inactive)
REMARK    1  A    between atoms: C_1  and  C_2
REMARK    2  A    between atoms: C_7  and  C_29
REMARK    3  A    between atoms: N_12  and  C_16
REMARK    4  A    between atoms: C_16  and  N_17
REMARK    5  A    between atoms: N_17  and  C_18
REMARK    6  A    between atoms: N_17  and  C_19
REMARK    7  A    between atoms: C_19  and  C_20
REMARK                            x       y       z     vdW  Elec       q    Type
REMARK                         _______ _______ _______ _____ _____    ______ ____
ROOT
ATOM      1  C   UNL     1       0.901   3.829   1.297  0.00  0.00    +0.010 C 
ATOM      2  C   UNL     1       1.765   2.567   1.254  0.00  0.00    +0.019 C 
ATOM      3  C   UNL     1       3.244   2.962   1.237  0.00  0.00    +0.006 C 
ATOM      4  C   UNL     1       3.533   3.799  -0.011  0.00  0.00    +0.001 C 
ATOM      5  C   UNL     1       3.220   2.976  -1.262  0.00  0.00    +0.006 C 
ATOM      6  C   UNL     1       1.741   2.581  -1.255  0.00  0.00    +0.019 C 
ATOM      7  C   UNL     1       1.435   1.768  -0.002  0.00  0.00    +0.118 C 
ATOM      8  C   UNL     1      -0.016   1.345   0.009  0.00  0.00    +0.248 C 
ATOM      9  O   UNL     1      -0.991   2.066   0.018  0.00  0.00    -0.273 OA
ATOM     10  N   UNL     1       0.002  -0.004   0.002  0.00  0.00    -0.211 N 
ATOM     11  C   UNL     1       1.253  -0.480  -0.013  0.00  0.00    +0.310 C 
ATOM     12  O   UNL     1       1.526  -1.665  -0.021  0.00  0.00    -0.252 OA
ATOM     13  N   UNL     1       2.176   0.501  -0.016  0.00  0.00    -0.284 N 
ATOM     14  C   UNL     1       1.432   1.740  -2.496  0.00  0.00    +0.010 C 
ATOM     15  H   UNL     1       3.276   0.507  -0.027  0.00  0.00    +0.151 HD
ENDROOT
BRANCH  10  16
ATOM     16  C   UNL     1      -1.198  -0.844   0.009  0.00  0.00    +0.205 C 
BRANCH  16  17
ATOM     17  N   UNL     1      -1.613  -1.117  -1.373  0.00  0.00    -0.283 NA
ATOM     18  C   UNL     1      -2.374   0.011  -1.927  0.00  0.00    +0.106 C 
BRANCH  17  19
ATOM     19  C   UNL     1      -2.386  -2.364  -1.454  0.00  0.00    +0.148 C 
BRANCH  19  20
ATOM     20  C   UNL     1      -2.583  -2.740  -2.900  0.00  0.00    +0.094 A 
ATOM     21  N   UNL     1      -1.820  -3.481  -3.654  0.00  0.00    -0.243 NA
ATOM     22  C   UNL     1      -2.113  -3.744  -4.944  0.00  0.00    +0.079 A 
ATOM     23  C   UNL     1      -1.393  -4.521  -5.880  0.00  0.00    +0.029 A 
ATOM     24  C   UNL     1      -1.850  -4.674  -7.152  0.00  0.00    +0.002 A 
ATOM     25  C   UNL     1      -3.030  -4.080  -7.579  0.00  0.00    +0.001 A 
ATOM     26  C   UNL     1      -3.762  -3.312  -6.694  0.00  0.00    +0.017 A 
ATOM     27  C   UNL     1      -3.309  -3.151  -5.407  0.00  0.00    +0.039 A 
ATOM     28  S   UNL     1      -3.884  -2.296  -3.961  0.00  0.00    -0.071 S 
ENDBRANCH  19  20
ENDBRANCH  17  19
ENDBRANCH  16  17
ENDBRANCH  10  16
TORSDOF 4
