REMARK  Name = ZINC09960702
REMARK  8 active torsions:
REMARK  status: ('A' for Active; 'I' for Inactive)
REMARK    1  A    between atoms: C_1  and  C_2
REMARK    2  A    between atoms: C_5  and  N_8
REMARK    3  A    between atoms: C_9  and  C_11
REMARK    4  A    between atoms: C_11  and  C_12
REMARK    5  A    between atoms: C_12  and  C_13
REMARK    6  A    between atoms: N_18  and  S_21
REMARK    7  A    between atoms: S_21  and  C_24
REMARK    8  A    between atoms: C_27  and  C_30
REMARK                            x       y       z     vdW  Elec       q    Type
REMARK                         _______ _______ _______ _____ _____    ______ ____
ROOT
ATOM      1  C   UNL     1       0.558  -8.368   2.540  0.00  0.00    +0.216 C 
ATOM      2  O   UNL     1       0.560  -8.965   1.485  0.00  0.00    -0.276 OA
ATOM      3  N   UNL     1       0.675  -9.047   3.699  0.00  0.00    -0.299 N 
ATOM      4  C   UNL     1       0.667  -8.337   4.986  0.00  0.00    +0.125 C 
ATOM      5  C   UNL     1      -0.437  -8.932   5.867  0.00  0.00    +0.128 C 
ATOM      6  N   UNL     1      -0.300 -10.396   5.867  0.00  0.00    -0.174 NA
ATOM      7  C   UNL     1      -0.293 -11.106   4.580  0.00  0.00    +0.128 C 
ATOM      8  C   UNL     1       0.805 -10.511   3.698  0.00  0.00    +0.125 C 
ENDROOT
BRANCH   6   9
ATOM      9  S   UNL     1      -0.157 -11.230   7.290  0.00  0.00    +0.061 S 
ATOM     10  O   UNL     1       0.497 -12.453   6.980  0.00  0.00    -0.153 OA
ATOM     11  O   UNL     1       0.356 -10.314   8.248  0.00  0.00    -0.153 OA
BRANCH   9  12
ATOM     12  C   UNL     1      -1.786 -11.648   7.815  0.00  0.00    +0.105 A 
ATOM     13  C   UNL     1      -2.495 -10.782   8.626  0.00  0.00    +0.029 A 
ATOM     14  C   UNL     1      -3.773 -11.110   9.038  0.00  0.00    +0.005 A 
ATOM     15  C   UNL     1      -4.342 -12.305   8.639  0.00  0.00    -0.050 A 
ATOM     16  C   UNL     1      -3.634 -13.171   7.827  0.00  0.00    +0.005 A 
ATOM     17  C   UNL     1      -2.357 -12.841   7.412  0.00  0.00    +0.029 A 
ATOM     18  C   UNL     1      -5.735 -12.663   9.089  0.00  0.00    +0.044 C 
ENDBRANCH   9  12
ENDBRANCH   6   9
BRANCH   1  19
ATOM     19  C   UNL     1       0.424  -6.867   2.557  0.00  0.00    +0.105 C 
BRANCH  19  20
ATOM     20  C   UNL     1       0.309  -6.349   1.121  0.00  0.00    +0.105 C 
BRANCH  20  22
ATOM     21  N   UNL     1       0.059  -4.170  -0.021  0.00  0.00    -0.285 N 
ATOM     22  C   UNL     1       0.175  -4.848   1.138  0.00  0.00    +0.218 C 
ATOM     23  O   UNL     1       0.173  -4.251   2.193  0.00  0.00    -0.275 OA
ATOM     24  H   UNL     1      -0.017  -4.651  -0.860  0.00  0.00    +0.155 HD
BRANCH  21  29
ATOM     25  C   UNL     1       0.008   1.503   0.007  0.00  0.00    +0.044 C 
ATOM     26  C   UNL     1       0.022  -0.004  -0.001  0.00  0.00    -0.050 A 
ATOM     27  C   UNL     1       0.777  -0.692   0.931  0.00  0.00    +0.005 A 
ATOM     28  C   UNL     1       0.791  -2.073   0.927  0.00  0.00    +0.023 A 
ATOM     29  C   UNL     1       0.046  -2.771  -0.014  0.00  0.00    +0.033 A 
ATOM     30  C   UNL     1      -0.712  -2.077  -0.948  0.00  0.00    +0.023 A 
ATOM     31  C   UNL     1      -0.726  -0.696  -0.936  0.00  0.00    +0.005 A 
ENDBRANCH  21  29
ENDBRANCH  20  22
ENDBRANCH  19  20
ENDBRANCH   1  19
TORSDOF 6
