REMARK  Name = ZINC20638655
REMARK  6 active torsions:
REMARK  status: ('A' for Active; 'I' for Inactive)
REMARK    1  A    between atoms: C_1  and  C_2
REMARK    2  A    between atoms: C_2  and  C_3
REMARK    3  A    between atoms: C_2  and  C_4
REMARK    4  A    between atoms: C_4  and  C_5
REMARK    5  A    between atoms: C_5  and  N_6
REMARK    6  A    between atoms: C_11  and  C_24
REMARK                            x       y       z     vdW  Elec       q    Type
REMARK                         _______ _______ _______ _____ _____    ______ ____
ROOT
ATOM      1  N   UNL     1      -1.190   2.750   1.067  0.00  0.00    -0.271 NA
ATOM      2  C   UNL     1      -1.281   1.713   0.017  0.00  0.00    +0.193 C 
ATOM      3  N   UNL     1      -0.011   0.966   0.007  0.00  0.00    -0.304 N 
ATOM      4  C   UNL     1       1.158   1.697   0.000  0.00  0.00    +0.189 C 
ATOM      5  N   UNL     1       2.239   1.221  -0.542  0.00  0.00    -0.225 NA
ATOM      6  C   UNL     1       3.459   2.028  -0.685  0.00  0.00    +0.243 C 
ATOM      7  N   UNL     1       3.529   2.971   0.435  0.00  0.00    -0.284 N 
ATOM      8  C   UNL     1       4.580   3.562   1.062  0.00  0.00    +0.072 A 
ATOM      9  C   UNL     1       5.957   3.474   0.895  0.00  0.00    +0.028 A 
ATOM     10  C   UNL     1       6.747   4.241   1.735  0.00  0.00    +0.002 A 
ATOM     11  C   UNL     1       6.202   5.066   2.704  0.00  0.00    +0.002 A 
ATOM     12  C   UNL     1       4.836   5.172   2.892  0.00  0.00    +0.030 A 
ATOM     13  C   UNL     1       4.018   4.404   2.056  0.00  0.00    +0.091 A 
ATOM     14  N   UNL     1       2.676   4.278   1.982  0.00  0.00    -0.214 NA
ATOM     15  C   UNL     1       2.372   3.431   1.046  0.00  0.00    +0.209 A 
ATOM     16  N   UNL     1       1.154   2.938   0.619  0.00  0.00    -0.230 N 
ATOM     17  C   UNL     1      -0.091   3.683   0.769  0.00  0.00    +0.204 C 
ATOM     18  H   UNL     1      -0.020  -0.134   0.006  0.00  0.00    +0.150 HD
ENDROOT
BRANCH   6  19
ATOM     19  C   UNL     1       3.414   2.788  -1.985  0.00  0.00    +0.015 A 
ATOM     20  C   UNL     1       4.558   2.929  -2.757  0.00  0.00    +0.010 A 
ATOM     21  C   UNL     1       4.468   3.632  -3.948  0.00  0.00    +0.020 A 
ATOM     22  C   UNL     1       3.253   4.175  -4.320  0.00  0.00    +0.111 A 
ATOM     23  N   UNL     1       2.186   4.025  -3.559  0.00  0.00    -0.263 NA
ATOM     24  C   UNL     1       2.234   3.358  -2.422  0.00  0.00    +0.118 A 
ENDBRANCH   6  19
BRANCH   1  25
ATOM     25  C   UNL     1      -2.465   3.465   1.210  0.00  0.00    +0.088 C 
BRANCH  25  26
ATOM     26  C   UNL     1      -3.527   2.511   1.758  0.00  0.00    +0.018 C 
BRANCH  26  28
ATOM     27  C   UNL     1      -5.362   3.676   0.527  0.00  0.00    +0.007 C 
ATOM     28  C   UNL     1      -4.854   3.256   1.908  0.00  0.00    -0.016 C 
ATOM     29  C   UNL     1      -5.883   2.338   2.572  0.00  0.00    +0.007 C 
ENDBRANCH  26  28
ENDBRANCH  25  26
ENDBRANCH   1  25
TORSDOF 4
