REMARK  Name = ZINC12052114
REMARK  9 active torsions:
REMARK  status: ('A' for Active; 'I' for Inactive)
REMARK    1  A    between atoms: C_1  and  C_2
REMARK    2  A    between atoms: C_2  and  C_3
REMARK    3  A    between atoms: C_3  and  C_14
REMARK    4  A    between atoms: N_6  and  C_10
REMARK    5  A    between atoms: C_10  and  C_11
REMARK    6  A    between atoms: C_11  and  C_13
REMARK    7  A    between atoms: C_20  and  C_22
REMARK    8  A    between atoms: C_24  and  C_27
REMARK    9  A    between atoms: C_27  and  C_29
REMARK                            x       y       z     vdW  Elec       q    Type
REMARK                         _______ _______ _______ _____ _____    ______ ____
ROOT
ATOM      1  C   UNL     1      -4.629   1.087   1.420  0.00  0.00    +0.024 C 
ATOM      2  C   UNL     1      -4.436  -0.429   1.494  0.00  0.00    +0.025 C 
ATOM      3  C   UNL     1      -3.685  -0.905   0.246  0.00  0.00    +0.108 C 
ATOM      4  N   UNL     1      -2.435  -0.143   0.127  0.00  0.00    -0.297 N 
ATOM      5  C   UNL     1      -2.498   1.325   0.142  0.00  0.00    +0.108 C 
ATOM      6  C   UNL     1      -3.263   1.776   1.385  0.00  0.00    +0.025 C 
ATOM      7  C   UNL     1      -1.252  -0.778   0.010  0.00  0.00    +0.247 C 
ATOM      8  O   UNL     1      -1.218  -1.992  -0.060  0.00  0.00    -0.270 OA
ENDROOT
BRANCH   1   9
ATOM      9  C   UNL     1      -5.409   1.563   2.647  0.00  0.00    +0.115 C 
ATOM     10  C   UNL     1      -4.728   1.103   3.922  0.00  0.00    +0.247 C 
ATOM     11  O   UNL     1      -3.614   1.391   4.302  0.00  0.00    -0.273 OA
ATOM     12  N   UNL     1      -5.621   0.309   4.545  0.00  0.00    -0.220 N 
ATOM     13  C   UNL     1      -6.759   0.204   3.849  0.00  0.00    +0.310 C 
ATOM     14  O   UNL     1      -7.712  -0.458   4.209  0.00  0.00    -0.252 OA
ATOM     15  N   UNL     1      -6.729   0.913   2.706  0.00  0.00    -0.285 N 
ATOM     16  H   UNL     1      -7.440   0.983   2.049  0.00  0.00    +0.151 HD
BRANCH   9  18
ATOM     17  C   UNL     1      -6.336   3.534   3.871  0.00  0.00    +0.006 C 
ATOM     18  C   UNL     1      -5.554   3.086   2.634  0.00  0.00    +0.032 C 
ENDBRANCH   9  18
BRANCH  12  19
ATOM     19  C   UNL     1      -5.376  -0.357   5.827  0.00  0.00    +0.148 C 
BRANCH  19  20
ATOM     20  C   UNL     1      -5.817   0.543   6.952  0.00  0.00    -0.062 C 
ATOM     21  C   UNL     1      -7.014   0.409   7.468  0.00  0.00    +0.009 C 
ATOM     22  C   UNL     1      -4.881   1.597   7.486  0.00  0.00    +0.040 C 
ENDBRANCH  19  20
ENDBRANCH  12  19
ENDBRANCH   1   9
BRANCH   7  23
ATOM     23  C   UNL     1       0.000  -0.002  -0.031  0.00  0.00    +0.045 A 
ATOM     24  C   UNL     1       1.080  -0.351   0.761  0.00  0.00    +0.032 A 
ATOM     25  C   UNL     1       2.217   0.430   0.662  0.00  0.00    +0.055 A 
ATOM     26  S   UNL     1       1.742   1.648  -0.551  0.00  0.00    -0.093 S 
ATOM     27  C   UNL     1       0.128   1.099  -0.866  0.00  0.00    +0.059 A 
BRANCH  25  28
ATOM     28  C   UNL     1       3.447   0.297   1.349  0.00  0.00    +0.167 C 
ATOM     29  O   UNL     1       3.600  -0.601   2.151  0.00  0.00    -0.292 OA
ATOM     30  C   UNL     1       4.566   1.271   1.085  0.00  0.00    +0.092 C 
ENDBRANCH  25  28
ENDBRANCH   7  23
TORSDOF 6
