REMARK  Name = ZINC08169773
REMARK  9 active torsions:
REMARK  status: ('A' for Active; 'I' for Inactive)
REMARK    1  A    between atoms: C_1  and  C_2
REMARK    2  A    between atoms: C_2  and  C_3
REMARK    3  A    between atoms: C_3  and  C_4
REMARK    4  A    between atoms: C_4  and  N_5
REMARK    5  A    between atoms: C_9  and  N_14
REMARK    6  A    between atoms: C_11  and  C_12
REMARK    7  A    between atoms: C_11  and  C_13
REMARK    8  A    between atoms: N_14  and  O_24
REMARK    9  A    between atoms: N_17  and  C_18
REMARK                            x       y       z     vdW  Elec       q    Type
REMARK                         _______ _______ _______ _____ _____    ______ ____
ROOT
ATOM      1  N   UNL     1       2.471   3.093   0.614  0.00  0.00    -0.152 N 
ATOM      2  C   UNL     1       2.803   4.335   0.207  0.00  0.00    +0.330 C 
ATOM      3  O   UNL     1       2.704   4.637  -0.966  0.00  0.00    -0.250 OA
ATOM      4  N   UNL     1       3.245   5.241   1.102  0.00  0.00    -0.268 N 
ATOM      5  H   UNL     1       3.417   4.944   2.147  0.00  0.00    +0.156 HD
ENDROOT
BRANCH   1  10
ATOM      6  N   UNL     1       1.667  -0.291   0.165  0.00  0.00    -0.311 N 
ATOM      7  C   UNL     1       0.374  -0.034   0.409  0.00  0.00    +0.112 C 
ATOM      8  S   UNL     1      -0.829  -1.154   0.888  0.00  0.00    -0.028 S 
ATOM      9  S   UNL     1       0.168   1.713   0.132  0.00  0.00    -0.075 S 
ATOM     10  C   UNL     1       1.887   2.143  -0.336  0.00  0.00    +0.193 C 
ATOM     11  C   UNL     1       2.570   0.764  -0.234  0.00  0.00    +0.061 C 
ATOM     12  C   UNL     1       3.706   0.852   0.787  0.00  0.00    +0.034 C 
ATOM     13  C   UNL     1       3.164   0.411  -1.599  0.00  0.00    +0.034 C 
BRANCH   6  14
ATOM     14  C   UNL     1       2.172  -1.659   0.306  0.00  0.00    +0.107 C 
BRANCH  14  15
ATOM     15  C   UNL     1       2.036  -2.393  -1.030  0.00  0.00    +0.019 C 
BRANCH  15  17
ATOM     16  C   UNL     1       2.426  -4.555  -2.219  0.00  0.00    +0.004 C 
ATOM     17  C   UNL     1       2.563  -3.822  -0.883  0.00  0.00    -0.002 C 
ENDBRANCH  15  17
ENDBRANCH  14  15
ENDBRANCH   6  14
ENDBRANCH   1  10
BRANCH   4  18
ATOM     18  C   UNL     1       3.485   6.560   0.701  0.00  0.00    +0.035 A 
ATOM     19  C   UNL     1       4.518   7.286   1.279  0.00  0.00    +0.023 A 
ATOM     20  C   UNL     1       4.755   8.586   0.878  0.00  0.00    +0.002 A 
ATOM     21  C   UNL     1       3.958   9.169  -0.090  0.00  0.00    +0.000 A 
ATOM     22  C   UNL     1       2.925   8.451  -0.664  0.00  0.00    +0.002 A 
ATOM     23  C   UNL     1       2.686   7.148  -0.271  0.00  0.00    +0.023 A 
ENDBRANCH   4  18
BRANCH   1  24
ATOM     24  O   UNL     1       2.687   2.707   1.959  0.00  0.00    -0.290 OA
ATOM     25  H   UNL     1       3.126   3.421   2.672  0.00  0.00    +0.242 HD
ENDBRANCH   1  24
TORSDOF 6
