REMARK  Name = ZINC13417542
REMARK  8 active torsions:
REMARK  status: ('A' for Active; 'I' for Inactive)
REMARK    1  A    between atoms: C_1  and  C_2
REMARK    2  A    between atoms: C_2  and  C_3
REMARK    3  A    between atoms: C_6  and  N_9
REMARK    4  A    between atoms: C_10  and  C_12
REMARK    5  A    between atoms: C_12  and  C_14
REMARK    6  A    between atoms: C_12  and  N_15
REMARK    7  A    between atoms: C_22  and  C_27
REMARK    8  A    between atoms: C_23  and  C_25
REMARK                            x       y       z     vdW  Elec       q    Type
REMARK                         _______ _______ _______ _____ _____    ______ ____
ROOT
ATOM      1  C   UNL     1       1.045   3.497   0.013  0.00  0.00    +0.174 C 
ATOM      2  C   UNL     1       0.292   3.973  -1.231  0.00  0.00    +0.041 C 
ENDROOT
BRANCH   1   3
ATOM      3  N   UNL     1       1.128   2.034   0.003  0.00  0.00    -0.287 N 
ATOM      4  C   UNL     1      -0.015   1.304   0.001  0.00  0.00    +0.204 A 
ATOM      5  N   UNL     1       0.000  -0.001  -0.008  0.00  0.00    -0.230 NA
ATOM      6  C   UNL     1       1.138  -0.684  -0.016  0.00  0.00    +0.116 A 
ATOM      7  C   UNL     1       2.395  -0.038  -0.015  0.00  0.00    +0.076 A 
ATOM      8  C   UNL     1       2.338   1.442  -0.005  0.00  0.00    +0.263 A 
ATOM      9  O   UNL     1       3.359   2.107  -0.003  0.00  0.00    -0.267 OA
ATOM     10  C   UNL     1       3.511  -0.878  -0.024  0.00  0.00    -0.015 A 
ATOM     11  C   UNL     1       3.341  -2.232  -0.033  0.00  0.00    +0.106 A 
ATOM     12  S   UNL     1       1.565  -2.407  -0.029  0.00  0.00    -0.062 S 
ATOM     13  C   UNL     1       4.899  -0.290  -0.024  0.00  0.00    +0.046 C 
BRANCH  11  14
ATOM     14  C   UNL     1       4.363  -3.281  -0.043  0.00  0.00    +0.393 C 
ATOM     15  O   UNL     1       5.542  -2.982  -0.044  0.00  0.00    -0.240 OA
ATOM     16  O   UNL     1       3.996  -4.579  -0.051  0.00  0.00    -0.240 OA
ENDBRANCH  11  14
ENDBRANCH   1   3
BRANCH   1  18
ATOM     17  N   UNL     1       0.112   5.264   1.472  0.00  0.00    -0.284 N 
ATOM     18  C   UNL     1       0.310   3.949   1.249  0.00  0.00    +0.240 C 
ATOM     19  O   UNL     1      -0.103   3.131   2.043  0.00  0.00    -0.273 OA
ATOM     20  H   UNL     1       0.500   5.921   0.873  0.00  0.00    +0.155 HD
BRANCH  17  24
ATOM     21  C   UNL     1      -2.165   6.505   4.732  0.00  0.00    -0.048 A 
ATOM     22  C   UNL     1      -1.363   5.383   4.837  0.00  0.00    +0.005 A 
ATOM     23  C   UNL     1      -0.607   4.969   3.758  0.00  0.00    +0.023 A 
ATOM     24  C   UNL     1      -0.652   5.681   2.567  0.00  0.00    +0.033 A 
ATOM     25  C   UNL     1      -1.454   6.810   2.466  0.00  0.00    +0.023 A 
ATOM     26  C   UNL     1      -2.213   7.215   3.547  0.00  0.00    +0.005 A 
BRANCH  21  28
ATOM     27  C   UNL     1      -2.173   7.930   6.761  0.00  0.00    +0.009 C 
ATOM     28  C   UNL     1      -2.989   6.954   5.911  0.00  0.00    +0.032 C 
ENDBRANCH  21  28
ENDBRANCH  17  24
ENDBRANCH   1  18
TORSDOF 5
