REMARK  Name = ZINC01428690
REMARK  9 active torsions:
REMARK  status: ('A' for Active; 'I' for Inactive)
REMARK    1  A    between atoms: C_1  and  C_2
REMARK    2  A    between atoms: C_2  and  C_3
REMARK    3  A    between atoms: C_2  and  O_4
REMARK    4  A    between atoms: O_4  and  C_5
REMARK    5  A    between atoms: C_6  and  C_13
REMARK    6  A    between atoms: C_10  and  O_11
REMARK    7  A    between atoms: O_11  and  C_12
REMARK    8  A    between atoms: C_18  and  C_22
REMARK    9  A    between atoms: C_18  and  C_23
REMARK                            x       y       z     vdW  Elec       q    Type
REMARK                         _______ _______ _______ _____ _____    ______ ____
ROOT
ATOM      1  C   UNL     1      -0.539   3.621  -1.010  0.00  0.00    +0.140 C 
ATOM      2  C   UNL     1      -0.554   2.144  -1.320  0.00  0.00    +0.037 C 
ATOM      3  C   UNL     1      -0.601   1.596  -2.547  0.00  0.00    +0.017 C 
ATOM      4  C   UNL     1      -0.597   0.086  -2.719  0.00  0.00    +0.058 C 
ATOM      5  C   UNL     1      -1.302  -0.576  -1.537  0.00  0.00    -0.023 C 
ATOM      6  C   UNL     1      -0.548  -0.180  -0.262  0.00  0.00    +0.086 C 
ATOM      7  C   UNL     1      -0.517   1.317  -0.173  0.00  0.00    +0.163 C 
ATOM      8  O   UNL     1      -0.457   1.837   0.924  0.00  0.00    -0.292 OA
ATOM      9  C   UNL     1      -2.750  -0.087  -1.457  0.00  0.00    +0.011 C 
ATOM     10  C   UNL     1      -1.276  -2.097  -1.704  0.00  0.00    +0.011 C 
ATOM     11  N   UNL     1      -0.636   2.302  -3.706  0.00  0.00    -0.316 N 
ATOM     12  C   UNL     1      -1.462   3.393  -3.950  0.00  0.00    +0.052 A 
ATOM     13  C   UNL     1      -2.421   3.385  -4.947  0.00  0.00    +0.025 A 
ATOM     14  C   UNL     1      -3.130   4.544  -5.216  0.00  0.00    +0.002 A 
ATOM     15  C   UNL     1      -2.881   5.697  -4.493  0.00  0.00    +0.002 A 
ATOM     16  C   UNL     1      -1.938   5.699  -3.480  0.00  0.00    +0.025 A 
ATOM     17  C   UNL     1      -1.240   4.536  -3.197  0.00  0.00    +0.049 A 
ATOM     18  N   UNL     1      -0.315   4.475  -2.157  0.00  0.00    -0.331 N 
ATOM     19  H   UNL     1      -0.039   2.023  -4.418  0.00  0.00    +0.152 HD
ATOM     20  H   UNL     1       0.491   5.013  -2.202  0.00  0.00    +0.147 HD
ENDROOT
BRANCH   1  22
ATOM     21  C   UNL     1      -2.173   5.324  -0.167  0.00  0.00    +0.168 A 
ATOM     22  C   UNL     1      -1.861   3.992  -0.390  0.00  0.00    +0.023 A 
ATOM     23  C   UNL     1      -2.761   3.003  -0.038  0.00  0.00    +0.009 A 
ATOM     24  C   UNL     1      -3.978   3.341   0.525  0.00  0.00    +0.004 A 
ATOM     25  C   UNL     1      -4.298   4.668   0.745  0.00  0.00    +0.049 A 
ATOM     26  C   UNL     1      -3.398   5.663   0.400  0.00  0.00    +0.162 A 
BRANCH  26  27
ATOM     27  O   UNL     1      -3.711   6.969   0.616  0.00  0.00    -0.491 OA
ATOM     28  C   UNL     1      -4.985   7.243   1.201  0.00  0.00    +0.277 C 
ENDBRANCH  26  27
BRANCH  21  29
ATOM     29  O   UNL     1      -1.287   6.297  -0.508  0.00  0.00    -0.485 OA
BRANCH  29  31
ATOM     30  C   UNL     1       0.903   6.133   0.501  0.00  0.00    +0.051 C 
ATOM     31  C   UNL     1      -0.463   6.819   0.537  0.00  0.00    +0.168 C 
ATOM     32  C   UNL     1      -0.283   8.326   0.340  0.00  0.00    +0.051 C 
ENDBRANCH  29  31
ENDBRANCH  21  29
ENDBRANCH   1  22
TORSDOF 4
