REMARK  Name = ZINC39595066
REMARK  6 active torsions:
REMARK  status: ('A' for Active; 'I' for Inactive)
REMARK    1  A    between atoms: C_7  and  C_10
REMARK    2  A    between atoms: C_14  and  C_23
REMARK    3  A    between atoms: N_25  and  C_26
REMARK    4  A    between atoms: C_26  and  C_27
REMARK    5  A    between atoms: C_27  and  C_29
REMARK    6  A    between atoms: C_27  and  N_35
REMARK                            x       y       z     vdW  Elec       q    Type
REMARK                         _______ _______ _______ _____ _____    ______ ____
ROOT
ATOM      1  C   UNL     1       0.346  -3.134  -0.016  0.00  0.00    +0.248 C 
ATOM      2  O   UNL     1      -0.807  -2.761   0.093  0.00  0.00    -0.270 OA
ATOM      3  N   UNL     1       0.621  -4.448  -0.133  0.00  0.00    -0.296 N 
ATOM      4  C   UNL     1       1.952  -5.100  -0.147  0.00  0.00    +0.121 C 
ATOM      5  C   UNL     1       1.760  -6.396   0.672  0.00  0.00    +0.100 C 
ATOM      6  C   UNL     1       0.255  -6.699   0.581  0.00  0.00    -0.004 C 
ATOM      7  C   UNL     1      -0.340  -5.569  -0.272  0.00  0.00    +0.115 C 
ATOM      8  C   UNL     1       0.027  -8.048  -0.095  0.00  0.00    -0.010 C 
ATOM      9  C   UNL     1      -1.473  -8.353  -0.121  0.00  0.00    -0.082 C 
ATOM     10  N   UNL     1      -1.994  -8.377   1.251  0.00  0.00    +0.379 N 
ATOM     11  C   UNL     1      -1.855  -7.049   1.862  0.00  0.00    -0.082 C 
ATOM     12  C   UNL     1      -0.371  -6.689   1.972  0.00  0.00    -0.010 C 
ATOM     13  H   UNL     1      -2.969  -8.638   1.234  0.00  0.00    -0.086 HD
ATOM     14  H   UNL     1      -1.477  -9.051   1.794  0.00  0.00    -0.086 HD
ENDROOT
BRANCH   1  21
ATOM     15  C   UNL     1       0.256   0.951   1.865  0.00  0.00    +0.001 A 
ATOM     16  C   UNL     1       1.404   1.722   1.744  0.00  0.00    +0.001 A 
ATOM     17  C   UNL     1       2.498   1.217   1.069  0.00  0.00    +0.015 A 
ATOM     18  C   UNL     1       2.436  -0.048   0.522  0.00  0.00    +0.020 A 
ATOM     19  C   UNL     1       1.284  -0.850   0.632  0.00  0.00    +0.001 A 
ATOM     20  C   UNL     1       0.185  -0.308   1.326  0.00  0.00    +0.010 A 
ATOM     21  C   UNL     1       1.438  -2.153  -0.020  0.00  0.00    +0.052 A 
ATOM     22  C   UNL     1       2.622  -2.425  -0.627  0.00  0.00    +0.059 A 
ATOM     23  S   UNL     1       3.566  -1.058  -0.396  0.00  0.00    -0.096 S 
ENDBRANCH   1  21
BRANCH   5  24
ATOM     24  C   UNL     1       2.561  -7.521   0.070  0.00  0.00    +0.218 C 
ATOM     25  O   UNL     1       2.850  -7.497  -1.108  0.00  0.00    -0.275 OA
ATOM     26  N   UNL     1       2.957  -8.554   0.840  0.00  0.00    -0.316 N 
ATOM     27  H   UNL     1       2.726  -8.573   1.782  0.00  0.00    +0.149 HD
BRANCH  26  28
ATOM     28  C   UNL     1       3.736  -9.648   0.255  0.00  0.00    +0.093 C 
BRANCH  28  29
ATOM     29  C   UNL     1       4.161 -10.619   1.358  0.00  0.00    -0.019 C 
BRANCH  29  30
ATOM     30  C   UNL     1       5.020  -9.895   2.362  0.00  0.00    -0.041 A 
ATOM     31  C   UNL     1       4.479  -9.455   3.561  0.00  0.00    +0.005 A 
ATOM     32  C   UNL     1       5.307  -8.793   4.455  0.00  0.00    +0.020 A 
ATOM     33  C   UNL     1       6.634  -8.595   4.123  0.00  0.00    +0.111 A 
ATOM     34  N   UNL     1       7.114  -9.027   2.974  0.00  0.00    -0.263 NA
ATOM     35  C   UNL     1       6.357  -9.665   2.102  0.00  0.00    +0.112 A 
ENDBRANCH  29  30
BRANCH  29  36
ATOM     36  N   UNL     1       4.925 -11.726   0.768  0.00  0.00    +0.385 N 
ATOM     37  C   UNL     1       5.172 -12.778   1.787  0.00  0.00    -0.078 C 
ATOM     38  C   UNL     1       5.445 -14.042   0.933  0.00  0.00    -0.020 C 
ATOM     39  C   UNL     1       4.458 -13.883  -0.246  0.00  0.00    -0.020 C 
ATOM     40  C   UNL     1       4.137 -12.378  -0.301  0.00  0.00    -0.078 C 
ATOM     41  H   UNL     1       5.800 -11.387   0.398  0.00  0.00    -0.081 HD
ENDBRANCH  29  36
ENDBRANCH  28  29
ENDBRANCH  26  28
ENDBRANCH   5  24
TORSDOF 6
