REMARK  Name = ZINC11330833
REMARK  8 active torsions:
REMARK  status: ('A' for Active; 'I' for Inactive)
REMARK    1  A    between atoms: C_1  and  C_2
REMARK    2  A    between atoms: C_3  and  O_27
REMARK    3  A    between atoms: C_12  and  C_13
REMARK    4  A    between atoms: C_13  and  O_14
REMARK    5  A    between atoms: O_14  and  C_15
REMARK    6  A    between atoms: C_15  and  C_17
REMARK    7  A    between atoms: C_17  and  C_18
REMARK    8  A    between atoms: C_23  and  N_24
REMARK                            x       y       z     vdW  Elec       q    Type
REMARK                         _______ _______ _______ _____ _____    ______ ____
ROOT
ATOM      1  C   UNL     1       5.538   0.736   0.779  0.00  0.00    +0.051 C 
ATOM      2  C   UNL     1       4.135   0.191   0.843  0.00  0.00    +0.034 A 
ATOM      3  C   UNL     1       3.076   1.029   1.152  0.00  0.00    +0.123 A 
ATOM      4  C   UNL     1       1.775   0.535   1.212  0.00  0.00    +0.046 A 
ATOM      5  C   UNL     1       1.525  -0.785   0.968  0.00  0.00    +0.015 A 
ATOM      6  C   UNL     1       2.583  -1.647   0.655  0.00  0.00    +0.024 A 
ATOM      7  C   UNL     1       3.899  -1.152   0.593  0.00  0.00    +0.146 A 
ATOM      8  O   UNL     1       4.917  -1.987   0.291  0.00  0.00    -0.422 OA
ATOM      9  C   UNL     1       4.705  -3.290   0.047  0.00  0.00    +0.338 A 
ATOM     10  O   UNL     1       5.654  -4.005  -0.221  0.00  0.00    -0.245 OA
ATOM     11  C   UNL     1       3.413  -3.852   0.092  0.00  0.00    +0.099 A 
ATOM     12  C   UNL     1       2.345  -3.067   0.389  0.00  0.00    +0.007 A 
ENDROOT
BRANCH   3  13
ATOM     13  O   UNL     1       3.308   2.344   1.397  0.00  0.00    -0.506 OA
ATOM     14  H   UNL     1       3.484   2.546   2.326  0.00  0.00    +0.292 HD
ENDBRANCH   3  13
BRANCH  12  15
ATOM     15  C   UNL     1       0.953  -3.642   0.445  0.00  0.00    +0.268 C 
BRANCH  15  16
ATOM     16  O   UNL     1       1.003  -5.061   0.143  0.00  0.00    -0.460 OA
BRANCH  16  17
ATOM     17  C   UNL     1      -0.162  -5.728   0.151  0.00  0.00    +0.312 C 
ATOM     18  O   UNL     1      -1.190  -5.145   0.403  0.00  0.00    -0.250 OA
BRANCH  17  19
ATOM     19  C   UNL     1      -0.188  -7.204  -0.153  0.00  0.00    +0.158 C 
BRANCH  19  20
ATOM     20  C   UNL     1      -1.606  -7.707  -0.079  0.00  0.00    -0.007 A 
ATOM     21  C   UNL     1      -2.089  -8.243   1.101  0.00  0.00    +0.006 A 
ATOM     22  C   UNL     1      -3.391  -8.700   1.170  0.00  0.00    +0.000 A 
ATOM     23  C   UNL     1      -4.208  -8.631   0.057  0.00  0.00    +0.002 A 
ATOM     24  C   UNL     1      -3.724  -8.100  -1.124  0.00  0.00    +0.033 A 
ATOM     25  C   UNL     1      -2.423  -7.638  -1.192  0.00  0.00    +0.130 A 
BRANCH  25  26
ATOM     26  N   UNL     1      -1.904  -7.070  -2.456  0.00  0.00    +0.057 N 
ATOM     27  O   UNL     1      -1.145  -6.118  -2.430  0.00  0.00    -0.126 OA
ATOM     28  O   UNL     1      -2.236  -7.555  -3.523  0.00  0.00    -0.126 OA
ENDBRANCH  25  26
ENDBRANCH  19  20
ENDBRANCH  17  19
ENDBRANCH  16  17
ENDBRANCH  15  16
ENDBRANCH  12  15
TORSDOF 7
