REMARK  Name = ZINC38796993
REMARK  6 active torsions:
REMARK  status: ('A' for Active; 'I' for Inactive)
REMARK    1  A    between atoms: C_1  and  C_2
REMARK    2  A    between atoms: C_2  and  C_4
REMARK    3  A    between atoms: C_2  and  N_17
REMARK    4  A    between atoms: N_17  and  C_18
REMARK    5  A    between atoms: N_17  and  C_19
REMARK    6  A    between atoms: C_19  and  C_20
REMARK                            x       y       z     vdW  Elec       q    Type
REMARK                         _______ _______ _______ _____ _____    ______ ____
ROOT
ATOM      1  C   UNL     1      -0.508   1.128  -0.797  0.00  0.00    -0.004 C 
ATOM      2  C   UNL     1      -0.289  -0.186  -0.046  0.00  0.00    +0.016 C 
ENDROOT
BRANCH   2   3
ATOM      3  C   UNL     1      -1.532  -1.033  -0.141  0.00  0.00    +0.203 C 
ATOM      4  O   UNL     1      -1.668  -1.810  -1.062  0.00  0.00    -0.277 OA
ATOM      5  N   UNL     1      -2.494  -0.925   0.798  0.00  0.00    -0.287 N 
ATOM      6  C   UNL     1      -3.734  -0.652   0.443  0.00  0.00    +0.035 C 
ATOM      7  C   UNL     1      -4.047  -0.349  -0.959  0.00  0.00    +0.025 C 
ATOM      8  C   UNL     1      -5.312  -0.070  -1.329  0.00  0.00    +0.032 C 
ATOM      9  C   UNL     1      -6.386  -0.067  -0.332  0.00  0.00    +0.095 C 
ATOM     10  N   UNL     1      -7.685   0.161  -0.378  0.00  0.00    -0.190 NA
ATOM     11  C   UNL     1      -8.203   0.029   0.854  0.00  0.00    +0.369 C 
ATOM     12  O   UNL     1      -9.513   0.197   1.152  0.00  0.00    -0.243 OA
ATOM     13  N   UNL     1      -7.279  -0.284   1.733  0.00  0.00    -0.190 NA
ATOM     14  C   UNL     1      -6.084  -0.370   1.081  0.00  0.00    +0.097 C 
ATOM     15  C   UNL     1      -4.811  -0.657   1.456  0.00  0.00    +0.053 C 
ATOM     16  H   UNL     1      -2.273  -1.049   1.734  0.00  0.00    +0.155 HD
ENDBRANCH   2   3
BRANCH   2  17
ATOM     17  N   UNL     1       0.842  -0.909  -0.644  0.00  0.00    +0.388 N 
ATOM     18  C   UNL     1       1.041  -2.180   0.065  0.00  0.00    -0.095 C 
ATOM     19  H   UNL     1       0.647  -1.094  -1.617  0.00  0.00    -0.081 HD
BRANCH  17  20
ATOM     20  C   UNL     1       2.058  -0.092  -0.535  0.00  0.00    -0.042 C 
BRANCH  20  21
ATOM     21  C   UNL     1       3.190  -0.777  -1.256  0.00  0.00    -0.063 A 
ATOM     22  C   UNL     1       4.001  -1.675  -0.564  0.00  0.00    +0.002 A 
ATOM     23  C   UNL     1       5.032  -2.310  -1.184  0.00  0.00    +0.009 A 
ATOM     24  C   UNL     1       5.285  -2.061  -2.544  0.00  0.00    -0.018 A 
ATOM     25  C   UNL     1       6.340  -2.699  -3.219  0.00  0.00    +0.008 A 
ATOM     26  C   UNL     1       6.554  -2.433  -4.537  0.00  0.00    +0.001 A 
ATOM     27  C   UNL     1       5.743  -1.536  -5.229  0.00  0.00    +0.001 A 
ATOM     28  C   UNL     1       4.712  -0.900  -4.608  0.00  0.00    +0.008 A 
ATOM     29  C   UNL     1       4.460  -1.149  -3.248  0.00  0.00    -0.018 A 
ATOM     30  C   UNL     1       3.401  -0.515  -2.575  0.00  0.00    +0.010 A 
ENDBRANCH  20  21
ENDBRANCH  17  20
ENDBRANCH   2  17
TORSDOF 4
