REMARK  Name = ZINC23516907
REMARK  7 active torsions:
REMARK  status: ('A' for Active; 'I' for Inactive)
REMARK    1  A    between atoms: C_7  and  C_11
REMARK    2  A    between atoms: C_14  and  S_23
REMARK    3  A    between atoms: N_15  and  C_16
REMARK    4  A    between atoms: C_16  and  C_17
REMARK    5  A    between atoms: S_23  and  C_24
REMARK    6  A    between atoms: C_24  and  C_25
REMARK    7  A    between atoms: C_25  and  C_27
REMARK                            x       y       z     vdW  Elec       q    Type
REMARK                         _______ _______ _______ _____ _____    ______ ____
ROOT
ATOM      1  C   UNL     1      -2.538   1.335   0.215  0.00  0.00    +0.167 A 
ATOM      2  N   UNL     1      -3.615   2.086   0.240  0.00  0.00    -0.128 NA
ATOM      3  N   UNL     1      -4.653   1.376  -0.026  0.00  0.00    -0.122 NA
ATOM      4  C   UNL     1      -4.305   0.126  -0.228  0.00  0.00    +0.192 A 
ATOM      5  N   UNL     1      -2.946   0.055  -0.082  0.00  0.00    -0.300 N 
ENDROOT
BRANCH   1  12
ATOM      6  C   UNL     1      -0.592   4.014   3.517  0.00  0.00    +0.001 A 
ATOM      7  C   UNL     1       0.776   4.168   3.342  0.00  0.00    +0.002 A 
ATOM      8  C   UNL     1       1.422   3.563   2.286  0.00  0.00    +0.026 A 
ATOM      9  C   UNL     1       0.697   2.788   1.385  0.00  0.00    +0.047 A 
ATOM     10  C   UNL     1      -0.688   2.636   1.568  0.00  0.00    +0.010 A 
ATOM     11  C   UNL     1      -1.322   3.258   2.643  0.00  0.00    +0.011 A 
ATOM     12  C   UNL     1      -1.152   1.780   0.464  0.00  0.00    +0.044 A 
ATOM     13  C   UNL     1      -0.057   1.476  -0.279  0.00  0.00    +0.095 A 
ATOM     14  N   UNL     1       1.045   2.074   0.260  0.00  0.00    -0.360 N 
ATOM     15  H   UNL     1       2.093   2.051  -0.075  0.00  0.00    +0.165 HD
ENDBRANCH   1  12
BRANCH   5  16
ATOM     16  C   UNL     1      -2.103  -1.135  -0.214  0.00  0.00    +0.157 C 
BRANCH  16  17
ATOM     17  C   UNL     1      -1.865  -1.748   1.168  0.00  0.00    +0.138 C 
ATOM     18  C   UNL     1      -0.880  -2.931   1.054  0.00  0.00    +0.035 C 
ATOM     19  C   UNL     1      -1.483  -3.958   2.052  0.00  0.00    +0.031 C 
ATOM     20  C   UNL     1      -2.998  -3.677   1.885  0.00  0.00    +0.160 C 
ATOM     21  O   UNL     1      -3.097  -2.257   1.692  0.00  0.00    -0.375 OA
ENDBRANCH  16  17
ENDBRANCH   5  16
BRANCH   4  22
ATOM     22  S   UNL     1      -5.386  -1.210  -0.614  0.00  0.00    -0.078 S 
BRANCH  22  23
ATOM     23  C   UNL     1      -6.971  -0.337  -0.631  0.00  0.00    +0.157 C 
BRANCH  23  24
ATOM     24  C   UNL     1      -8.077  -1.310  -0.950  0.00  0.00    +0.175 C 
ATOM     25  O   UNL     1      -7.818  -2.480  -1.147  0.00  0.00    -0.291 OA
BRANCH  24  26
ATOM     26  C   UNL     1      -9.419  -0.860  -1.020  0.00  0.00    +0.043 A 
ATOM     27  C   UNL     1      -9.871   0.427  -0.824  0.00  0.00    +0.095 A 
ATOM     28  N   UNL     1     -11.209   0.465  -0.974  0.00  0.00    -0.360 N 
ATOM     29  H   UNL     1     -11.750   1.415  -0.854  0.00  0.00    +0.165 HD
ATOM     30  C   UNL     1     -11.701  -0.789  -1.276  0.00  0.00    +0.047 A 
ATOM     31  C   UNL     1     -10.612  -1.674  -1.325  0.00  0.00    +0.010 A 
ATOM     32  C   UNL     1     -10.818  -3.021  -1.606  0.00  0.00    +0.011 A 
ATOM     33  C   UNL     1     -12.095  -3.481  -1.846  0.00  0.00    +0.001 A 
ATOM     34  C   UNL     1     -13.172  -2.608  -1.803  0.00  0.00    +0.002 A 
ATOM     35  C   UNL     1     -12.983  -1.272  -1.521  0.00  0.00    +0.026 A 
ENDBRANCH  24  26
ENDBRANCH  23  24
ENDBRANCH  22  23
ENDBRANCH   4  22
TORSDOF 7
