REMARK  Name = ZINC39592969
REMARK  3 active torsions:
REMARK  status: ('A' for Active; 'I' for Inactive)
REMARK    1  A    between atoms: C_3  and  C_6
REMARK    2  A    between atoms: C_10  and  C_15
REMARK    3  A    between atoms: C_18  and  C_21
REMARK                            x       y       z     vdW  Elec       q    Type
REMARK                         _______ _______ _______ _____ _____    ______ ____
ROOT
ATOM      1  C   UNL     1       3.761   1.845  -0.024  0.00  0.00    +0.189 C 
ATOM      2  N   UNL     1       4.693   0.857  -0.629  0.00  0.00    -0.263 N 
ATOM      3  N   UNL     1       5.925   0.796  -0.048  0.00  0.00    -0.222 N 
ATOM      4  C   UNL     1       7.190   0.357  -0.392  0.00  0.00    +0.181 A 
ATOM      5  N   UNL     1       7.969   0.529   0.635  0.00  0.00    -0.129 NA
ATOM      6  N   UNL     1       7.309   1.057   1.605  0.00  0.00    -0.121 NA
ATOM      7  C   UNL     1       6.082   1.254   1.236  0.00  0.00    +0.211 A 
ATOM      8  S   UNL     1       4.478   1.894   1.675  0.00  0.00    -0.055 S 
ATOM      9  H   UNL     1       4.269  -0.058  -0.675  0.00  0.00    +0.168 HD
ENDROOT
BRANCH   1  12
ATOM     10  C   UNL     1      -0.016   1.351   0.009  0.00  0.00    +0.008 A 
ATOM     11  C   UNL     1       1.183   2.038   0.002  0.00  0.00    +0.014 A 
ATOM     12  C   UNL     1       2.343   1.336  -0.013  0.00  0.00    +0.022 A 
ATOM     13  S   UNL     1       1.754  -0.349  -0.017  0.00  0.00    -0.099 S 
ATOM     14  C   UNL     1       0.002  -0.004   0.002  0.00  0.00    +0.045 A 
ENDBRANCH   1  12
BRANCH   4  15
ATOM     15  C   UNL     1       7.596  -0.220  -1.724  0.00  0.00    +0.222 C 
ATOM     16  C   UNL     1       7.825  -1.717  -1.612  0.00  0.00    +0.039 C 
ATOM     17  C   UNL     1       9.123  -1.870  -1.939  0.00  0.00    +0.091 C 
ATOM     18  N   UNL     1       9.684  -0.666  -2.227  0.00  0.00    -0.153 NA
ATOM     19  N   UNL     1       8.912   0.295  -2.135  0.00  0.00    -0.171 NA
BRANCH  17  20
ATOM     20  C   UNL     1       9.839  -3.169  -1.978  0.00  0.00    +0.002 A 
ATOM     21  C   UNL     1       9.165  -4.348  -1.669  0.00  0.00    +0.011 A 
ATOM     22  C   UNL     1       9.835  -5.554  -1.707  0.00  0.00    +0.020 A 
ATOM     23  C   UNL     1      11.175  -5.593  -2.052  0.00  0.00    +0.041 A 
ATOM     24  C   UNL     1      11.849  -4.424  -2.360  0.00  0.00    +0.020 A 
ATOM     25  C   UNL     1      11.187  -3.214  -2.331  0.00  0.00    +0.011 A 
ATOM     26 CL   UNL     1      12.013  -7.113  -2.097  0.00  0.00    -0.084 Cl
ENDBRANCH  17  20
ENDBRANCH   4  15
TORSDOF 3
