REMARK  Name = ZINC39719924
REMARK  9 active torsions:
REMARK  status: ('A' for Active; 'I' for Inactive)
REMARK    1  A    between atoms: C_1  and  C_2
REMARK    2  A    between atoms: C_4  and  S_9
REMARK    3  A    between atoms: C_5  and  C_8
REMARK    4  A    between atoms: S_9  and  C_10
REMARK    5  A    between atoms: C_15  and  N_16
REMARK    6  A    between atoms: C_17  and  C_18
REMARK    7  A    between atoms: C_20  and  O_32
REMARK    8  A    between atoms: N_22  and  C_26
REMARK    9  A    between atoms: C_24  and  C_25
REMARK                            x       y       z     vdW  Elec       q    Type
REMARK                         _______ _______ _______ _____ _____    ______ ____
ROOT
ATOM      1  N   UNL     1      -5.234  -0.845  -2.296  0.00  0.00    -0.258 NA
ATOM      2  C   UNL     1      -6.292  -1.094  -2.993  0.00  0.00    +0.098 C 
ENDROOT
BRANCH   1   8
ATOM      3  C   UNL     1      -4.665  -0.756   0.038  0.00  0.00    +0.038 A 
ATOM      4  C   UNL     1      -4.470  -1.415   1.244  0.00  0.00    +0.017 A 
ATOM      5  C   UNL     1      -4.631  -2.785   1.318  0.00  0.00    +0.001 A 
ATOM      6  C   UNL     1      -4.988  -3.510   0.193  0.00  0.00    +0.002 A 
ATOM      7  C   UNL     1      -5.186  -2.869  -1.013  0.00  0.00    +0.029 A 
ATOM      8  C   UNL     1      -5.032  -1.486  -1.101  0.00  0.00    +0.077 A 
BRANCH   3   9
ATOM      9  S   UNL     1      -4.460   0.991  -0.059  0.00  0.00    -0.088 S 
BRANCH   9  12
ATOM     10  C   UNL     1      -1.353   1.599   1.353  0.00  0.00    +0.040 C 
ATOM     11  C   UNL     1      -2.526   1.058   2.173  0.00  0.00    +0.163 C 
ATOM     12  C   UNL     1      -3.850   1.438   1.533  0.00  0.00    +0.039 C 
ATOM     13  C   UNL     1      -4.452   2.201   2.477  0.00  0.00    +0.072 C 
ATOM     14  N   UNL     1      -3.674   2.315   3.555  0.00  0.00    -0.158 NA
ATOM     15  N   UNL     1      -2.593   1.720   3.488  0.00  0.00    -0.179 NA
ATOM     16  C   UNL     1      -5.811   2.835   2.329  0.00  0.00    +0.068 C 
ENDBRANCH   9  12
ENDBRANCH   3   9
ENDBRANCH   1   8
BRANCH   2  17
ATOM     17  C   UNL     1      -6.455  -0.481  -4.360  0.00  0.00    +0.124 C 
ATOM     18  C   UNL     1      -6.632  -1.579  -5.428  0.00  0.00    +0.238 C 
ATOM     19  N   UNL     1      -7.968  -1.300  -5.981  0.00  0.00    -0.195 N 
ATOM     20  N   UNL     1      -8.499  -0.191  -5.326  0.00  0.00    -0.186 NA
ATOM     21  C   UNL     1      -7.741   0.311  -4.436  0.00  0.00    +0.046 C 
ATOM     22  C   UNL     1      -8.071   1.511  -3.585  0.00  0.00    +0.063 C 
BRANCH  19  23
ATOM     23  C   UNL     1      -8.598  -2.026  -6.993  0.00  0.00    +0.054 A 
ATOM     24  C   UNL     1      -7.961  -3.122  -7.564  0.00  0.00    +0.025 A 
ATOM     25  C   UNL     1      -8.587  -3.838  -8.565  0.00  0.00    +0.002 A 
ATOM     26  C   UNL     1      -9.846  -3.467  -8.999  0.00  0.00    +0.000 A 
ATOM     27  C   UNL     1     -10.483  -2.377  -8.434  0.00  0.00    +0.002 A 
ATOM     28  C   UNL     1      -9.865  -1.659  -7.429  0.00  0.00    +0.025 A 
ENDBRANCH  19  23
BRANCH  18  29
ATOM     29  O   UNL     1      -5.630  -1.465  -6.440  0.00  0.00    -0.372 OA
ATOM     30  H   UNL     1      -5.696  -2.132  -7.136  0.00  0.00    +0.212 HD
ENDBRANCH  18  29
ENDBRANCH   2  17
TORSDOF 6
