REMARK  Name = ZINC48797064
REMARK  9 active torsions:
REMARK  status: ('A' for Active; 'I' for Inactive)
REMARK    1  A    between atoms: C_1  and  C_2
REMARK    2  A    between atoms: C_2  and  C_4
REMARK    3  A    between atoms: C_2  and  N_13
REMARK    4  A    between atoms: C_4  and  C_5
REMARK    5  A    between atoms: C_5  and  C_6
REMARK    6  A    between atoms: C_9  and  O_12
REMARK    7  A    between atoms: N_13  and  C_14
REMARK    8  A    between atoms: C_14  and  C_15
REMARK    9  A    between atoms: C_20  and  O_21
REMARK                            x       y       z     vdW  Elec       q    Type
REMARK                         _______ _______ _______ _____ _____    ______ ____
ROOT
ATOM      1  N   UNL     1       0.713  -0.491   1.192  0.00  0.00    +0.383 N 
ATOM      2  H   UNL     1       0.798  -1.495   1.145  0.00  0.00    -0.085 HD
ATOM      3  H   UNL     1       1.632  -0.076   1.228  0.00  0.00    -0.085 HD
ENDROOT
BRANCH   1   5
ATOM      4  C   UNL     1      -0.019   1.526   0.010  0.00  0.00    -0.014 C 
ATOM      5  C   UNL     1       0.002  -0.004   0.002  0.00  0.00    -0.074 C 
BRANCH   5   6
ATOM      6  C   UNL     1       0.718  -0.497  -1.257  0.00  0.00    -0.011 C 
BRANCH   6   7
ATOM      7  C   UNL     1       0.630  -2.023  -1.329  0.00  0.00    +0.033 C 
BRANCH   7   8
ATOM      8  C   UNL     1       1.336  -2.509  -2.568  0.00  0.00    -0.047 A 
ATOM      9  C   UNL     1       0.637  -2.639  -3.754  0.00  0.00    +0.007 A 
ATOM     10  C   UNL     1       1.281  -3.084  -4.892  0.00  0.00    +0.045 A 
ATOM     11  C   UNL     1       2.630  -3.402  -4.844  0.00  0.00    +0.117 A 
ATOM     12  C   UNL     1       3.330  -3.271  -3.653  0.00  0.00    +0.045 A 
ATOM     13  C   UNL     1       2.682  -2.820  -2.520  0.00  0.00    +0.007 A 
BRANCH  11  14
ATOM     14  O   UNL     1       3.266  -3.841  -5.962  0.00  0.00    -0.507 OA
ATOM     15  H   UNL     1       3.654  -3.135  -6.497  0.00  0.00    +0.292 HD
ENDBRANCH  11  14
ENDBRANCH   7   8
ENDBRANCH   6   7
ENDBRANCH   5   6
ENDBRANCH   1   5
BRANCH   1  16
ATOM     16  C   UNL     1      -0.040  -0.119   2.398  0.00  0.00    -0.043 C 
BRANCH  16  17
ATOM     17  C   UNL     1       0.689  -0.618   3.619  0.00  0.00    -0.022 A 
ATOM     18  C   UNL     1       0.282  -1.785   4.238  0.00  0.00    +0.005 A 
ATOM     19  C   UNL     1       0.950  -2.244   5.358  0.00  0.00    +0.002 A 
ATOM     20  C   UNL     1       2.027  -1.537   5.862  0.00  0.00    +0.019 A 
ATOM     21  C   UNL     1       2.438  -0.370   5.246  0.00  0.00    +0.059 A 
ATOM     22  C   UNL     1       1.772   0.090   4.118  0.00  0.00    +0.132 A 
ATOM     23 BR   UNL     1       3.910   0.596   5.936  0.00  0.00    -0.047 Br
BRANCH  22  24
ATOM     24  O   UNL     1       2.177   1.235   3.508  0.00  0.00    -0.505 OA
ATOM     25  H   UNL     1       1.750   2.034   3.847  0.00  0.00    +0.292 HD
ENDBRANCH  22  24
ENDBRANCH  16  17
ENDBRANCH   1  16
TORSDOF 8
