REMARK  Name = ZINC05720593
REMARK  4 active torsions:
REMARK  status: ('A' for Active; 'I' for Inactive)
REMARK    1  A    between atoms: C_1  and  O_2
REMARK    2  A    between atoms: O_2  and  C_3
REMARK    3  A    between atoms: C_6  and  C_9
REMARK    4  A    between atoms: C_12  and  C_15
REMARK                            x       y       z     vdW  Elec       q    Type
REMARK                         _______ _______ _______ _____ _____    ______ ____
ROOT
ATOM      1  C   UNL     1       0.002  -0.004   0.002  0.00  0.00    +0.240 C 
ATOM      2  C   UNL     1      -0.379  -0.571   1.391  0.00  0.00    +0.111 C 
ATOM      3  C   UNL     1      -1.203  -1.793   1.033  0.00  0.00    +0.098 C 
ATOM      4  N   UNL     1      -1.538  -1.706  -0.213  0.00  0.00    -0.088 NA
ATOM      5  O   UNL     1      -1.052  -0.530  -0.830  0.00  0.00    -0.385 OA
ENDROOT
BRANCH   3   6
ATOM      6  C   UNL     1      -1.560  -2.891   1.947  0.00  0.00    +0.085 A 
ATOM      7  C   UNL     1      -1.141  -2.873   3.264  0.00  0.00    +0.028 A 
ATOM      8  C   UNL     1      -1.509  -3.951   4.111  0.00  0.00    +0.018 A 
ATOM      9  C   UNL     1      -1.100  -3.965   5.452  0.00  0.00    +0.011 A 
ATOM     10  C   UNL     1      -1.456  -5.006   6.261  0.00  0.00    +0.001 A 
ATOM     11  C   UNL     1      -2.221  -6.052   5.766  0.00  0.00    +0.004 A 
ATOM     12  C   UNL     1      -2.634  -6.059   4.450  0.00  0.00    +0.047 A 
ATOM     13  C   UNL     1      -2.284  -5.010   3.606  0.00  0.00    +0.139 A 
ATOM     14  O   UNL     1      -2.689  -5.019   2.318  0.00  0.00    -0.422 OA
ATOM     15  C   UNL     1      -2.372  -4.020   1.478  0.00  0.00    +0.346 A 
ATOM     16  O   UNL     1      -2.756  -4.053   0.323  0.00  0.00    -0.244 OA
ENDBRANCH   3   6
BRANCH   1  20
ATOM     17  C   UNL     1      -0.056   4.269   0.025  0.00  0.00    +0.120 A 
ATOM     18  C   UNL     1       1.154   3.591   0.010  0.00  0.00    +0.046 A 
ATOM     19  C   UNL     1       1.170   2.209   0.003  0.00  0.00    +0.011 A 
ATOM     20  C   UNL     1      -0.018   1.503   0.010  0.00  0.00    -0.004 A 
ATOM     21  C   UNL     1      -1.226   2.177   0.020  0.00  0.00    +0.011 A 
ATOM     22  C   UNL     1      -1.247   3.558   0.033  0.00  0.00    +0.046 A 
BRANCH  17  24
ATOM     23  C   UNL     1      -1.356   6.259   0.047  0.00  0.00    +0.277 C 
ATOM     24  O   UNL     1      -0.074   5.628   0.032  0.00  0.00    -0.495 OA
ENDBRANCH  17  24
ENDBRANCH   1  20
TORSDOF 3
