REMARK  Name = ZINC09125664
REMARK  6 active torsions:
REMARK  status: ('A' for Active; 'I' for Inactive)
REMARK    1  A    between atoms: C_4  and  C_7
REMARK    2  A    between atoms: C_7  and  N_8
REMARK    3  A    between atoms: C_9  and  N_31
REMARK    4  A    between atoms: C_10  and  N_17
REMARK    5  A    between atoms: N_17  and  C_18
REMARK    6  A    between atoms: C_23  and  C_25
REMARK                            x       y       z     vdW  Elec       q    Type
REMARK                         _______ _______ _______ _____ _____    ______ ____
ROOT
ATOM      1  N   UNL     1       3.193   8.404  -0.195  0.00  0.00    -0.276 N 
ATOM      2  C   UNL     1       2.693   7.123  -0.169  0.00  0.00    +0.128 A 
ATOM      3  C   UNL     1       1.368   6.923   0.158  0.00  0.00    +0.140 A 
ATOM      4  C   UNL     1       0.564   8.042   0.449  0.00  0.00    +0.277 A 
ATOM      5  O   UNL     1      -0.612   7.895   0.736  0.00  0.00    -0.266 OA
ATOM      6  N   UNL     1       1.105   9.276   0.414  0.00  0.00    -0.273 N 
ATOM      7  H   UNL     1       0.537  10.070   0.628  0.00  0.00    +0.173 HD
ATOM      8  C   UNL     1       2.399   9.451   0.093  0.00  0.00    +0.331 A 
ATOM      9  O   UNL     1       2.859  10.576   0.064  0.00  0.00    -0.246 OA
ENDROOT
BRANCH   3  10
ATOM     10  N   UNL     1       0.825   5.622   0.194  0.00  0.00    -0.255 N 
ATOM     11  C   UNL     1       1.164   4.778   1.188  0.00  0.00    +0.287 C 
ATOM     12  O   UNL     1       0.763   3.628   1.175  0.00  0.00    -0.266 OA
BRANCH  11  13
ATOM     13  C   UNL     1       2.016   5.243   2.286  0.00  0.00    +0.191 A 
ATOM     14  C   UNL     1       2.518   4.472   3.296  0.00  0.00    +0.056 A 
ATOM     15  C   UNL     1       3.273   5.322   4.117  0.00  0.00    +0.058 A 
ATOM     16  C   UNL     1       3.197   6.563   3.583  0.00  0.00    +0.171 A 
ATOM     17  O   UNL     1       2.442   6.510   2.477  0.00  0.00    -0.444 OA
ATOM     18 BR   UNL     1       4.022   8.115   4.280  0.00  0.00    -0.008 Br
ENDBRANCH  11  13
BRANCH  10  19
ATOM     19  C   UNL     1      -0.106   5.187  -0.850  0.00  0.00    +0.082 C 
ATOM     20  C   UNL     1      -1.475   4.843  -0.227  0.00  0.00    +0.023 C 
ATOM     21  C   UNL     1      -1.965   3.620  -1.042  0.00  0.00    +0.002 C 
ATOM     22  C   UNL     1      -0.661   2.817  -1.273  0.00  0.00    +0.002 C 
ATOM     23  C   UNL     1       0.411   3.900  -1.515  0.00  0.00    +0.023 C 
ENDBRANCH  10  19
ENDBRANCH   3  10
BRANCH   2  24
ATOM     24  N   UNL     1       3.505   6.053  -0.464  0.00  0.00    -0.343 N 
ATOM     25  H   UNL     1       3.124   5.167  -0.559  0.00  0.00    +0.144 HD
ATOM     26  H   UNL     1       4.459   6.186  -0.578  0.00  0.00    +0.144 HD
ENDBRANCH   2  24
BRANCH   1  27
ATOM     27  C   UNL     1       4.599   8.630  -0.540  0.00  0.00    +0.163 C 
BRANCH  27  31
ATOM     28  C   UNL     1       4.962   9.161  -4.763  0.00  0.00    +0.000 A 
ATOM     29  C   UNL     1       4.746  10.255  -3.945  0.00  0.00    +0.000 A 
ATOM     30  C   UNL     1       4.629  10.083  -2.579  0.00  0.00    +0.005 A 
ATOM     31  C   UNL     1       4.727   8.818  -2.030  0.00  0.00    -0.028 A 
ATOM     32  C   UNL     1       4.948   7.725  -2.848  0.00  0.00    +0.005 A 
ATOM     33  C   UNL     1       5.060   7.896  -4.215  0.00  0.00    +0.000 A 
ENDBRANCH  27  31
ENDBRANCH   1  27
TORSDOF 6
