REMARK  Name = CHEMBL522902
REMARK  6 active torsions:
REMARK  status: ('A' for Active; 'I' for Inactive)
REMARK    1  A    between atoms: C_1  and  C_2
REMARK    2  A    between atoms: C_2  and  N_3
REMARK    3  A    between atoms: C_5  and  C_24
REMARK    4  A    between atoms: C_6  and  C_8
REMARK    5  A    between atoms: C_12  and  N_14
REMARK    6  A    between atoms: N_17  and  C_18
REMARK                            x       y       z     vdW  Elec       q    Type
REMARK                         _______ _______ _______ _____ _____    ______ ____
ROOT
ATOM      1  C   UNL     1       1.448  -0.790  -4.765  0.00  0.00    +0.004 A 
ATOM      2  C   UNL     1       2.712  -0.919  -5.340  0.00  0.00    +0.010 A 
ATOM      3  C   UNL     1       2.852  -0.891  -6.713  0.00  0.00    +0.002 A 
ATOM      4  C   UNL     1       1.741  -0.738  -7.522  0.00  0.00    +0.023 A 
ATOM      5  C   UNL     1       0.478  -0.609  -6.958  0.00  0.00    +0.035 A 
ATOM      6  C   UNL     1       0.329  -0.641  -5.580  0.00  0.00    +0.033 A 
ENDROOT
BRANCH   5   7
ATOM      7  N   UNL     1      -0.643  -0.452  -7.780  0.00  0.00    -0.269 N 
ATOM      8  C   UNL     1      -1.666   0.331  -7.383  0.00  0.00    +0.304 C 
ATOM      9  O   UNL     1      -1.653   0.833  -6.276  0.00  0.00    -0.253 OA
ATOM     10  N   UNL     1      -2.702   0.559  -8.215  0.00  0.00    -0.296 N 
ATOM     11  H   UNL     1      -0.685  -0.908  -8.636  0.00  0.00    +0.156 HD
ATOM     12  H   UNL     1      -2.712   0.159  -9.098  0.00  0.00    +0.151 HD
BRANCH  10  13
ATOM     13  C   UNL     1      -3.813   1.411  -7.784  0.00  0.00    +0.074 C 
ATOM     14  C   UNL     1      -4.821   0.574  -6.994  0.00  0.00    +0.022 C 
ATOM     15  C   UNL     1      -5.981   1.463  -6.543  0.00  0.00    +0.002 C 
ATOM     16  C   UNL     1      -6.669   2.064  -7.771  0.00  0.00    +0.000 C 
ATOM     17  C   UNL     1      -5.661   2.902  -8.561  0.00  0.00    +0.002 C 
ATOM     18  C   UNL     1      -4.501   2.012  -9.011  0.00  0.00    +0.022 C 
ENDBRANCH  10  13
ENDBRANCH   5   7
BRANCH   1  22
ATOM     19  N   UNL     1       0.567  -1.234  -1.253  0.00  0.00    -0.271 N 
ATOM     20  C   UNL     1       1.649  -0.445  -1.106  0.00  0.00    +0.117 A 
ATOM     21  C   UNL     1       2.133  -0.164  -2.351  0.00  0.00    +0.028 A 
ATOM     22  C   UNL     1       1.296  -0.819  -3.290  0.00  0.00    +0.100 A 
ATOM     23  N   UNL     1       0.366  -1.462  -2.620  0.00  0.00    -0.171 NA
BRANCH  21  24
ATOM     24  C   UNL     1       3.315   0.672  -2.663  0.00  0.00    -0.002 A 
ATOM     25  C   UNL     1       4.600   0.272  -2.294  0.00  0.00    +0.029 A 
ATOM     26  C   UNL     1       5.676   1.082  -2.606  0.00  0.00    +0.114 A 
ATOM     27  N   UNL     1       5.521   2.225  -3.242  0.00  0.00    -0.237 NA
ATOM     28  C   UNL     1       4.326   2.663  -3.620  0.00  0.00    +0.139 A 
ATOM     29  C   UNL     1       3.180   1.895  -3.348  0.00  0.00    +0.026 A 
ATOM     30  C   UNL     1       2.047   2.640  -3.893  0.00  0.00    +0.029 A 
ATOM     31  C   UNL     1       2.545   3.760  -4.443  0.00  0.00    +0.085 A 
ATOM     32  N   UNL     1       3.905   3.792  -4.281  0.00  0.00    -0.346 N 
ATOM     33  H   UNL     1       4.486   4.501  -4.596  0.00  0.00    +0.167 HD
ENDBRANCH  21  24
BRANCH  19  35
ATOM     34  C   UNL     1      -1.719  -1.384  -0.397  0.00  0.00    +0.029 C 
ATOM     35  C   UNL     1      -0.256  -1.769  -0.166  0.00  0.00    +0.140 C 
ENDBRANCH  19  35
ENDBRANCH   1  22
TORSDOF 5
