REMARK  Name = CHEMBL478190
REMARK  11 active torsions:
REMARK  status: ('A' for Active; 'I' for Inactive)
REMARK    1  A    between atoms: C_1  and  C_2
REMARK    2  A    between atoms: C_2  and  C_3
REMARK    3  A    between atoms: C_2  and  N_34
REMARK    4  A    between atoms: C_3  and  O_4
REMARK    5  A    between atoms: O_4  and  C_5
REMARK    6  A    between atoms: C_9  and  C_11
REMARK    7  A    between atoms: C_14  and  C_28
REMARK    8  A    between atoms: C_15  and  C_17
REMARK    9  A    between atoms: N_26  and  O_27
REMARK   10  A    between atoms: N_34  and  C_35
REMARK   11  A    between atoms: N_34  and  C_36
REMARK                            x       y       z     vdW  Elec       q    Type
REMARK                         _______ _______ _______ _____ _____    ______ ____
ROOT
ATOM      1  C   UNL     1       0.017   0.585  -7.133  0.00  0.00    +0.136 A 
ATOM      2  N   UNL     1       0.430   0.317  -8.406  0.00  0.00    -0.338 N 
ATOM      3  H   UNL     1       1.215  -0.191  -8.661  0.00  0.00    +0.167 HD
ATOM      4  C   UNL     1      -0.474   0.902  -9.257  0.00  0.00    +0.072 A 
ATOM      5  C   UNL     1      -1.425   1.518  -8.455  0.00  0.00    +0.072 A 
ATOM      6  N   UNL     1      -1.088   1.294  -7.177  0.00  0.00    -0.338 N 
ATOM      7  H   UNL     1      -1.582   1.609  -6.404  0.00  0.00    +0.167 HD
ENDROOT
BRANCH   5   8
ATOM      8  C   UNL     1      -2.604   2.281  -8.926  0.00  0.00    +0.001 A 
ATOM      9  C   UNL     1      -3.425   1.753  -9.924  0.00  0.00    +0.010 A 
ATOM     10  C   UNL     1      -4.519   2.461 -10.360  0.00  0.00    +0.011 A 
ATOM     11  C   UNL     1      -4.815   3.716  -9.806  0.00  0.00    +0.003 A 
ATOM     12  C   UNL     1      -3.993   4.241  -8.810  0.00  0.00    -0.037 A 
ATOM     13  C   UNL     1      -2.899   3.525  -8.370  0.00  0.00    +0.014 A 
ATOM     14  C   UNL     1      -4.516   5.590  -8.379  0.00  0.00    +0.042 C 
ATOM     15  C   UNL     1      -5.769   5.858  -9.223  0.00  0.00    +0.064 C 
ATOM     16  C   UNL     1      -5.920   4.647 -10.111  0.00  0.00    +0.088 C 
ATOM     17  N   UNL     1      -6.854   4.458 -10.986  0.00  0.00    -0.092 NA
BRANCH  17  18
ATOM     18  O   UNL     1      -7.856   5.439 -11.176  0.00  0.00    -0.409 OA
ATOM     19  H   UNL     1      -8.510   5.209 -11.850  0.00  0.00    +0.328 HD
ENDBRANCH  17  18
ENDBRANCH   5   8
BRANCH   1  24
ATOM     20  C   UNL     1       0.818   0.059  -3.598  0.00  0.00    +0.318 A 
ATOM     21  N   UNL     1       1.931  -0.656  -3.635  0.00  0.00    -0.203 NA
ATOM     22  C   UNL     1       2.480  -1.004  -4.788  0.00  0.00    +0.118 A 
ATOM     23  C   UNL     1       1.877  -0.613  -5.970  0.00  0.00    +0.051 A 
ATOM     24  C   UNL     1       0.701   0.141  -5.899  0.00  0.00    +0.111 A 
ATOM     25  N   UNL     1       0.205   0.450  -4.701  0.00  0.00    -0.192 NA
BRANCH  20  26
ATOM     26  O   UNL     1       0.289   0.394  -2.396  0.00  0.00    -0.464 OA
BRANCH  26  27
ATOM     27  C   UNL     1       0.989  -0.052  -1.233  0.00  0.00    +0.217 C 
BRANCH  27  29
ATOM     28  C   UNL     1       0.063   1.936  -0.036  0.00  0.00    -0.010 C 
ATOM     29  C   UNL     1       0.248   0.418   0.020  0.00  0.00    -0.034 C 
BRANCH  29  30
ATOM     30  N   UNL     1      -1.067  -0.233   0.084  0.00  0.00    +0.380 N 
ATOM     31  C   UNL     1      -0.890  -1.690   0.138  0.00  0.00    -0.096 C 
ATOM     32  C   UNL     1      -1.780   0.219   1.287  0.00  0.00    -0.096 C 
ATOM     33  H   UNL     1      -1.604   0.011  -0.735  0.00  0.00    -0.082 HD
ENDBRANCH  29  30
ENDBRANCH  27  29
ENDBRANCH  26  27
ENDBRANCH  20  26
ENDBRANCH   1  24
BRANCH   4  34
ATOM     34  C   UNL     1      -0.441   0.881 -10.732  0.00  0.00    +0.003 A 
ATOM     35  C   UNL     1      -0.630   2.055 -11.474  0.00  0.00    +0.030 A 
ATOM     36  C   UNL     1      -0.591   1.989 -12.850  0.00  0.00    +0.111 A 
ATOM     37  N   UNL     1      -0.379   0.842 -13.468  0.00  0.00    -0.263 NA
ATOM     38  C   UNL     1      -0.197  -0.286 -12.809  0.00  0.00    +0.111 A 
ATOM     39  C   UNL     1      -0.214  -0.312 -11.431  0.00  0.00    +0.030 A 
ENDBRANCH   4  34
TORSDOF 8
