REMARK  Name = CHEMBL471723
REMARK  10 active torsions:
REMARK  status: ('A' for Active; 'I' for Inactive)
REMARK    1  A    between atoms: C_1  and  N_2
REMARK    2  A    between atoms: N_2  and  C_3
REMARK    3  A    between atoms: N_2  and  C_4
REMARK    4  A    between atoms: C_7  and  N_10
REMARK    5  A    between atoms: C_11  and  C_13
REMARK    6  A    between atoms: C_15  and  O_19
REMARK    7  A    between atoms: O_19  and  C_20
REMARK    8  A    between atoms: C_23  and  N_26
REMARK    9  A    between atoms: N_29  and  C_30
REMARK   10  A    between atoms: C_34  and  C_36
REMARK                            x       y       z     vdW  Elec       q    Type
REMARK                         _______ _______ _______ _____ _____    ______ ____
ROOT
ATOM      1  C   UNL     1      -0.483  -0.826 -10.852  0.00  0.00    +0.129 A 
ATOM      2  C   UNL     1       0.712  -0.216 -10.496  0.00  0.00    +0.048 A 
ATOM      3  C   UNL     1       0.811   1.161 -10.497  0.00  0.00    +0.027 A 
ATOM      4  C   UNL     1      -0.284   1.936 -10.854  0.00  0.00    +0.035 A 
ATOM      5  C   UNL     1      -1.479   1.325 -11.210  0.00  0.00    +0.027 A 
ATOM      6  C   UNL     1      -1.576  -0.052 -11.214  0.00  0.00    +0.048 A 
ENDROOT
BRANCH   4   7
ATOM      7  N   UNL     1      -0.184   3.333 -10.855  0.00  0.00    -0.269 N 
ATOM      8  C   UNL     1       0.975   3.926 -11.206  0.00  0.00    +0.308 C 
ATOM      9  O   UNL     1       1.901   3.253 -11.616  0.00  0.00    -0.252 OA
ATOM     10  N   UNL     1       1.106   5.263 -11.103  0.00  0.00    -0.269 N 
ATOM     11  H   UNL     1      -0.948   3.875 -10.603  0.00  0.00    +0.156 HD
ATOM     12  H   UNL     1       0.397   5.791 -10.704  0.00  0.00    +0.156 HD
BRANCH  10  13
ATOM     13  C   UNL     1       2.266   5.890 -11.572  0.00  0.00    +0.035 A 
ATOM     14  C   UNL     1       2.911   5.405 -12.703  0.00  0.00    +0.025 A 
ATOM     15  C   UNL     1       4.054   6.026 -13.164  0.00  0.00    +0.022 A 
ATOM     16  C   UNL     1       4.559   7.131 -12.501  0.00  0.00    +0.053 A 
ATOM     17  C   UNL     1       3.920   7.616 -11.374  0.00  0.00    +0.075 A 
ATOM     18  C   UNL     1       2.772   7.002 -10.912  0.00  0.00    +0.037 A 
ATOM     19 CL   UNL     1       5.998   7.909 -13.083  0.00  0.00    -0.083 Cl
BRANCH  17  20
ATOM     20  C   UNL     1       4.473   8.818 -10.653  0.00  0.00    +0.419 C 
ATOM     21  F   UNL     1       3.661   9.117  -9.553  0.00  0.00    -0.166 F 
ATOM     22  F   UNL     1       5.771   8.541 -10.212  0.00  0.00    -0.166 F 
ATOM     23  F   UNL     1       4.499   9.913 -11.524  0.00  0.00    -0.166 F 
ENDBRANCH  17  20
ENDBRANCH  10  13
ENDBRANCH   4   7
BRANCH   1  24
ATOM     24  O   UNL     1      -0.580  -2.182 -10.851  0.00  0.00    -0.456 OA
BRANCH  24  27
ATOM     25  C   UNL     1      -0.306  -2.813  -7.268  0.00  0.00    +0.129 A 
ATOM     26  C   UNL     1      -0.402  -2.113  -8.467  0.00  0.00    +0.079 A 
ATOM     27  C   UNL     1      -0.485  -2.827  -9.660  0.00  0.00    +0.132 A 
ATOM     28  C   UNL     1      -0.467  -4.218  -9.601  0.00  0.00    +0.066 A 
ATOM     29  C   UNL     1      -0.369  -4.842  -8.371  0.00  0.00    +0.115 A 
ATOM     30  N   UNL     1      -0.287  -4.141  -7.260  0.00  0.00    -0.250 NA
BRANCH  25  32
ATOM     31  N   UNL     1      -0.118  -2.741  -4.826  0.00  0.00    -0.280 N 
ATOM     32  C   UNL     1      -0.217  -2.070  -5.990  0.00  0.00    +0.267 C 
ATOM     33  O   UNL     1      -0.234  -0.854  -5.991  0.00  0.00    -0.268 OA
ATOM     34  H   UNL     1      -0.018  -3.706  -4.829  0.00  0.00    +0.155 HD
BRANCH  31  38
ATOM     35  C   UNL     1      -0.242  -0.671  -1.208  0.00  0.00    +0.029 A 
ATOM     36  C   UNL     1       0.416  -1.892  -1.287  0.00  0.00    +0.025 A 
ATOM     37  C   UNL     1       0.457  -2.577  -2.485  0.00  0.00    +0.025 A 
ATOM     38  C   UNL     1      -0.160  -2.046  -3.611  0.00  0.00    +0.034 A 
ATOM     39  C   UNL     1      -0.817  -0.825  -3.531  0.00  0.00    +0.025 A 
ATOM     40  C   UNL     1      -0.863  -0.143  -2.332  0.00  0.00    +0.025 A 
BRANCH  35  42
ATOM     41  C   UNL     1      -0.983   1.307   0.091  0.00  0.00    +0.129 C 
ATOM     42  N   UNL     1      -0.284   0.023   0.006  0.00  0.00    -0.336 N 
ATOM     43  C   UNL     1       0.371  -0.535   1.192  0.00  0.00    +0.129 C 
ENDBRANCH  35  42
ENDBRANCH  31  38
ENDBRANCH  25  32
ENDBRANCH  24  27
ENDBRANCH   1  24
TORSDOF 8
