REMARK  Name = CHEMBL524643
REMARK  4 active torsions:
REMARK  status: ('A' for Active; 'I' for Inactive)
REMARK    1  A    between atoms: C_1  and  N_2
REMARK    2  A    between atoms: C_4  and  C_13
REMARK    3  A    between atoms: C_5  and  C_7
REMARK    4  A    between atoms: N_22  and  O_23
REMARK                            x       y       z     vdW  Elec       q    Type
REMARK                         _______ _______ _______ _____ _____    ______ ____
ROOT
ATOM      1  C   UNL     1       0.040  -3.283  -1.557  0.00  0.00    -0.014 A 
ATOM      2  C   UNL     1       0.976  -4.295  -1.343  0.00  0.00    +0.009 A 
ATOM      3  C   UNL     1       0.989  -5.408  -2.153  0.00  0.00    +0.012 A 
ATOM      4  C   UNL     1       0.063  -5.526  -3.193  0.00  0.00    +0.023 A 
ATOM      5  C   UNL     1      -0.873  -4.511  -3.404  0.00  0.00    -0.019 A 
ATOM      6  C   UNL     1      -0.890  -3.402  -2.592  0.00  0.00    +0.014 A 
ATOM      7  C   UNL     1      -1.720  -4.927  -4.581  0.00  0.00    +0.139 C 
ATOM      8  N   UNL     1      -1.211  -6.230  -5.023  0.00  0.00    -0.322 N 
ATOM      9  C   UNL     1      -0.157  -6.584  -4.201  0.00  0.00    +0.166 C 
ATOM     10  N   UNL     1       0.536  -7.681  -4.300  0.00  0.00    -0.071 NA
ATOM     11  H   UNL     1      -1.556  -6.754  -5.763  0.00  0.00    +0.148 HD
ENDROOT
BRANCH   1  15
ATOM     12  C   UNL     1      -0.018   1.461   0.010  0.00  0.00    +0.172 C 
ATOM     13  N   UNL     1       0.002  -0.004   0.002  0.00  0.00    -0.273 N 
ATOM     14  C   UNL     1       0.008  -0.786  -1.096  0.00  0.00    +0.117 A 
ATOM     15  C   UNL     1       0.028  -2.086  -0.684  0.00  0.00    +0.027 A 
ATOM     16  C   UNL     1       0.034  -2.082   0.735  0.00  0.00    +0.100 A 
ATOM     17  N   UNL     1       0.025  -0.828   1.133  0.00  0.00    -0.171 NA
BRANCH  16  18
ATOM     18  C   UNL     1       0.055  -3.277   1.611  0.00  0.00    +0.006 A 
ATOM     19  C   UNL     1      -0.614  -4.449   1.244  0.00  0.00    +0.030 A 
ATOM     20  C   UNL     1      -0.569  -5.538   2.090  0.00  0.00    +0.111 A 
ATOM     21  N   UNL     1       0.093  -5.483   3.230  0.00  0.00    -0.263 NA
ATOM     22  C   UNL     1       0.737  -4.397   3.614  0.00  0.00    +0.111 A 
ATOM     23  C   UNL     1       0.749  -3.265   2.825  0.00  0.00    +0.030 A 
ENDBRANCH  16  18
ENDBRANCH   1  15
BRANCH  10  24
ATOM     24  O   UNL     1       1.596  -7.933  -3.396  0.00  0.00    -0.408 OA
ATOM     25  H   UNL     1       2.051  -8.772  -3.548  0.00  0.00    +0.328 HD
ENDBRANCH  10  24
TORSDOF 3
