REMARK  Name = CHEMBL570873
REMARK  6 active torsions:
REMARK  status: ('A' for Active; 'I' for Inactive)
REMARK    1  A    between atoms: C_1  and  N_2
REMARK    2  A    between atoms: C_9  and  C_25
REMARK    3  A    between atoms: C_10  and  C_19
REMARK    4  A    between atoms: C_16  and  C_17
REMARK    5  A    between atoms: C_17  and  O_18
REMARK    6  A    between atoms: C_29  and  O_31
REMARK                            x       y       z     vdW  Elec       q    Type
REMARK                         _______ _______ _______ _____ _____    ______ ____
ROOT
ATOM      1  C   UNL     1      -0.018   1.465   0.010  0.00  0.00    +0.105 C 
ATOM      2  N   UNL     1       0.002  -0.004   0.002  0.00  0.00    -0.293 NA
ATOM      3  C   UNL     1      -1.369  -0.556   0.166  0.00  0.00    +0.067 C 
ATOM      4  C   UNL     1      -1.335  -2.031  -0.233  0.00  0.00    +0.057 C 
ATOM      5  C   UNL     1      -0.136  -2.725   0.359  0.00  0.00    -0.005 A 
ATOM      6  C   UNL     1      -0.024  -4.120   0.230  0.00  0.00    +0.118 A 
ATOM      7  N   UNL     1       1.004  -4.786   0.717  0.00  0.00    -0.235 NA
ATOM      8  C   UNL     1       1.963  -4.098   1.348  0.00  0.00    +0.164 A 
ATOM      9  C   UNL     1       3.142  -4.513   1.948  0.00  0.00    +0.054 A 
ATOM     10  C   UNL     1       3.776  -3.359   2.459  0.00  0.00    +0.103 A 
ATOM     11  N   UNL     1       3.023  -2.306   2.185  0.00  0.00    -0.164 NA
ATOM     12  N   UNL     1       1.892  -2.724   1.499  0.00  0.00    -0.216 N 
ATOM     13  C   UNL     1       0.829  -2.029   1.008  0.00  0.00    +0.067 A 
ATOM     14  C   UNL     1       0.719  -0.535   1.195  0.00  0.00    +0.106 C 
ATOM     15  C   UNL     1      -0.294  -0.323   2.353  0.00  0.00    +0.032 C 
ATOM     16  C   UNL     1      -1.674  -0.416   1.669  0.00  0.00    +0.034 C 
ENDROOT
BRANCH   9  17
ATOM     17  C   UNL     1       3.642  -5.903   2.037  0.00  0.00    -0.009 A 
ATOM     18  C   UNL     1       2.934  -6.856   2.772  0.00  0.00    +0.010 A 
ATOM     19  C   UNL     1       3.402  -8.151   2.853  0.00  0.00    +0.024 A 
ATOM     20  C   UNL     1       4.572  -8.510   2.208  0.00  0.00    +0.082 A 
ATOM     21  C   UNL     1       5.283  -7.568   1.475  0.00  0.00    +0.136 A 
ATOM     22  C   UNL     1       4.818  -6.267   1.383  0.00  0.00    +0.055 A 
ATOM     23 CL   UNL     1       5.154 -10.142   2.315  0.00  0.00    -0.080 Cl
BRANCH  21  24
ATOM     24  O   UNL     1       6.433  -7.925   0.843  0.00  0.00    -0.505 OA
ATOM     25  H   UNL     1       6.303  -8.240  -0.062  0.00  0.00    +0.292 HD
ENDBRANCH  21  24
ENDBRANCH   9  17
BRANCH  10  26
ATOM     26  C   UNL     1       5.070  -3.332   3.184  0.00  0.00    +0.006 A 
ATOM     27  C   UNL     1       5.439  -4.379   4.034  0.00  0.00    +0.030 A 
ATOM     28  C   UNL     1       6.652  -4.314   4.688  0.00  0.00    +0.111 A 
ATOM     29  N   UNL     1       7.457  -3.282   4.521  0.00  0.00    -0.263 NA
ATOM     30  C   UNL     1       7.147  -2.274   3.728  0.00  0.00    +0.111 A 
ATOM     31  C   UNL     1       5.956  -2.262   3.031  0.00  0.00    +0.030 A 
ENDBRANCH  10  26
BRANCH  16  32
ATOM     32  C   UNL     1      -2.434  -1.645   2.172  0.00  0.00    +0.161 C 
BRANCH  32  33
ATOM     33  O   UNL     1      -2.810  -1.446   3.537  0.00  0.00    -0.395 OA
ATOM     34  H   UNL     1      -3.297  -2.187   3.923  0.00  0.00    +0.209 HD
ENDBRANCH  32  33
ENDBRANCH  16  32
TORSDOF 5
