REMARK  Name = CHEMBL500659
REMARK  4 active torsions:
REMARK  status: ('A' for Active; 'I' for Inactive)
REMARK    1  A    between atoms: C_1  and  N_2
REMARK    2  A    between atoms: C_4  and  C_13
REMARK    3  A    between atoms: C_5  and  C_7
REMARK    4  A    between atoms: N_22  and  O_23
REMARK                            x       y       z     vdW  Elec       q    Type
REMARK                         _______ _______ _______ _____ _____    ______ ____
ROOT
ATOM      1  C   UNL     1      -0.018   1.461   0.010  0.00  0.00    +0.172 C 
ATOM      2  N   UNL     1       0.002  -0.004   0.002  0.00  0.00    -0.273 N 
ATOM      3  C   UNL     1       0.008  -0.786  -1.096  0.00  0.00    +0.117 A 
ATOM      4  C   UNL     1       0.028  -2.086  -0.684  0.00  0.00    +0.027 A 
ATOM      5  C   UNL     1       0.034  -2.082   0.735  0.00  0.00    +0.100 A 
ATOM      6  N   UNL     1       0.025  -0.828   1.133  0.00  0.00    -0.171 NA
ENDROOT
BRANCH   4   7
ATOM      7  C   UNL     1       0.040  -3.283  -1.557  0.00  0.00    -0.014 A 
ATOM      8  C   UNL     1       0.977  -4.295  -1.342  0.00  0.00    +0.009 A 
ATOM      9  C   UNL     1       0.987  -5.405  -2.152  0.00  0.00    +0.010 A 
ATOM     10  C   UNL     1       0.059  -5.527  -3.198  0.00  0.00    +0.003 A 
ATOM     11  C   UNL     1      -0.875  -4.514  -3.409  0.00  0.00    -0.037 A 
ATOM     12  C   UNL     1      -0.887  -3.403  -2.591  0.00  0.00    +0.013 A 
ATOM     13  C   UNL     1      -1.757  -4.873  -4.582  0.00  0.00    +0.042 C 
ATOM     14  C   UNL     1      -1.269  -6.237  -5.088  0.00  0.00    +0.064 C 
ATOM     15  C   UNL     1      -0.120  -6.611  -4.183  0.00  0.00    +0.088 C 
ATOM     16  N   UNL     1       0.585  -7.694  -4.258  0.00  0.00    -0.092 NA
BRANCH  16  17
ATOM     17  O   UNL     1       0.303  -8.655  -5.258  0.00  0.00    -0.409 OA
ATOM     18  H   UNL     1       0.882  -9.429  -5.235  0.00  0.00    +0.328 HD
ENDBRANCH  16  17
ENDBRANCH   4   7
BRANCH   5  19
ATOM     19  C   UNL     1       0.054  -3.277   1.612  0.00  0.00    +0.006 A 
ATOM     20  C   UNL     1      -0.615  -4.448   1.244  0.00  0.00    +0.030 A 
ATOM     21  C   UNL     1      -0.570  -5.537   2.090  0.00  0.00    +0.111 A 
ATOM     22  N   UNL     1       0.092  -5.483   3.230  0.00  0.00    -0.263 NA
ATOM     23  C   UNL     1       0.737  -4.398   3.613  0.00  0.00    +0.111 A 
ATOM     24  C   UNL     1       0.748  -3.265   2.825  0.00  0.00    +0.030 A 
ENDBRANCH   5  19
TORSDOF 3
