REMARK  Name = CHEMBL200863
REMARK  9 active torsions:
REMARK  status: ('A' for Active; 'I' for Inactive)
REMARK    1  A    between atoms: C_1  and  C_2
REMARK    2  A    between atoms: C_2  and  C_3
REMARK    3  A    between atoms: C_2  and  C_4
REMARK    4  A    between atoms: C_2  and  C_16
REMARK    5  A    between atoms: C_4  and  N_5
REMARK    6  A    between atoms: N_8  and  C_9
REMARK    7  A    between atoms: C_19  and  C_30
REMARK    8  A    between atoms: C_20  and  C_22
REMARK    9  A    between atoms: C_26  and  O_28
REMARK                            x       y       z     vdW  Elec       q    Type
REMARK                         _______ _______ _______ _____ _____    ______ ____
ROOT
ATOM      1  C   UNL     1       0.711  -0.499  -1.232  0.00  0.00    +0.115 A 
ATOM      2  N   UNL     1       0.291  -1.455  -2.012  0.00  0.00    -0.231 NA
ATOM      3  H   UNL     1       2.403   0.714  -1.325  0.00  0.00    +0.167 HD
ATOM      4  C   UNL     1       1.162  -1.627  -3.024  0.00  0.00    +0.097 A 
ATOM      5  C   UNL     1       2.186  -0.713  -2.850  0.00  0.00    +0.074 A 
ATOM      6  N   UNL     1       1.879  -0.004  -1.713  0.00  0.00    -0.341 N 
ENDROOT
BRANCH   5   7
ATOM      7  C   UNL     1       3.369  -0.531  -3.716  0.00  0.00    +0.004 A 
ATOM      8  C   UNL     1       4.080  -1.643  -4.174  0.00  0.00    +0.011 A 
ATOM      9  C   UNL     1       5.184  -1.470  -4.983  0.00  0.00    +0.024 A 
ATOM     10  C   UNL     1       5.590  -0.197  -5.343  0.00  0.00    +0.082 A 
ATOM     11  C   UNL     1       4.889   0.915  -4.891  0.00  0.00    +0.136 A 
ATOM     12  C   UNL     1       3.777   0.752  -4.084  0.00  0.00    +0.057 A 
ATOM     13 CL   UNL     1       6.980   0.011  -6.361  0.00  0.00    -0.080 Cl
BRANCH  11  14
ATOM     14  O   UNL     1       5.293   2.163  -5.248  0.00  0.00    -0.505 OA
ATOM     15  H   UNL     1       4.892   2.487  -6.066  0.00  0.00    +0.292 HD
ENDBRANCH  11  14
ENDBRANCH   5   7
BRANCH   4  16
ATOM     16  C   UNL     1       1.046  -2.613  -4.122  0.00  0.00    +0.005 A 
ATOM     17  C   UNL     1       1.494  -2.309  -5.412  0.00  0.00    +0.030 A 
ATOM     18  C   UNL     1       1.367  -3.257  -6.405  0.00  0.00    +0.111 A 
ATOM     19  N   UNL     1       0.831  -4.436  -6.151  0.00  0.00    -0.263 NA
ATOM     20  C   UNL     1       0.396  -4.763  -4.949  0.00  0.00    +0.111 A 
ATOM     21  C   UNL     1       0.490  -3.877  -3.896  0.00  0.00    +0.030 A 
ENDBRANCH   4  16
BRANCH   1  23
ATOM     22  C   UNL     1      -0.006   1.515   0.025  0.00  0.00    +0.020 C 
ATOM     23  C   UNL     1       0.006  -0.015   0.009  0.00  0.00    +0.038 C 
ATOM     24  C   UNL     1       0.741  -0.532   1.248  0.00  0.00    +0.020 C 
BRANCH  23  25
ATOM     25  C   UNL     1      -1.432  -0.537   0.015  0.00  0.00    +0.119 C 
BRANCH  25  26
ATOM     26  N   UNL     1      -2.117  -0.066   1.221  0.00  0.00    -0.298 N 
ATOM     27  C   UNL     1      -3.403  -0.404   1.441  0.00  0.00    +0.304 C 
ATOM     28  O   UNL     1      -3.995  -1.100   0.638  0.00  0.00    -0.253 OA
ATOM     29  N   UNL     1      -4.034   0.029   2.551  0.00  0.00    -0.269 N 
ATOM     30  H   UNL     1      -1.645   0.489   1.862  0.00  0.00    +0.150 HD
ATOM     31  H   UNL     1      -3.544   0.527   3.224  0.00  0.00    +0.156 HD
BRANCH  29  32
ATOM     32  C   UNL     1      -5.395  -0.240   2.732  0.00  0.00    +0.035 A 
ATOM     33  C   UNL     1      -6.212   0.693   3.358  0.00  0.00    +0.025 A 
ATOM     34  C   UNL     1      -7.555   0.425   3.536  0.00  0.00    +0.022 A 
ATOM     35  C   UNL     1      -8.087  -0.772   3.091  0.00  0.00    +0.041 A 
ATOM     36  C   UNL     1      -7.276  -1.704   2.468  0.00  0.00    +0.022 A 
ATOM     37  C   UNL     1      -5.933  -1.438   2.282  0.00  0.00    +0.025 A 
ATOM     38 CL   UNL     1      -9.776  -1.106   3.317  0.00  0.00    -0.084 Cl
ENDBRANCH  29  32
ENDBRANCH  25  26
ENDBRANCH  23  25
ENDBRANCH   1  23
TORSDOF 7
