REMARK  Name = CHEMBL371952
REMARK  4 active torsions:
REMARK  status: ('A' for Active; 'I' for Inactive)
REMARK    1  A    between atoms: C_3  and  C_6
REMARK    2  A    between atoms: C_9  and  C_18
REMARK    3  A    between atoms: C_10  and  C_12
REMARK    4  A    between atoms: C_22  and  O_24
REMARK                            x       y       z     vdW  Elec       q    Type
REMARK                         _______ _______ _______ _____ _____    ______ ____
ROOT
ATOM      1  C   UNL     1       3.566   0.618  -0.029  0.00  0.00    +0.175 A 
ATOM      2  N   UNL     1       4.356   1.672  -0.031  0.00  0.00    -0.224 NA
ATOM      3  H   UNL     1       4.009  -1.428  -0.034  0.00  0.00    +0.167 HD
ATOM      4  C   UNL     1       5.637   1.274  -0.046  0.00  0.00    +0.097 A 
ATOM      5  C   UNL     1       5.650  -0.111  -0.054  0.00  0.00    +0.074 A 
ATOM      6  N   UNL     1       4.332  -0.513  -0.037  0.00  0.00    -0.335 N 
ENDROOT
BRANCH   4   7
ATOM      7  C   UNL     1       6.826   2.159  -0.053  0.00  0.00    +0.006 A 
ATOM      8  C   UNL     1       7.986   1.777   0.621  0.00  0.00    +0.012 A 
ATOM      9  C   UNL     1       9.092   2.602   0.612  0.00  0.00    +0.024 A 
ATOM     10  C   UNL     1       9.053   3.809  -0.063  0.00  0.00    +0.082 A 
ATOM     11  C   UNL     1       7.902   4.197  -0.736  0.00  0.00    +0.136 A 
ATOM     12  C   UNL     1       6.790   3.372  -0.738  0.00  0.00    +0.057 A 
ATOM     13 CL   UNL     1      10.448   4.843  -0.068  0.00  0.00    -0.080 Cl
BRANCH  11  14
ATOM     14  O   UNL     1       7.869   5.384  -1.397  0.00  0.00    -0.505 OA
ATOM     15  H   UNL     1       8.152   5.328  -2.320  0.00  0.00    +0.292 HD
ENDBRANCH  11  14
ENDBRANCH   4   7
BRANCH   5  16
ATOM     16  C   UNL     1       6.839  -0.983  -0.071  0.00  0.00    +0.003 A 
ATOM     17  C   UNL     1       7.917  -0.715  -0.926  0.00  0.00    +0.030 A 
ATOM     18  C   UNL     1       9.009  -1.556  -0.909  0.00  0.00    +0.111 A 
ATOM     19  N   UNL     1       9.047  -2.600  -0.102  0.00  0.00    -0.263 NA
ATOM     20  C   UNL     1       8.055  -2.889   0.720  0.00  0.00    +0.111 A 
ATOM     21  C   UNL     1       6.927  -2.099   0.772  0.00  0.00    +0.030 A 
ENDBRANCH   5  16
BRANCH   1  24
ATOM     22  C   UNL     1      -0.016   1.345   0.009  0.00  0.00    +0.042 A 
ATOM     23  C   UNL     1       1.323   1.776  -0.001  0.00  0.00    +0.053 A 
ATOM     24  C   UNL     1       2.097   0.654  -0.014  0.00  0.00    +0.170 A 
ATOM     25  O   UNL     1       1.279  -0.418  -0.012  0.00  0.00    -0.460 OA
ATOM     26  C   UNL     1       0.002  -0.004   0.002  0.00  0.00    +0.196 A 
ENDBRANCH   1  24
TORSDOF 4
