REMARK  Name = CHEMBL523261
REMARK  3 active torsions:
REMARK  status: ('A' for Active; 'I' for Inactive)
REMARK    1  A    between atoms: C_1  and  N_2
REMARK    2  A    between atoms: C_4  and  C_13
REMARK    3  A    between atoms: C_5  and  C_7
REMARK                            x       y       z     vdW  Elec       q    Type
REMARK                         _______ _______ _______ _____ _____    ______ ____
ROOT
ATOM      1  C   UNL     1       0.039  -3.284  -1.558  0.00  0.00    -0.014 A 
ATOM      2  C   UNL     1       0.974  -4.296  -1.344  0.00  0.00    +0.009 A 
ATOM      3  C   UNL     1       0.985  -5.408  -2.155  0.00  0.00    +0.011 A 
ATOM      4  C   UNL     1       0.059  -5.528  -3.195  0.00  0.00    +0.006 A 
ATOM      5  C   UNL     1      -0.873  -4.514  -3.405  0.00  0.00    -0.033 A 
ATOM      6  C   UNL     1      -0.889  -3.403  -2.592  0.00  0.00    +0.013 A 
ATOM      7  C   UNL     1      -1.730  -4.913  -4.582  0.00  0.00    +0.074 C 
ATOM      8  C   UNL     1      -1.214  -6.254  -5.043  0.00  0.00    +0.002 A 
ATOM      9  C   UNL     1      -0.143  -6.603  -4.198  0.00  0.00    +0.096 A 
ATOM     10  N   UNL     1       0.314  -7.774  -4.595  0.00  0.00    -0.174 NA
ATOM     11  N   UNL     1      -0.450  -8.193  -5.691  0.00  0.00    -0.284 N 
ATOM     12  H   UNL     1      -0.334  -9.020  -6.184  0.00  0.00    +0.188 HD
ATOM     13  C   UNL     1      -1.378  -7.244  -5.944  0.00  0.00    +0.109 A 
ENDROOT
BRANCH   1  17
ATOM     14  C   UNL     1      -0.018   1.461   0.010  0.00  0.00    +0.172 C 
ATOM     15  N   UNL     1       0.002  -0.004   0.002  0.00  0.00    -0.273 N 
ATOM     16  C   UNL     1       0.008  -0.787  -1.097  0.00  0.00    +0.117 A 
ATOM     17  C   UNL     1       0.027  -2.086  -0.684  0.00  0.00    +0.027 A 
ATOM     18  C   UNL     1       0.034  -2.082   0.734  0.00  0.00    +0.100 A 
ATOM     19  N   UNL     1       0.025  -0.829   1.133  0.00  0.00    -0.171 NA
BRANCH  18  20
ATOM     20  C   UNL     1       0.054  -3.277   1.611  0.00  0.00    +0.006 A 
ATOM     21  C   UNL     1      -0.615  -4.449   1.243  0.00  0.00    +0.030 A 
ATOM     22  C   UNL     1      -0.570  -5.538   2.088  0.00  0.00    +0.111 A 
ATOM     23  N   UNL     1       0.092  -5.484   3.228  0.00  0.00    -0.263 NA
ATOM     24  C   UNL     1       0.736  -4.399   3.612  0.00  0.00    +0.111 A 
ATOM     25  C   UNL     1       0.747  -3.266   2.825  0.00  0.00    +0.030 A 
ENDBRANCH  18  20
ENDBRANCH   1  17
TORSDOF 2
