REMARK  Name = CHEMBL514536
REMARK  9 active torsions:
REMARK  status: ('A' for Active; 'I' for Inactive)
REMARK    1  A    between atoms: C_1  and  N_2
REMARK    2  A    between atoms: N_2  and  C_3
REMARK    3  A    between atoms: N_2  and  C_4
REMARK    4  A    between atoms: C_4  and  C_5
REMARK    5  A    between atoms: C_5  and  O_6
REMARK    6  A    between atoms: O_6  and  C_7
REMARK    7  A    between atoms: C_9  and  C_24
REMARK    8  A    between atoms: C_10  and  C_13
REMARK    9  A    between atoms: N_22  and  O_23
REMARK                            x       y       z     vdW  Elec       q    Type
REMARK                         _______ _______ _______ _____ _____    ______ ____
ROOT
ATOM      1  C   UNL     1       4.123  -0.445   0.116  0.00  0.00    +0.211 C 
ATOM      2  C   UNL     1       4.948  -1.033   1.172  0.00  0.00    +0.073 C 
ATOM      3  C   UNL     1       6.203  -0.555   1.072  0.00  0.00    -0.006 C 
ATOM      4  C   UNL     1       6.194   0.390  -0.109  0.00  0.00    +0.170 C 
ATOM      5  N   UNL     1       4.820   0.363  -0.625  0.00  0.00    -0.238 NA
ENDROOT
BRANCH   4   6
ATOM      6  C   UNL     1       6.561   1.783   0.336  0.00  0.00    -0.018 A 
ATOM      7  C   UNL     1       5.611   2.587   0.939  0.00  0.00    +0.007 A 
ATOM      8  C   UNL     1       5.941   3.861   1.346  0.00  0.00    +0.010 A 
ATOM      9  C   UNL     1       7.242   4.346   1.152  0.00  0.00    +0.003 A 
ATOM     10  C   UNL     1       8.191   3.529   0.545  0.00  0.00    -0.038 A 
ATOM     11  C   UNL     1       7.848   2.251   0.145  0.00  0.00    +0.010 A 
ATOM     12  C   UNL     1       9.506   4.266   0.446  0.00  0.00    +0.042 C 
ATOM     13  C   UNL     1       9.274   5.651   1.065  0.00  0.00    +0.064 C 
ATOM     14  C   UNL     1       7.828   5.657   1.498  0.00  0.00    +0.088 C 
ATOM     15  N   UNL     1       7.210   6.638   2.072  0.00  0.00    -0.092 NA
BRANCH  15  16
ATOM     16  O   UNL     1       7.899   7.845   2.346  0.00  0.00    -0.409 OA
ATOM     17  H   UNL     1       7.355   8.519   2.776  0.00  0.00    +0.328 HD
ENDBRANCH  15  16
ENDBRANCH   4   6
BRANCH   3  18
ATOM     18  C   UNL     1       7.351  -0.885   1.936  0.00  0.00    -0.016 A 
ATOM     19  C   UNL     1       7.941   0.088   2.753  0.00  0.00    +0.028 A 
ATOM     20  C   UNL     1       9.013  -0.265   3.546  0.00  0.00    +0.111 A 
ATOM     21  N   UNL     1       9.482  -1.499   3.543  0.00  0.00    -0.263 NA
ATOM     22  C   UNL     1       8.956  -2.446   2.790  0.00  0.00    +0.111 A 
ATOM     23  C   UNL     1       7.878  -2.183   1.969  0.00  0.00    +0.028 A 
ENDBRANCH   3  18
BRANCH   1  24
ATOM     24  O   UNL     1       2.809  -0.713  -0.069  0.00  0.00    -0.478 OA
BRANCH  24  25
ATOM     25  C   UNL     1       2.159  -0.053  -1.157  0.00  0.00    +0.212 C 
BRANCH  25  26
ATOM     26  C   UNL     1       0.690  -0.478  -1.207  0.00  0.00    -0.038 C 
BRANCH  26  28
ATOM     27  C   UNL     1      -0.018   1.465   0.010  0.00  0.00    -0.096 C 
ATOM     28  N   UNL     1       0.002  -0.004   0.002  0.00  0.00    +0.378 N 
ATOM     29  C   UNL     1      -1.376  -0.512   0.012  0.00  0.00    -0.096 C 
ATOM     30  H   UNL     1       0.490  -0.338   0.820  0.00  0.00    -0.082 HD
ENDBRANCH  26  28
ENDBRANCH  25  26
ENDBRANCH  24  25
ENDBRANCH   1  24
TORSDOF 7
