REMARK  Name = CHEMBL402029
REMARK  8 active torsions:
REMARK  status: ('A' for Active; 'I' for Inactive)
REMARK    1  A    between atoms: C_1  and  N_2
REMARK    2  A    between atoms: C_7  and  C_9
REMARK    3  A    between atoms: C_10  and  C_18
REMARK    4  A    between atoms: C_12  and  C_15
REMARK    5  A    between atoms: C_22  and  N_24
REMARK    6  A    between atoms: N_24  and  S_25
REMARK    7  A    between atoms: S_25  and  C_28
REMARK    8  A    between atoms: C_28  and  C_29
REMARK                            x       y       z     vdW  Elec       q    Type
REMARK                         _______ _______ _______ _____ _____    ______ ____
ROOT
ATOM      1  C   UNL     1       0.964  -4.553   0.493  0.00  0.00    +0.004 A 
ATOM      2  C   UNL     1       1.614  -3.398   0.928  0.00  0.00    +0.010 A 
ATOM      3  C   UNL     1       1.501  -2.995   2.243  0.00  0.00    +0.002 A 
ATOM      4  C   UNL     1       0.744  -3.733   3.134  0.00  0.00    +0.024 A 
ATOM      5  C   UNL     1       0.092  -4.885   2.710  0.00  0.00    +0.048 A 
ATOM      6  C   UNL     1       0.196  -5.294   1.389  0.00  0.00    +0.034 A 
ENDROOT
BRANCH   1   8
ATOM      7  C   UNL     1       1.177  -4.162  -2.025  0.00  0.00    +0.093 A 
ATOM      8  C   UNL     1       1.085  -4.988  -0.918  0.00  0.00    +0.098 A 
ATOM      9  N   UNL     1       1.126  -6.257  -1.360  0.00  0.00    -0.232 NA
ATOM     10  C   UNL     1       1.236  -6.264  -2.660  0.00  0.00    +0.111 A 
ATOM     11  N   UNL     1       1.266  -4.996  -3.118  0.00  0.00    -0.340 N 
ATOM     12  H   UNL     1       1.339  -4.721  -4.045  0.00  0.00    +0.167 HD
BRANCH   7  19
ATOM     13  C   UNL     1      -0.018   1.461   0.010  0.00  0.00    +0.128 C 
ATOM     14  N   UNL     1       0.002  -0.004   0.002  0.00  0.00    -0.317 N 
ATOM     15  C   UNL     1       0.601  -0.682  -1.046  0.00  0.00    +0.215 A 
ATOM     16  N   UNL     1       1.156   0.011  -2.030  0.00  0.00    -0.223 NA
ATOM     17  C   UNL     1       1.739  -0.599  -3.051  0.00  0.00    +0.116 A 
ATOM     18  C   UNL     1       1.768  -1.980  -3.087  0.00  0.00    +0.050 A 
ATOM     19  C   UNL     1       1.173  -2.688  -2.034  0.00  0.00    +0.094 A 
ATOM     20  N   UNL     1       0.609  -2.005  -1.036  0.00  0.00    -0.213 NA
ATOM     21  H   UNL     1      -0.404  -0.499   0.731  0.00  0.00    +0.149 HD
ENDBRANCH   7  19
BRANCH  10  22
ATOM     22  C   UNL     1       1.313  -7.500  -3.519  0.00  0.00    +0.055 C 
ATOM     23  C   UNL     1       1.057  -7.335  -5.018  0.00  0.00    +0.012 C 
ATOM     24  C   UNL     1       0.010  -8.015  -4.133  0.00  0.00    +0.012 C 
ENDBRANCH  10  22
ENDBRANCH   1   8
BRANCH   5  25
ATOM     25  N   UNL     1      -0.672  -5.628   3.614  0.00  0.00    -0.220 N 
ATOM     26  H   UNL     1      -0.593  -6.594   3.636  0.00  0.00    +0.173 HD
BRANCH  25  27
ATOM     27  S   UNL     1      -1.714  -4.858   4.646  0.00  0.00    +0.047 S 
ATOM     28  O   UNL     1      -2.292  -5.900   5.420  0.00  0.00    -0.155 OA
ATOM     29  O   UNL     1      -0.930  -3.846   5.263  0.00  0.00    -0.155 OA
BRANCH  27  30
ATOM     30  C   UNL     1      -2.967  -4.109   3.570  0.00  0.00    +0.223 C 
BRANCH  30  31
ATOM     31  C   UNL     1      -3.978  -3.374   4.413  0.00  0.00    -0.023 A 
ATOM     32  C   UNL     1      -5.099  -4.035   4.880  0.00  0.00    +0.007 A 
ATOM     33  C   UNL     1      -6.027  -3.362   5.653  0.00  0.00    +0.022 A 
ATOM     34  C   UNL     1      -5.833  -2.027   5.960  0.00  0.00    +0.059 A 
ATOM     35  C   UNL     1      -4.711  -1.365   5.492  0.00  0.00    +0.060 A 
ATOM     36  C   UNL     1      -3.780  -2.042   4.723  0.00  0.00    +0.026 A 
ATOM     37 CL   UNL     1      -4.467   0.310   5.876  0.00  0.00    -0.082 Cl
ATOM     38 CL   UNL     1      -6.999  -1.181   6.930  0.00  0.00    -0.082 Cl
ENDBRANCH  30  31
ENDBRANCH  27  30
ENDBRANCH  25  27
ENDBRANCH   5  25
TORSDOF 7
