REMARK  Name = CHEMBL200172
REMARK  7 active torsions:
REMARK  status: ('A' for Active; 'I' for Inactive)
REMARK    1  A    between atoms: C_1  and  C_2
REMARK    2  A    between atoms: C_2  and  C_3
REMARK    3  A    between atoms: C_2  and  C_4
REMARK    4  A    between atoms: C_2  and  C_5
REMARK    5  A    between atoms: C_8  and  C_19
REMARK    6  A    between atoms: C_9  and  C_11
REMARK    7  A    between atoms: C_15  and  O_17
REMARK                            x       y       z     vdW  Elec       q    Type
REMARK                         _______ _______ _______ _____ _____    ______ ____
ROOT
ATOM      1  C   UNL     1       0.702  -0.384  -1.290  0.00  0.00    +0.114 A 
ATOM      2  N   UNL     1       2.038  -0.372  -1.486  0.00  0.00    -0.341 N 
ATOM      3  H   UNL     1       2.699   0.036  -0.906  0.00  0.00    +0.167 HD
ATOM      4  C   UNL     1       2.287  -1.046  -2.660  0.00  0.00    +0.074 A 
ATOM      5  C   UNL     1       1.055  -1.450  -3.141  0.00  0.00    +0.097 A 
ATOM      6  N   UNL     1       0.124  -1.027  -2.266  0.00  0.00    -0.231 NA
ENDROOT
BRANCH   5   7
ATOM      7  C   UNL     1       0.806  -2.214  -4.386  0.00  0.00    +0.006 A 
ATOM      8  C   UNL     1       1.634  -3.284  -4.726  0.00  0.00    +0.012 A 
ATOM      9  C   UNL     1       1.400  -3.994  -5.886  0.00  0.00    +0.024 A 
ATOM     10  C   UNL     1       0.347  -3.648  -6.714  0.00  0.00    +0.082 A 
ATOM     11  C   UNL     1      -0.481  -2.583  -6.382  0.00  0.00    +0.136 A 
ATOM     12  C   UNL     1      -0.259  -1.870  -5.216  0.00  0.00    +0.057 A 
ATOM     13 CL   UNL     1       0.060  -4.545  -8.172  0.00  0.00    -0.080 Cl
BRANCH  11  14
ATOM     14  O   UNL     1      -1.515  -2.246  -7.198  0.00  0.00    -0.505 OA
ATOM     15  H   UNL     1      -2.344  -2.699  -6.991  0.00  0.00    +0.292 HD
ENDBRANCH  11  14
ENDBRANCH   5   7
BRANCH   4  16
ATOM     16  C   UNL     1       3.604  -1.288  -3.280  0.00  0.00    +0.003 A 
ATOM     17  C   UNL     1       3.813  -1.044  -4.644  0.00  0.00    +0.030 A 
ATOM     18  C   UNL     1       5.059  -1.284  -5.182  0.00  0.00    +0.111 A 
ATOM     19  N   UNL     1       6.046  -1.737  -4.431  0.00  0.00    -0.263 NA
ATOM     20  C   UNL     1       5.892  -1.980  -3.143  0.00  0.00    +0.111 A 
ATOM     21  C   UNL     1       4.682  -1.762  -2.521  0.00  0.00    +0.030 A 
ENDBRANCH   4  16
BRANCH   1  23
ATOM     22  C   UNL     1      -0.046   1.762  -0.298  0.00  0.00    +0.018 C 
ATOM     23  C   UNL     1      -0.011   0.243  -0.120  0.00  0.00    +0.020 C 
ATOM     24  C   UNL     1       0.731  -0.102   1.173  0.00  0.00    +0.018 C 
ATOM     25  C   UNL     1      -1.441  -0.295  -0.046  0.00  0.00    +0.018 C 
ENDBRANCH   1  23
TORSDOF 4
