REMARK  Name = CHEMBL372543
REMARK  4 active torsions:
REMARK  status: ('A' for Active; 'I' for Inactive)
REMARK    1  A    between atoms: C_4  and  C_7
REMARK    2  A    between atoms: C_10  and  C_19
REMARK    3  A    between atoms: C_11  and  C_13
REMARK    4  A    between atoms: N_28  and  O_29
REMARK                            x       y       z     vdW  Elec       q    Type
REMARK                         _______ _______ _______ _____ _____    ______ ____
ROOT
ATOM      1  C   UNL     1       3.708  -0.679   0.081  0.00  0.00    +0.117 A 
ATOM      2  N   UNL     1       3.843  -1.985   0.055  0.00  0.00    -0.339 N 
ATOM      3  H   UNL     1       5.119   0.853  -0.103  0.00  0.00    +0.167 HD
ATOM      4  C   UNL     1       5.136  -2.300  -0.117  0.00  0.00    +0.072 A 
ATOM      5  C   UNL     1       5.851  -1.115  -0.202  0.00  0.00    +0.072 A 
ATOM      6  N   UNL     1       4.931  -0.098  -0.081  0.00  0.00    -0.339 N 
ATOM      7  H   UNL     1       3.119  -2.624   0.145  0.00  0.00    +0.167 HD
ENDROOT
BRANCH   4   8
ATOM      8  C   UNL     1       5.699  -3.667  -0.198  0.00  0.00    +0.001 A 
ATOM      9  C   UNL     1       6.830  -4.003   0.548  0.00  0.00    +0.010 A 
ATOM     10  C   UNL     1       7.351  -5.272   0.472  0.00  0.00    +0.011 A 
ATOM     11  C   UNL     1       6.751  -6.235  -0.355  0.00  0.00    +0.003 A 
ATOM     12  C   UNL     1       5.622  -5.895  -1.099  0.00  0.00    -0.037 A 
ATOM     13  C   UNL     1       5.098  -4.622  -1.017  0.00  0.00    +0.014 A 
ATOM     14  C   UNL     1       5.167  -7.090  -1.903  0.00  0.00    +0.042 C 
ATOM     15  C   UNL     1       6.143  -8.228  -1.578  0.00  0.00    +0.064 C 
ATOM     16  C   UNL     1       7.128  -7.641  -0.596  0.00  0.00    +0.088 C 
ATOM     17  N   UNL     1       8.128  -8.263  -0.059  0.00  0.00    -0.092 NA
BRANCH  17  18
ATOM     18  O   UNL     1       8.976  -7.586   0.851  0.00  0.00    -0.409 OA
ATOM     19  H   UNL     1       9.694  -8.132   1.199  0.00  0.00    +0.328 HD
ENDBRANCH  17  18
ENDBRANCH   4   8
BRANCH   1  23
ATOM     20  C   UNL     1       0.040   1.407   0.571  0.00  0.00    +0.000 A 
ATOM     21  C   UNL     1       1.220   2.114   0.423  0.00  0.00    +0.001 A 
ATOM     22  C   UNL     1       2.414   1.442   0.264  0.00  0.00    +0.011 A 
ATOM     23  C   UNL     1       2.431   0.047   0.252  0.00  0.00    +0.015 A 
ATOM     24  C   UNL     1       1.237  -0.660   0.403  0.00  0.00    +0.011 A 
ATOM     25  C   UNL     1       0.049   0.023   0.561  0.00  0.00    +0.001 A 
ENDBRANCH   1  23
BRANCH   5  26
ATOM     26  C   UNL     1       7.306  -0.972  -0.391  0.00  0.00    +0.003 A 
ATOM     27  C   UNL     1       7.981  -1.708  -1.375  0.00  0.00    +0.030 A 
ATOM     28  C   UNL     1       9.342  -1.543  -1.517  0.00  0.00    +0.111 A 
ATOM     29  N   UNL     1      10.008  -0.707  -0.742  0.00  0.00    -0.263 NA
ATOM     30  C   UNL     1       9.413   0.005   0.196  0.00  0.00    +0.111 A 
ATOM     31  C   UNL     1       8.054  -0.092   0.403  0.00  0.00    +0.030 A 
ENDBRANCH   5  26
TORSDOF 4
