REMARK  Name = CHEMBL570573
REMARK  8 active torsions:
REMARK  status: ('A' for Active; 'I' for Inactive)
REMARK    1  A    between atoms: C_1  and  C_2
REMARK    2  A    between atoms: C_7  and  N_8
REMARK    3  A    between atoms: C_10  and  C_15
REMARK    4  A    between atoms: C_17  and  N_21
REMARK    5  A    between atoms: N_21  and  C_22
REMARK    6  A    between atoms: C_26  and  N_27
REMARK    7  A    between atoms: N_27  and  C_28
REMARK    8  A    between atoms: C_35  and  C_37
REMARK                            x       y       z     vdW  Elec       q    Type
REMARK                         _______ _______ _______ _____ _____    ______ ____
ROOT
ATOM      1  C   UNL     1      -2.161  -0.635   0.882  0.00  0.00    +0.045 C 
ATOM      2  C   UNL     1      -0.943  -1.373   0.390  0.00  0.00    -0.029 A 
ATOM      3  C   UNL     1      -0.794  -1.624  -0.971  0.00  0.00    +0.006 A 
ATOM      4  C   UNL     1       0.296  -2.289  -1.449  0.00  0.00    +0.012 A 
ATOM      5  C   UNL     1       1.288  -2.731  -0.564  0.00  0.00    +0.022 A 
ATOM      6  C   UNL     1       1.148  -2.480   0.824  0.00  0.00    +0.008 A 
ATOM      7  C   UNL     1       0.016  -1.786   1.292  0.00  0.00    +0.043 A 
ATOM      8  C   UNL     1       2.160  -2.934   1.690  0.00  0.00    +0.028 A 
ATOM      9  C   UNL     1       3.228  -3.593   1.164  0.00  0.00    +0.085 A 
ATOM     10  N   UNL     1       3.343  -3.818  -0.138  0.00  0.00    -0.349 N 
ATOM     11  C   UNL     1       2.435  -3.423  -1.011  0.00  0.00    +0.108 A 
ATOM     12  H   UNL     1       4.125  -4.293  -0.462  0.00  0.00    +0.167 HD
ENDROOT
BRANCH   7  13
ATOM     13  N   UNL     1      -0.138  -1.525   2.654  0.00  0.00    -0.298 N 
ATOM     14  C   UNL     1       0.091  -0.248   3.145  0.00  0.00    +0.132 A 
ATOM     15  C   UNL     1       0.071  -0.020   4.529  0.00  0.00    +0.041 A 
ATOM     16  C   UNL     1       0.304   1.273   5.002  0.00  0.00    +0.015 A 
ATOM     17  C   UNL     1       0.547   2.278   4.079  0.00  0.00    +0.020 A 
ATOM     18  C   UNL     1       0.551   1.976   2.730  0.00  0.00    +0.113 A 
ATOM     19  N   UNL     1       0.333   0.746   2.306  0.00  0.00    -0.240 NA
ATOM     20  H   UNL     1      -0.405  -2.236   3.257  0.00  0.00    +0.154 HD
BRANCH  15  21
ATOM     21  C   UNL     1      -0.194  -1.131   5.473  0.00  0.00    +0.079 A 
ATOM     22  C   UNL     1      -0.054  -0.941   6.847  0.00  0.00    +0.072 A 
ATOM     23  C   UNL     1      -0.315  -2.018   7.690  0.00  0.00    +0.122 A 
ATOM     24  N   UNL     1      -0.686  -3.180   7.158  0.00  0.00    -0.221 NA
ATOM     25  C   UNL     1      -0.808  -3.320   5.853  0.00  0.00    +0.223 A 
ATOM     26  N   UNL     1      -0.576  -2.327   5.021  0.00  0.00    -0.235 NA
BRANCH  23  27
ATOM     27  N   UNL     1      -0.190  -1.882   9.064  0.00  0.00    -0.332 N 
ATOM     28  C   UNL     1       0.219  -0.598   9.639  0.00  0.00    +0.127 C 
ATOM     29  H   UNL     1      -0.374  -2.637   9.645  0.00  0.00    +0.147 HD
ENDBRANCH  23  27
ENDBRANCH  15  21
ENDBRANCH   7  13
BRANCH  11  30
ATOM     30  N   UNL     1       2.607  -3.687  -2.360  0.00  0.00    -0.300 N 
ATOM     31  H   UNL     1       1.983  -3.324  -3.008  0.00  0.00    +0.154 HD
BRANCH  30  32
ATOM     32  C   UNL     1       3.680  -4.477  -2.788  0.00  0.00    +0.034 A 
ATOM     33  C   UNL     1       4.006  -5.631  -2.076  0.00  0.00    +0.024 A 
ATOM     34  C   UNL     1       5.065  -6.412  -2.496  0.00  0.00    +0.019 A 
ATOM     35  C   UNL     1       5.781  -6.041  -3.609  0.00  0.00    +0.039 A 
ATOM     36  C   UNL     1       5.479  -4.880  -4.354  0.00  0.00    +0.080 A 
ATOM     37  C   UNL     1       4.390  -4.103  -3.907  0.00  0.00    +0.052 A 
ATOM     38  N   UNL     1       6.299  -4.692  -5.410  0.00  0.00    -0.244 NA
ATOM     39  C   UNL     1       7.266  -5.516  -5.692  0.00  0.00    +0.076 A 
ATOM     40  S   UNL     1       7.169  -6.698  -4.498  0.00  0.00    -0.072 S 
ATOM     41  C   UNL     1       8.249  -5.431  -6.830  0.00  0.00    +0.073 C 
ENDBRANCH  30  32
ENDBRANCH  11  30
TORSDOF 5
