REMARK  Name = CHEMBL515322
REMARK  9 active torsions:
REMARK  status: ('A' for Active; 'I' for Inactive)
REMARK    1  A    between atoms: C_1  and  N_2
REMARK    2  A    between atoms: N_2  and  C_3
REMARK    3  A    between atoms: N_2  and  C_4
REMARK    4  A    between atoms: C_4  and  C_5
REMARK    5  A    between atoms: C_9  and  N_11
REMARK    6  A    between atoms: C_12  and  C_14
REMARK    7  A    between atoms: C_17  and  C_31
REMARK    8  A    between atoms: C_18  and  C_20
REMARK    9  A    between atoms: N_29  and  O_30
REMARK                            x       y       z     vdW  Elec       q    Type
REMARK                         _______ _______ _______ _____ _____    ______ ____
ROOT
ATOM      1  C   UNL     1      -1.252  -7.164   3.150  0.00  0.00    +0.195 A 
ATOM      2  N   UNL     1      -1.496  -8.508   3.117  0.00  0.00    -0.334 N 
ATOM      3  H   UNL     1      -1.545  -9.066   2.325  0.00  0.00    +0.168 HD
ATOM      4  C   UNL     1      -1.659  -8.921   4.410  0.00  0.00    +0.074 A 
ATOM      5  C   UNL     1      -1.505  -7.790   5.207  0.00  0.00    +0.097 A 
ATOM      6  N   UNL     1      -1.255  -6.755   4.399  0.00  0.00    -0.223 NA
ENDROOT
BRANCH   5   7
ATOM      7  C   UNL     1      -1.596  -7.743   6.684  0.00  0.00    +0.003 A 
ATOM      8  C   UNL     1      -0.996  -8.741   7.454  0.00  0.00    +0.011 A 
ATOM      9  C   UNL     1      -1.082  -8.696   8.825  0.00  0.00    +0.011 A 
ATOM     10  C   UNL     1      -1.771  -7.650   9.457  0.00  0.00    +0.003 A 
ATOM     11  C   UNL     1      -2.368  -6.654   8.685  0.00  0.00    -0.037 A 
ATOM     12  C   UNL     1      -2.276  -6.698   7.309  0.00  0.00    +0.014 A 
ATOM     13  C   UNL     1      -3.042  -5.648   9.588  0.00  0.00    +0.042 C 
ATOM     14  C   UNL     1      -2.799  -6.126  11.025  0.00  0.00    +0.064 C 
ATOM     15  C   UNL     1      -1.992  -7.395  10.894  0.00  0.00    +0.088 C 
ATOM     16  N   UNL     1      -1.567  -8.130  11.870  0.00  0.00    -0.092 NA
BRANCH  16  17
ATOM     17  O   UNL     1      -1.853  -7.765  13.208  0.00  0.00    -0.409 OA
ATOM     18  H   UNL     1      -1.495  -8.375  13.867  0.00  0.00    +0.328 HD
ENDBRANCH  16  17
ENDBRANCH   5   7
BRANCH   4  19
ATOM     19  C   UNL     1      -1.941 -10.295   4.871  0.00  0.00    +0.003 A 
ATOM     20  C   UNL     1      -2.950 -10.546   5.810  0.00  0.00    +0.030 A 
ATOM     21  C   UNL     1      -3.180 -11.846   6.212  0.00  0.00    +0.111 A 
ATOM     22  N   UNL     1      -2.465 -12.842   5.725  0.00  0.00    -0.263 NA
ATOM     23  C   UNL     1      -1.506 -12.650   4.840  0.00  0.00    +0.111 A 
ATOM     24  C   UNL     1      -1.212 -11.385   4.377  0.00  0.00    +0.030 A 
ENDBRANCH   4  19
BRANCH   1  26
ATOM     25  N   UNL     1      -0.780  -4.992   2.131  0.00  0.00    -0.279 N 
ATOM     26  C   UNL     1      -1.016  -6.310   1.971  0.00  0.00    +0.284 C 
ATOM     27  O   UNL     1      -1.035  -6.794   0.856  0.00  0.00    -0.267 OA
ATOM     28  H   UNL     1      -0.691  -4.620   3.022  0.00  0.00    +0.155 HD
BRANCH  25  33
ATOM     29  C   UNL     1       0.330  -2.269  -0.075  0.00  0.00    -0.062 A 
ATOM     30  C   UNL     1      -0.428  -2.521  -1.204  0.00  0.00    +0.002 A 
ATOM     31  C   UNL     1      -1.302  -3.592  -1.228  0.00  0.00    +0.002 A 
ATOM     32  C   UNL     1      -1.421  -4.414  -0.124  0.00  0.00    +0.023 A 
ATOM     33  C   UNL     1      -0.661  -4.163   1.011  0.00  0.00    +0.034 A 
ATOM     34  C   UNL     1       0.220  -3.090   1.030  0.00  0.00    +0.025 A 
BRANCH  29  35
ATOM     35  C   UNL     1       1.282  -1.101  -0.053  0.00  0.00    -0.044 C 
BRANCH  35  37
ATOM     36  C   UNL     1       3.490  -0.369  -0.639  0.00  0.00    -0.096 C 
ATOM     37  N   UNL     1       2.597  -1.531  -0.547  0.00  0.00    +0.379 N 
ATOM     38  C   UNL     1       3.170  -2.517   0.379  0.00  0.00    -0.096 C 
ATOM     39  H   UNL     1       2.493  -1.948  -1.460  0.00  0.00    -0.082 HD
ENDBRANCH  35  37
ENDBRANCH  29  35
ENDBRANCH  25  33
ENDBRANCH   1  26
TORSDOF 7
