REMARK  Name = CHEMBL247618
REMARK  7 active torsions:
REMARK  status: ('A' for Active; 'I' for Inactive)
REMARK    1  A    between atoms: C_1  and  N_2
REMARK    2  A    between atoms: C_3  and  C_5
REMARK    3  A    between atoms: C_7  and  C_11
REMARK    4  A    between atoms: C_11  and  N_12
REMARK    5  A    between atoms: N_12  and  C_13
REMARK    6  A    between atoms: C_17  and  C_18
REMARK    7  A    between atoms: N_20  and  C_21
REMARK                            x       y       z     vdW  Elec       q    Type
REMARK                         _______ _______ _______ _____ _____    ______ ____
ROOT
ATOM      1  C   UNL     1       4.091  -5.920  -3.764  0.00  0.00    +0.047 A 
ATOM      2  C   UNL     1       3.614  -6.412  -4.964  0.00  0.00    +0.031 A 
ATOM      3  C   UNL     1       4.456  -7.089  -5.779  0.00  0.00    +0.048 A 
ATOM      4  S   UNL     1       5.922  -7.087  -4.959  0.00  0.00    -0.090 S 
ATOM      5  C   UNL     1       5.438  -6.173  -3.507  0.00  0.00    +0.095 A 
ENDROOT
BRANCH   5   6
ATOM      6  C   UNL     1       6.217  -5.802  -2.386  0.00  0.00    +0.257 C 
ATOM      7  O   UNL     1       5.711  -5.172  -1.474  0.00  0.00    -0.269 OA
ATOM      8  N   UNL     1       7.519  -6.147  -2.326  0.00  0.00    -0.281 N 
ATOM      9  H   UNL     1       7.905  -6.705  -3.018  0.00  0.00    +0.155 HD
BRANCH   8  10
ATOM     10  C   UNL     1       8.313  -5.698  -1.264  0.00  0.00    +0.037 A 
ATOM     11  C   UNL     1       7.768  -5.573   0.007  0.00  0.00    +0.027 A 
ATOM     12  C   UNL     1       8.551  -5.131   1.056  0.00  0.00    +0.051 A 
ATOM     13  C   UNL     1       9.883  -4.811   0.843  0.00  0.00    +0.173 A 
ATOM     14  C   UNL     1      10.432  -4.936  -0.430  0.00  0.00    +0.174 A 
ATOM     15  C   UNL     1       9.648  -5.384  -1.480  0.00  0.00    +0.073 A 
ATOM     16  O   UNL     1      11.745  -4.564  -0.377  0.00  0.00    -0.395 OA
ATOM     17  C   UNL     1      11.885  -3.823   0.849  0.00  0.00    +0.589 C 
ATOM     18  O   UNL     1      10.851  -4.361   1.694  0.00  0.00    -0.395 OA
ATOM     19  F   UNL     1      11.676  -2.458   0.626  0.00  0.00    -0.125 F 
ATOM     20  F   UNL     1      13.146  -4.042   1.415  0.00  0.00    -0.125 F 
ENDBRANCH   8  10
ENDBRANCH   5   6
BRANCH   1  21
ATOM     21  N   UNL     1       3.283  -5.215  -2.876  0.00  0.00    -0.339 N 
ATOM     22  H   UNL     1       3.654  -4.880  -2.044  0.00  0.00    +0.146 HD
BRANCH  21  23
ATOM     23  C   UNL     1       1.873  -4.978  -3.197  0.00  0.00    +0.137 C 
BRANCH  23  26
ATOM     24  C   UNL     1       0.612  -2.127  -1.046  0.00  0.00    +0.126 A 
ATOM     25  C   UNL     1       1.219  -2.812  -2.096  0.00  0.00    +0.038 A 
ATOM     26  C   UNL     1       1.228  -4.198  -2.080  0.00  0.00    -0.027 A 
ATOM     27  C   UNL     1       0.629  -4.851  -1.014  0.00  0.00    +0.025 A 
ATOM     28  C   UNL     1       0.044  -4.106  -0.003  0.00  0.00    +0.112 A 
ATOM     29  N   UNL     1       0.055  -2.791  -0.041  0.00  0.00    -0.250 NA
BRANCH  24  32
ATOM     30  C   UNL     1      -0.005   1.487  -0.035  0.00  0.00    +0.128 C 
ATOM     31  N   UNL     1       0.013   0.022  -0.033  0.00  0.00    -0.313 N 
ATOM     32  C   UNL     1       0.594  -0.646  -1.048  0.00  0.00    +0.262 C 
ATOM     33  O   UNL     1       1.103  -0.034  -1.966  0.00  0.00    -0.269 OA
ATOM     34  H   UNL     1      -0.393  -0.466   0.700  0.00  0.00    +0.149 HD
ENDBRANCH  24  32
ENDBRANCH  23  26
ENDBRANCH  21  23
ENDBRANCH   1  21
TORSDOF 6
