REMARK  Name = CHEMBL381421
REMARK  4 active torsions:
REMARK  status: ('A' for Active; 'I' for Inactive)
REMARK    1  A    between atoms: C_4  and  C_7
REMARK    2  A    between atoms: C_10  and  C_19
REMARK    3  A    between atoms: C_11  and  C_13
REMARK    4  A    between atoms: C_23  and  O_25
REMARK                            x       y       z     vdW  Elec       q    Type
REMARK                         _______ _______ _______ _____ _____    ______ ____
ROOT
ATOM      1  C   UNL     1       3.642  -0.803  -0.158  0.00  0.00    +0.139 A 
ATOM      2  N   UNL     1       4.757  -0.108  -0.138  0.00  0.00    -0.227 NA
ATOM      3  H   UNL     1       3.304  -2.861  -0.002  0.00  0.00    +0.167 HD
ATOM      4  C   UNL     1       5.802  -0.937   0.001  0.00  0.00    +0.097 A 
ATOM      5  C   UNL     1       5.309  -2.230   0.073  0.00  0.00    +0.076 A 
ATOM      6  N   UNL     1       3.939  -2.128  -0.023  0.00  0.00    -0.337 N 
ENDROOT
BRANCH   4   7
ATOM      7  C   UNL     1       7.229  -0.542   0.067  0.00  0.00    +0.006 A 
ATOM      8  C   UNL     1       8.191  -1.279  -0.624  0.00  0.00    +0.012 A 
ATOM      9  C   UNL     1       9.519  -0.909  -0.561  0.00  0.00    +0.024 A 
ATOM     10  C   UNL     1       9.900   0.192   0.185  0.00  0.00    +0.082 A 
ATOM     11  C   UNL     1       8.948   0.931   0.876  0.00  0.00    +0.136 A 
ATOM     12  C   UNL     1       7.612   0.570   0.814  0.00  0.00    +0.057 A 
ATOM     13 CL   UNL     1      11.572   0.651   0.259  0.00  0.00    -0.080 Cl
BRANCH  11  14
ATOM     14  O   UNL     1       9.326   2.011   1.609  0.00  0.00    -0.505 OA
ATOM     15  H   UNL     1       9.325   2.842   1.114  0.00  0.00    +0.292 HD
ENDBRANCH  11  14
ENDBRANCH   4   7
BRANCH   1  19
ATOM     16  C   UNL     1      -0.264   0.816  -0.560  0.00  0.00    +0.000 A 
ATOM     17  C   UNL     1       0.834   1.658  -0.553  0.00  0.00    +0.001 A 
ATOM     18  C   UNL     1       2.105   1.139  -0.423  0.00  0.00    +0.011 A 
ATOM     19  C   UNL     1       2.283  -0.240  -0.298  0.00  0.00    +0.017 A 
ATOM     20  C   UNL     1       1.171  -1.084  -0.305  0.00  0.00    +0.011 A 
ATOM     21  C   UNL     1      -0.095  -0.552  -0.436  0.00  0.00    +0.001 A 
ENDBRANCH   1  19
BRANCH   5  22
ATOM     22  C   UNL     1       6.094  -3.469   0.228  0.00  0.00    +0.022 A 
ATOM     23  C   UNL     1       7.105  -3.571   1.197  0.00  0.00    +0.033 A 
ATOM     24  C   UNL     1       7.798  -4.764   1.282  0.00  0.00    +0.135 A 
ATOM     25  N   UNL     1       7.499  -5.761   0.467  0.00  0.00    -0.158 NA
ATOM     26  N   UNL     1       6.577  -5.675  -0.420  0.00  0.00    -0.157 NA
ATOM     27  C   UNL     1       5.853  -4.586  -0.582  0.00  0.00    +0.145 A 
ENDBRANCH   5  22
TORSDOF 4
