REMARK  Name = CHEMBL1076204
REMARK  6 active torsions:
REMARK  status: ('A' for Active; 'I' for Inactive)
REMARK    1  A    between atoms: C_1  and  N_2
REMARK    2  A    between atoms: C_11  and  C_14
REMARK    3  A    between atoms: C_22  and  C_23
REMARK    4  A    between atoms: C_25  and  N_30
REMARK    5  A    between atoms: C_31  and  C_33
REMARK    6  A    between atoms: C_37  and  C_39
REMARK                            x       y       z     vdW  Elec       q    Type
REMARK                         _______ _______ _______ _____ _____    ______ ____
ROOT
ATOM      1  C   UNL     1      -2.246  -6.707   4.307  0.00  0.00    +0.047 A 
ATOM      2  C   UNL     1      -3.454  -6.765   5.008  0.00  0.00    +0.145 A 
ATOM      3  N   UNL     1      -3.487  -7.875   5.706  0.00  0.00    -0.172 NA
ATOM      4  N   UNL     1      -2.304  -8.589   5.492  0.00  0.00    -0.213 N 
ATOM      5  C   UNL     1      -1.530  -7.871   4.617  0.00  0.00    +0.164 A 
ATOM      6  N   UNL     1      -0.335  -8.325   4.228  0.00  0.00    -0.236 NA
ATOM      7  C   UNL     1       0.135  -9.472   4.667  0.00  0.00    +0.115 A 
ATOM      8  C   UNL     1      -0.612 -10.248   5.556  0.00  0.00    +0.048 A 
ATOM      9  C   UNL     1      -1.845  -9.791   5.975  0.00  0.00    +0.079 A 
ENDROOT
BRANCH   1  20
ATOM     10  C   UNL     1       0.026   1.450   0.003  0.00  0.00    -0.096 C 
ATOM     11  N   UNL     1       0.048  -0.019  -0.002  0.00  0.00    +0.380 N 
ATOM     12  C   UNL     1      -1.329  -0.528  -0.011  0.00  0.00    -0.060 C 
ATOM     13  C   UNL     1      -1.307  -2.055  -0.131  0.00  0.00    +0.088 C 
ATOM     14  N   UNL     1      -0.467  -2.596   0.948  0.00  0.00    -0.319 N 
ATOM     15  C   UNL     1       0.877  -2.025   1.133  0.00  0.00    +0.088 C 
ATOM     16  C   UNL     1       0.752  -0.499   1.194  0.00  0.00    -0.060 C 
ATOM     17  C   UNL     1      -0.929  -3.618   1.771  0.00  0.00    +0.121 A 
ATOM     18  C   UNL     1      -2.204  -4.139   1.569  0.00  0.00    +0.044 A 
ATOM     19  C   UNL     1      -2.656  -5.154   2.389  0.00  0.00    +0.013 A 
ATOM     20  C   UNL     1      -1.807  -5.621   3.400  0.00  0.00    +0.005 A 
ATOM     21  C   UNL     1      -0.545  -5.050   3.541  0.00  0.00    +0.121 A 
ATOM     22  N   UNL     1      -0.149  -4.086   2.733  0.00  0.00    -0.240 NA
ATOM     23  H   UNL     1       0.530  -0.344  -0.827  0.00  0.00    -0.082 HD
ENDBRANCH   1  20
BRANCH   9  24
ATOM     24  C   UNL     1      -2.663 -10.587   6.913  0.00  0.00    +0.037 A 
ATOM     25  C   UNL     1      -2.335 -10.626   8.269  0.00  0.00    +0.036 A 
ATOM     26  C   UNL     1      -3.107 -11.374   9.143  0.00  0.00    +0.034 A 
ATOM     27  C   UNL     1      -4.205 -12.083   8.669  0.00  0.00    +0.026 A 
ATOM     28  C   UNL     1      -4.532 -12.046   7.327  0.00  0.00    +0.041 A 
ATOM     29  C   UNL     1      -3.773 -11.299   6.446  0.00  0.00    +0.133 A 
ATOM     30  F   UNL     1      -4.099 -11.260   5.136  0.00  0.00    -0.205 F 
BRANCH  26  31
ATOM     31  N   UNL     1      -2.781 -11.416  10.503  0.00  0.00    -0.281 N 
ATOM     32  C   UNL     1      -2.268 -10.326  11.107  0.00  0.00    +0.248 C 
ATOM     33  O   UNL     1      -2.178  -9.279  10.497  0.00  0.00    -0.270 OA
ATOM     34  H   UNL     1      -2.925 -12.230  11.011  0.00  0.00    +0.155 HD
BRANCH  32  35
ATOM     35  C   UNL     1      -1.813 -10.405  12.511  0.00  0.00    +0.038 A 
ATOM     36  C   UNL     1      -1.909 -11.608  13.213  0.00  0.00    +0.013 A 
ATOM     37  C   UNL     1      -1.483 -11.674  14.523  0.00  0.00    +0.001 A 
ATOM     38  C   UNL     1      -0.961 -10.552  15.142  0.00  0.00    +0.012 A 
ATOM     39  C   UNL     1      -0.864  -9.357  14.453  0.00  0.00    +0.056 A 
ATOM     40  C   UNL     1      -1.281  -9.278  13.140  0.00  0.00    +0.025 A 
BRANCH  39  41
ATOM     41  C   UNL     1      -0.295  -8.139  15.135  0.00  0.00    +0.417 C 
ATOM     42  F   UNL     1       0.060  -8.464  16.449  0.00  0.00    -0.166 F 
ATOM     43  F   UNL     1       0.838  -7.702  14.440  0.00  0.00    -0.166 F 
ATOM     44  F   UNL     1      -1.255  -7.122  15.150  0.00  0.00    -0.166 F 
ENDBRANCH  39  41
ENDBRANCH  32  35
ENDBRANCH  26  31
ENDBRANCH   9  24
TORSDOF 5
