REMARK  Name = CHEMBL1421
REMARK  8 active torsions:
REMARK  status: ('A' for Active; 'I' for Inactive)
REMARK    1  A    between atoms: C_1  and  C_2
REMARK    2  A    between atoms: C_7  and  N_8
REMARK    3  A    between atoms: C_9  and  C_11
REMARK    4  A    between atoms: N_16  and  C_17
REMARK    5  A    between atoms: C_21  and  C_23
REMARK    6  A    between atoms: N_27  and  C_30
REMARK    7  A    between atoms: C_30  and  C_31
REMARK    8  A    between atoms: C_31  and  O_32
REMARK                            x       y       z     vdW  Elec       q    Type
REMARK                         _______ _______ _______ _____ _____    ______ ____
ROOT
ATOM      1  C   UNL     1       1.089   6.235   6.073  0.00  0.00    +0.095 A 
ATOM      2  C   UNL     1       1.062   6.219   7.460  0.00  0.00    +0.133 A 
ATOM      3  N   UNL     1       0.836   5.060   8.025  0.00  0.00    -0.232 NA
ATOM      4  C   UNL     1       0.645   3.968   7.306  0.00  0.00    +0.164 A 
ATOM      5  S   UNL     1       0.767   4.514   5.718  0.00  0.00    -0.047 S 
ATOM      6  N   UNL     1       0.397   2.684   7.750  0.00  0.00    -0.279 N 
ATOM      7  H   UNL     1       0.348   1.952   7.116  0.00  0.00    +0.155 HD
ENDROOT
BRANCH   6   8
ATOM      8  C   UNL     1       0.220   2.441   9.106  0.00  0.00    +0.129 A 
ATOM      9  C   UNL     1      -0.134   1.174   9.556  0.00  0.00    +0.085 A 
ATOM     10  C   UNL     1      -0.300   0.982  10.924  0.00  0.00    +0.103 A 
ATOM     11  N   UNL     1      -0.116   2.011  11.748  0.00  0.00    -0.332 N 
ATOM     12  C   UNL     1       0.219   3.198  11.283  0.00  0.00    +0.107 A 
ATOM     13  N   UNL     1       0.391   3.418   9.996  0.00  0.00    -0.219 NA
ATOM     14  C   UNL     1       0.418   4.334  12.252  0.00  0.00    +0.086 C 
ATOM     15  N   UNL     1      -0.653  -0.263  11.422  0.00  0.00    -0.314 N 
ATOM     16  C   UNL     1      -0.964  -0.445  12.848  0.00  0.00    +0.122 C 
ATOM     17  C   UNL     1      -2.311  -1.165  12.965  0.00  0.00    +0.103 C 
ATOM     18  N   UNL     1      -2.271  -2.403  12.175  0.00  0.00    -0.297 NA
ATOM     19  C   UNL     1      -2.083  -2.118  10.746  0.00  0.00    +0.103 C 
ATOM     20  C   UNL     1      -0.733  -1.435  10.538  0.00  0.00    +0.122 C 
ATOM     21  H   UNL     1      -0.230   1.887  12.703  0.00  0.00    +0.168 HD
BRANCH  18  22
ATOM     22  C   UNL     1      -3.480  -3.208  12.396  0.00  0.00    +0.112 C 
BRANCH  22  23
ATOM     23  C   UNL     1      -3.296  -4.589  11.763  0.00  0.00    +0.171 C 
BRANCH  23  24
ATOM     24  O   UNL     1      -2.247  -5.287  12.438  0.00  0.00    -0.394 OA
ATOM     25  H   UNL     1      -2.075  -6.172  12.088  0.00  0.00    +0.209 HD
ENDBRANCH  23  24
ENDBRANCH  22  23
ENDBRANCH  18  22
ENDBRANCH   6   8
BRANCH   1  27
ATOM     26  N   UNL     1       1.291   7.144   3.824  0.00  0.00    -0.280 N 
ATOM     27  C   UNL     1       1.313   7.351   5.155  0.00  0.00    +0.256 C 
ATOM     28  O   UNL     1       1.518   8.468   5.595  0.00  0.00    -0.269 OA
ATOM     29  H   UNL     1       1.048   6.273   3.472  0.00  0.00    +0.155 HD
BRANCH  26  36
ATOM     30  C   UNL     1       3.274   6.659   1.842  0.00  0.00    +0.046 C 
ATOM     31  C   UNL     1       2.581   7.991   1.966  0.00  0.00    -0.028 A 
ATOM     32  C   UNL     1       2.898   9.019   1.099  0.00  0.00    +0.005 A 
ATOM     33  C   UNL     1       2.264  10.242   1.213  0.00  0.00    +0.002 A 
ATOM     34  C   UNL     1       1.309  10.441   2.193  0.00  0.00    +0.022 A 
ATOM     35  C   UNL     1       0.987   9.418   3.064  0.00  0.00    +0.062 A 
ATOM     36  C   UNL     1       1.619   8.185   2.949  0.00  0.00    +0.055 A 
ATOM     37 CL   UNL     1      -0.211   9.668   4.295  0.00  0.00    -0.082 Cl
ENDBRANCH  26  36
ENDBRANCH   1  27
TORSDOF 6
