REMARK  Name = CHEMBL456350
REMARK  8 active torsions:
REMARK  status: ('A' for Active; 'I' for Inactive)
REMARK    1  A    between atoms: C_1  and  C_2
REMARK    2  A    between atoms: C_2  and  N_3
REMARK    3  A    between atoms: C_5  and  C_26
REMARK    4  A    between atoms: C_6  and  C_8
REMARK    5  A    between atoms: C_12  and  N_14
REMARK    6  A    between atoms: N_17  and  C_18
REMARK    7  A    between atoms: C_22  and  O_24
REMARK    8  A    between atoms: O_24  and  C_25
REMARK                            x       y       z     vdW  Elec       q    Type
REMARK                         _______ _______ _______ _____ _____    ______ ____
ROOT
ATOM      1  C   UNL     1       3.513  -0.742   3.798  0.00  0.00    +0.004 A 
ATOM      2  C   UNL     1       3.337  -0.990   5.159  0.00  0.00    +0.010 A 
ATOM      3  C   UNL     1       4.421  -0.951   6.013  0.00  0.00    +0.002 A 
ATOM      4  C   UNL     1       5.682  -0.667   5.523  0.00  0.00    +0.023 A 
ATOM      5  C   UNL     1       5.866  -0.418   4.169  0.00  0.00    +0.035 A 
ATOM      6  C   UNL     1       4.784  -0.462   3.303  0.00  0.00    +0.033 A 
ENDROOT
BRANCH   5   7
ATOM      7  N   UNL     1       7.144  -0.131   3.677  0.00  0.00    -0.269 N 
ATOM      8  C   UNL     1       7.295   0.747   2.665  0.00  0.00    +0.308 C 
ATOM      9  O   UNL     1       6.317   1.226   2.125  0.00  0.00    -0.252 OA
ATOM     10  N   UNL     1       8.531   1.093   2.252  0.00  0.00    -0.269 N 
ATOM     11  H   UNL     1       7.922  -0.562   4.064  0.00  0.00    +0.156 HD
ATOM     12  H   UNL     1       9.309   0.656   2.631  0.00  0.00    +0.156 HD
BRANCH  10  13
ATOM     13  C   UNL     1       8.690   2.084   1.277  0.00  0.00    +0.038 A 
ATOM     14  C   UNL     1       9.722   1.988   0.351  0.00  0.00    +0.023 A 
ATOM     15  C   UNL     1       9.879   2.966  -0.612  0.00  0.00    +0.005 A 
ATOM     16  C   UNL     1       9.012   4.041  -0.657  0.00  0.00    +0.046 A 
ATOM     17  C   UNL     1       7.979   4.141   0.265  0.00  0.00    +0.122 A 
ATOM     18  C   UNL     1       7.815   3.159   1.229  0.00  0.00    +0.069 A 
BRANCH  17  19
ATOM     19  O   UNL     1       7.128   5.199   0.219  0.00  0.00    -0.495 OA
ATOM     20  C   UNL     1       7.354   6.171  -0.804  0.00  0.00    +0.277 C 
ENDBRANCH  17  19
ENDBRANCH  10  13
ENDBRANCH   5   7
BRANCH   1  24
ATOM     21  N   UNL     1       1.045  -1.163   1.144  0.00  0.00    -0.271 N 
ATOM     22  C   UNL     1       0.291  -0.489   2.035  0.00  0.00    +0.117 A 
ATOM     23  C   UNL     1       1.066  -0.234   3.130  0.00  0.00    +0.028 A 
ATOM     24  C   UNL     1       2.349  -0.784   2.879  0.00  0.00    +0.100 A 
ATOM     25  N   UNL     1       2.322  -1.342   1.689  0.00  0.00    -0.171 NA
BRANCH  23  26
ATOM     26  C   UNL     1       0.644   0.484   4.353  0.00  0.00    -0.002 A 
ATOM     27  C   UNL     1      -0.323  -0.050   5.206  0.00  0.00    +0.029 A 
ATOM     28  C   UNL     1      -0.688   0.654   6.339  0.00  0.00    +0.114 A 
ATOM     29  N   UNL     1      -0.147   1.818   6.635  0.00  0.00    -0.237 NA
ATOM     30  C   UNL     1       0.778   2.380   5.866  0.00  0.00    +0.139 A 
ATOM     31  C   UNL     1       1.210   1.726   4.698  0.00  0.00    +0.026 A 
ATOM     32  C   UNL     1       2.221   2.591   4.094  0.00  0.00    +0.029 A 
ATOM     33  C   UNL     1       2.344   3.664   4.892  0.00  0.00    +0.085 A 
ATOM     34  N   UNL     1       1.482   3.557   5.951  0.00  0.00    -0.346 N 
ATOM     35  H   UNL     1       1.390   4.210   6.662  0.00  0.00    +0.167 HD
ENDBRANCH  23  26
BRANCH  21  37
ATOM     36  C   UNL     1       1.545  -1.098  -1.249  0.00  0.00    +0.029 C 
ATOM     37  C   UNL     1       0.601  -1.633  -0.171  0.00  0.00    +0.140 C 
ENDBRANCH  21  37
ENDBRANCH   1  24
TORSDOF 6
