REMARK  Name = CHEMBL371952
REMARK  4 active torsions:
REMARK  status: ('A' for Active; 'I' for Inactive)
REMARK    1  A    between atoms: C_3  and  C_6
REMARK    2  A    between atoms: C_9  and  C_18
REMARK    3  A    between atoms: C_10  and  C_12
REMARK    4  A    between atoms: C_22  and  O_24
REMARK                            x       y       z     vdW  Elec       q    Type
REMARK                         _______ _______ _______ _____ _____    ______ ____
ROOT
ATOM      1  C   UNL     1       3.574   0.617   0.090  0.00  0.00    +0.175 A 
ATOM      2  N   UNL     1       4.344  -0.513   0.060  0.00  0.00    -0.335 N 
ATOM      3  H   UNL     1       4.029  -1.427   0.146  0.00  0.00    +0.167 HD
ATOM      4  C   UNL     1       5.648  -0.112  -0.115  0.00  0.00    +0.074 A 
ATOM      5  C   UNL     1       5.627   1.272  -0.186  0.00  0.00    +0.097 A 
ATOM      6  N   UNL     1       4.350   1.669  -0.064  0.00  0.00    -0.224 NA
ENDROOT
BRANCH   4   7
ATOM      7  C   UNL     1       6.836  -0.983  -0.207  0.00  0.00    +0.004 A 
ATOM      8  C   UNL     1       7.978  -0.692   0.543  0.00  0.00    +0.011 A 
ATOM      9  C   UNL     1       9.087  -1.508   0.455  0.00  0.00    +0.024 A 
ATOM     10  C   UNL     1       9.072  -2.615  -0.376  0.00  0.00    +0.082 A 
ATOM     11  C   UNL     1       7.940  -2.912  -1.126  0.00  0.00    +0.136 A 
ATOM     12  C   UNL     1       6.820  -2.103  -1.040  0.00  0.00    +0.057 A 
ATOM     13 CL   UNL     1      10.472  -3.636  -0.482  0.00  0.00    -0.080 Cl
BRANCH  11  14
ATOM     14  O   UNL     1       7.931  -4.000  -1.940  0.00  0.00    -0.505 OA
ATOM     15  H   UNL     1       7.618  -4.809  -1.512  0.00  0.00    +0.292 HD
ENDBRANCH  11  14
ENDBRANCH   4   7
BRANCH   5  16
ATOM     16  C   UNL     1       6.801   2.154  -0.372  0.00  0.00    +0.005 A 
ATOM     17  C   UNL     1       7.809   1.827  -1.286  0.00  0.00    +0.030 A 
ATOM     18  C   UNL     1       8.885   2.677  -1.426  0.00  0.00    +0.111 A 
ATOM     19  N   UNL     1       8.972   3.785  -0.714  0.00  0.00    -0.263 NA
ATOM     20  C   UNL     1       8.044   4.130   0.159  0.00  0.00    +0.111 A 
ATOM     21  C   UNL     1       6.931   3.341   0.358  0.00  0.00    +0.030 A 
ENDBRANCH   5  16
BRANCH   1  24
ATOM     22  C   UNL     1       0.010   1.339   0.466  0.00  0.00    +0.042 A 
ATOM     23  C   UNL     1       1.337   1.771   0.285  0.00  0.00    +0.053 A 
ATOM     24  C   UNL     1       2.114   0.651   0.260  0.00  0.00    +0.170 A 
ATOM     25  O   UNL     1       1.310  -0.419   0.416  0.00  0.00    -0.460 OA
ATOM     26  C   UNL     1       0.038  -0.008   0.541  0.00  0.00    +0.196 A 
ENDBRANCH   1  24
TORSDOF 4
