REMARK  Name = CHEMBL583340
REMARK  7 active torsions:
REMARK  status: ('A' for Active; 'I' for Inactive)
REMARK    1  A    between atoms: C_1  and  C_2
REMARK    2  A    between atoms: C_2  and  O_3
REMARK    3  A    between atoms: O_3  and  C_4
REMARK    4  A    between atoms: C_12  and  C_14
REMARK    5  A    between atoms: C_21  and  C_34
REMARK    6  A    between atoms: C_22  and  C_23
REMARK    7  A    between atoms: C_26  and  C_29
REMARK                            x       y       z     vdW  Elec       q    Type
REMARK                         _______ _______ _______ _____ _____    ______ ____
ROOT
ATOM      1  C   UNL     1      -5.942  -3.646  -0.660  0.00  0.00    +0.050 A 
ATOM      2  C   UNL     1      -7.094  -4.118  -1.198  0.00  0.00    +0.043 A 
ATOM      3  C   UNL     1      -8.064  -4.683  -0.359  0.00  0.00    +0.115 A 
ATOM      4  N   UNL     1      -7.858  -4.753   0.936  0.00  0.00    -0.236 NA
ATOM      5  C   UNL     1      -6.726  -4.291   1.477  0.00  0.00    +0.164 A 
ATOM      6  N   UNL     1      -5.751  -3.736   0.689  0.00  0.00    -0.217 N 
ATOM      7  N   UNL     1      -4.690  -3.351   1.515  0.00  0.00    -0.164 NA
ATOM      8  C   UNL     1      -4.981  -3.654   2.766  0.00  0.00    +0.103 A 
ATOM      9  C   UNL     1      -6.262  -4.243   2.797  0.00  0.00    +0.054 A 
ENDROOT
BRANCH   1  18
ATOM     10  C   UNL     1      -4.995   1.012  -2.094  0.00  0.00    +0.403 C 
ATOM     11  O   UNL     1      -4.192   1.681  -1.474  0.00  0.00    -0.226 OA
ATOM     12  N   UNL     1      -5.398  -0.179  -1.608  0.00  0.00    -0.261 N 
ATOM     13  C   UNL     1      -6.356  -1.138  -2.209  0.00  0.00    +0.080 C 
ATOM     14  C   UNL     1      -7.207  -1.625  -1.014  0.00  0.00    +0.024 C 
ATOM     15  C   UNL     1      -6.302  -1.428   0.220  0.00  0.00    +0.024 C 
ATOM     16  C   UNL     1      -4.984  -0.844  -0.349  0.00  0.00    +0.080 C 
ATOM     17  C   UNL     1      -4.071  -2.019  -0.732  0.00  0.00    +0.032 C 
ATOM     18  C   UNL     1      -4.883  -3.034  -1.541  0.00  0.00    +0.041 C 
ATOM     19  C   UNL     1      -5.540  -2.335  -2.725  0.00  0.00    +0.032 C 
BRANCH  10  20
ATOM     20  O   UNL     1      -5.483   1.461  -3.266  0.00  0.00    -0.451 OA
BRANCH  20  22
ATOM     21  C   UNL     1      -5.673   3.071  -5.058  0.00  0.00    +0.048 C 
ATOM     22  C   UNL     1      -5.012   2.731  -3.720  0.00  0.00    +0.230 C 
ENDBRANCH  20  22
ENDBRANCH  10  20
ENDBRANCH   1  18
BRANCH   9  23
ATOM     23  C   UNL     1      -6.974  -4.731   3.997  0.00  0.00    -0.012 A 
ATOM     24  C   UNL     1      -7.442  -3.823   4.950  0.00  0.00    +0.009 A 
ATOM     25  C   UNL     1      -8.102  -4.276   6.063  0.00  0.00    +0.014 A 
ATOM     26  C   UNL     1      -8.308  -5.647   6.243  0.00  0.00    +0.039 A 
ATOM     27  C   UNL     1      -7.841  -6.555   5.289  0.00  0.00    +0.014 A 
ATOM     28  C   UNL     1      -7.185  -6.101   4.174  0.00  0.00    +0.009 A 
BRANCH  26  29
ATOM     29  C   UNL     1      -9.019  -6.135   7.442  0.00  0.00    +0.248 A 
ATOM     30  N   UNL     1      -9.514  -5.397   8.409  0.00  0.00    -0.108 NA
ATOM     31  N   UNL     1     -10.063  -6.161   9.287  0.00  0.00    -0.116 NA
ATOM     32  C   UNL     1      -9.943  -7.405   8.918  0.00  0.00    +0.332 A 
ATOM     33  O   UNL     1      -9.288  -7.421   7.744  0.00  0.00    -0.423 OA
ENDBRANCH  26  29
ENDBRANCH   9  23
BRANCH   8  34
ATOM     34  C   UNL     1      -4.114  -3.406   3.942  0.00  0.00    +0.006 A 
ATOM     35  C   UNL     1      -4.004  -4.351   4.966  0.00  0.00    +0.030 A 
ATOM     36  C   UNL     1      -3.185  -4.080   6.043  0.00  0.00    +0.111 A 
ATOM     37  N   UNL     1      -2.512  -2.948   6.113  0.00  0.00    -0.263 NA
ATOM     38  C   UNL     1      -2.587  -2.029   5.168  0.00  0.00    +0.111 A 
ATOM     39  C   UNL     1      -3.377  -2.222   4.054  0.00  0.00    +0.030 A 
ENDBRANCH   8  34
TORSDOF 6
