REMARK  Name = CHEMBL515322
REMARK  9 active torsions:
REMARK  status: ('A' for Active; 'I' for Inactive)
REMARK    1  A    between atoms: C_1  and  N_2
REMARK    2  A    between atoms: N_2  and  C_3
REMARK    3  A    between atoms: N_2  and  C_4
REMARK    4  A    between atoms: C_4  and  C_5
REMARK    5  A    between atoms: C_9  and  N_11
REMARK    6  A    between atoms: C_12  and  C_14
REMARK    7  A    between atoms: C_17  and  C_31
REMARK    8  A    between atoms: C_18  and  C_20
REMARK    9  A    between atoms: N_29  and  O_30
REMARK                            x       y       z     vdW  Elec       q    Type
REMARK                         _______ _______ _______ _____ _____    ______ ____
ROOT
ATOM      1  C   UNL     1      -1.385  -7.173   3.125  0.00  0.00    +0.195 A 
ATOM      2  N   UNL     1      -1.361  -6.731   4.363  0.00  0.00    -0.223 NA
ATOM      3  H   UNL     1      -1.518  -9.120   2.363  0.00  0.00    +0.168 HD
ATOM      4  C   UNL     1      -1.430  -7.764   5.207  0.00  0.00    +0.097 A 
ATOM      5  C   UNL     1      -1.503  -8.929   4.448  0.00  0.00    +0.074 A 
ATOM      6  N   UNL     1      -1.479  -8.538   3.138  0.00  0.00    -0.334 N 
ENDROOT
BRANCH   5   7
ATOM      7  C   UNL     1      -1.593 -10.310   4.956  0.00  0.00    +0.001 A 
ATOM      8  C   UNL     1      -0.770 -10.726   6.007  0.00  0.00    +0.010 A 
ATOM      9  C   UNL     1      -0.856 -12.004   6.476  0.00  0.00    +0.011 A 
ATOM     10  C   UNL     1      -1.768 -12.907   5.908  0.00  0.00    +0.003 A 
ATOM     11  C   UNL     1      -2.588 -12.491   4.860  0.00  0.00    -0.037 A 
ATOM     12  C   UNL     1      -2.506 -11.206   4.393  0.00  0.00    +0.014 A 
ATOM     13  C   UNL     1      -3.474 -13.633   4.424  0.00  0.00    +0.042 C 
ATOM     14  C   UNL     1      -3.117 -14.825   5.323  0.00  0.00    +0.064 C 
ATOM     15  C   UNL     1      -2.034 -14.319   6.245  0.00  0.00    +0.088 C 
ATOM     16  N   UNL     1      -1.441 -15.005   7.169  0.00  0.00    -0.092 NA
BRANCH  16  17
ATOM     17  O   UNL     1      -1.798 -16.358   7.385  0.00  0.00    -0.409 OA
ATOM     18  H   UNL     1      -1.301 -16.787   8.095  0.00  0.00    +0.328 HD
ENDBRANCH  16  17
ENDBRANCH   5   7
BRANCH   4  19
ATOM     19  C   UNL     1      -1.430  -7.684   6.687  0.00  0.00    +0.005 A 
ATOM     20  C   UNL     1      -2.175  -8.584   7.455  0.00  0.00    +0.030 A 
ATOM     21  C   UNL     1      -2.146  -8.474   8.830  0.00  0.00    +0.111 A 
ATOM     22  N   UNL     1      -1.428  -7.537   9.419  0.00  0.00    -0.263 NA
ATOM     23  C   UNL     1      -0.712  -6.668   8.732  0.00  0.00    +0.111 A 
ATOM     24  C   UNL     1      -0.679  -6.710   7.354  0.00  0.00    +0.030 A 
ENDBRANCH   4  19
BRANCH   1  26
ATOM     25  N   UNL     1      -1.241  -4.993   2.031  0.00  0.00    -0.279 N 
ATOM     26  C   UNL     1      -1.328  -6.333   1.916  0.00  0.00    +0.284 C 
ATOM     27  O   UNL     1      -1.358  -6.848   0.815  0.00  0.00    -0.267 OA
ATOM     28  H   UNL     1      -1.140  -4.586   2.906  0.00  0.00    +0.155 HD
BRANCH  25  33
ATOM     29  C   UNL     1      -0.630  -2.213  -0.296  0.00  0.00    -0.062 A 
ATOM     30  C   UNL     1      -1.410  -2.596  -1.372  0.00  0.00    +0.002 A 
ATOM     31  C   UNL     1      -2.134  -3.773  -1.320  0.00  0.00    +0.002 A 
ATOM     32  C   UNL     1      -2.080  -4.570  -0.193  0.00  0.00    +0.023 A 
ATOM     33  C   UNL     1      -1.298  -4.188   0.889  0.00  0.00    +0.034 A 
ATOM     34  C   UNL     1      -0.568  -3.008   0.832  0.00  0.00    +0.025 A 
BRANCH  29  35
ATOM     35  C   UNL     1       0.158  -0.930  -0.356  0.00  0.00    -0.044 C 
BRANCH  35  37
ATOM     36  C   UNL     1       2.212   0.069  -1.089  0.00  0.00    -0.096 C 
ATOM     37  N   UNL     1       1.488  -1.198  -0.918  0.00  0.00    +0.379 N 
ATOM     38  C   UNL     1       2.238  -2.071  -0.006  0.00  0.00    -0.096 C 
ATOM     39  H   UNL     1       1.390  -1.652  -1.814  0.00  0.00    -0.082 HD
ENDBRANCH  35  37
ENDBRANCH  29  35
ENDBRANCH  25  33
ENDBRANCH   1  26
TORSDOF 7
