REMARK  Name = CHEMBL381250
REMARK  4 active torsions:
REMARK  status: ('A' for Active; 'I' for Inactive)
REMARK    1  A    between atoms: C_3  and  C_7
REMARK    2  A    between atoms: C_10  and  C_19
REMARK    3  A    between atoms: C_11  and  C_13
REMARK    4  A    between atoms: C_23  and  O_25
REMARK                            x       y       z     vdW  Elec       q    Type
REMARK                         _______ _______ _______ _____ _____    ______ ____
ROOT
ATOM      1  C   UNL     1       3.687   2.031   0.097  0.00  0.00    +0.141 A 
ATOM      2  N   UNL     1       4.908   1.419   0.065  0.00  0.00    -0.337 N 
ATOM      3  H   UNL     1       5.078   0.468   0.145  0.00  0.00    +0.167 HD
ATOM      4  C   UNL     1       5.851   2.405  -0.103  0.00  0.00    +0.074 A 
ATOM      5  C   UNL     1       5.158   3.603  -0.169  0.00  0.00    +0.097 A 
ATOM      6  N   UNL     1       3.850   3.325  -0.049  0.00  0.00    -0.227 NA
ENDROOT
BRANCH   4   7
ATOM      7  C   UNL     1       7.313   2.223  -0.195  0.00  0.00    +0.004 A 
ATOM      8  C   UNL     1       8.169   3.028   0.561  0.00  0.00    +0.011 A 
ATOM      9  C   UNL     1       9.534   2.856   0.473  0.00  0.00    +0.024 A 
ATOM     10  C   UNL     1      10.061   1.887  -0.363  0.00  0.00    +0.082 A 
ATOM     11  C   UNL     1       9.218   1.081  -1.119  0.00  0.00    +0.136 A 
ATOM     12  C   UNL     1       7.846   1.242  -1.033  0.00  0.00    +0.057 A 
ATOM     13 CL   UNL     1      11.781   1.677  -0.469  0.00  0.00    -0.080 Cl
BRANCH  11  14
ATOM     14  O   UNL     1       9.741   0.132  -1.940  0.00  0.00    -0.505 OA
ATOM     15  H   UNL     1       9.861  -0.730  -1.517  0.00  0.00    +0.292 HD
ENDBRANCH  11  14
ENDBRANCH   4   7
BRANCH   1  18
ATOM     16  C   UNL     1       0.005   1.381   0.431  0.00  0.00    +0.020 A 
ATOM     17  C   UNL     1       1.194   2.072   0.274  0.00  0.00    +0.014 A 
ATOM     18  C   UNL     1       2.389   1.343   0.262  0.00  0.00    +0.035 A 
ATOM     19  C   UNL     1       2.334  -0.044   0.407  0.00  0.00    +0.122 A 
ATOM     20  N   UNL     1       1.177  -0.656   0.554  0.00  0.00    -0.263 NA
ATOM     21  C   UNL     1       0.035   0.005   0.569  0.00  0.00    +0.111 A 
ENDBRANCH   1  18
BRANCH   5  22
ATOM     22  C   UNL     1       5.753   4.947  -0.345  0.00  0.00    +0.005 A 
ATOM     23  C   UNL     1       6.795   5.159  -1.255  0.00  0.00    +0.030 A 
ATOM     24  C   UNL     1       7.319   6.427  -1.387  0.00  0.00    +0.111 A 
ATOM     25  N   UNL     1       6.853   7.432  -0.670  0.00  0.00    -0.263 NA
ATOM     26  C   UNL     1       5.872   7.276   0.200  0.00  0.00    +0.111 A 
ATOM     27  C   UNL     1       5.286   6.042   0.391  0.00  0.00    +0.030 A 
ENDBRANCH   5  22
TORSDOF 4
