REMARK  Name = CHEMBL200164
REMARK  4 active torsions:
REMARK  status: ('A' for Active; 'I' for Inactive)
REMARK    1  A    between atoms: C_4  and  C_7
REMARK    2  A    between atoms: C_10  and  C_19
REMARK    3  A    between atoms: C_11  and  C_13
REMARK    4  A    between atoms: N_29  and  O_30
REMARK                            x       y       z     vdW  Elec       q    Type
REMARK                         _______ _______ _______ _____ _____    ______ ____
ROOT
ATOM      1  C   UNL     1       3.078  -1.332   1.286  0.00  0.00    +0.117 A 
ATOM      2  N   UNL     1       3.307  -2.596   1.013  0.00  0.00    -0.339 N 
ATOM      3  H   UNL     1       4.375   0.304   1.409  0.00  0.00    +0.167 HD
ATOM      4  C   UNL     1       4.620  -2.779   0.796  0.00  0.00    +0.072 A 
ATOM      5  C   UNL     1       5.246  -1.551   0.944  0.00  0.00    +0.072 A 
ATOM      6  N   UNL     1       4.256  -0.645   1.249  0.00  0.00    -0.339 N 
ATOM      7  H   UNL     1       2.632  -3.292   0.974  0.00  0.00    +0.167 HD
ENDROOT
BRANCH   4   8
ATOM      8  C   UNL     1       5.279  -4.061   0.460  0.00  0.00    +0.001 A 
ATOM      9  C   UNL     1       6.390  -4.485   1.192  0.00  0.00    +0.010 A 
ATOM     10  C   UNL     1       7.003  -5.676   0.876  0.00  0.00    +0.011 A 
ATOM     11  C   UNL     1       6.511  -6.457  -0.174  0.00  0.00    +0.003 A 
ATOM     12  C   UNL     1       5.399  -6.039  -0.905  0.00  0.00    -0.038 A 
ATOM     13  C   UNL     1       4.786  -4.845  -0.583  0.00  0.00    +0.014 A 
ATOM     14  C   UNL     1       4.839  -6.865  -2.031  0.00  0.00    +0.036 C 
ATOM     15  C   UNL     1       5.892  -7.812  -2.599  0.00  0.00    +0.011 C 
ATOM     16  C   UNL     1       6.471  -8.669  -1.466  0.00  0.00    +0.060 C 
ATOM     17  C   UNL     1       7.181  -7.733  -0.509  0.00  0.00    +0.087 C 
ATOM     18  N   UNL     1       8.332  -8.039  -0.004  0.00  0.00    -0.092 NA
BRANCH  18  19
ATOM     19  O   UNL     1       9.056  -7.077   0.741  0.00  0.00    -0.409 OA
ATOM     20  H   UNL     1       9.905  -7.397   1.078  0.00  0.00    +0.328 HD
ENDBRANCH  18  19
ENDBRANCH   4   8
BRANCH   1  24
ATOM     21  C   UNL     1      -0.728   0.352   2.133  0.00  0.00    +0.000 A 
ATOM     22  C   UNL     1       0.397   1.158   2.133  0.00  0.00    +0.001 A 
ATOM     23  C   UNL     1       1.636   0.617   1.859  0.00  0.00    +0.011 A 
ATOM     24  C   UNL     1       1.754  -0.746   1.582  0.00  0.00    +0.015 A 
ATOM     25  C   UNL     1       0.615  -1.553   1.584  0.00  0.00    +0.011 A 
ATOM     26  C   UNL     1      -0.619  -0.999   1.860  0.00  0.00    +0.001 A 
ENDBRANCH   1  24
BRANCH   5  27
ATOM     27  C   UNL     1       6.687  -1.270   0.798  0.00  0.00    +0.003 A 
ATOM     28  C   UNL     1       7.410  -1.764  -0.296  0.00  0.00    +0.030 A 
ATOM     29  C   UNL     1       8.755  -1.478  -0.392  0.00  0.00    +0.111 A 
ATOM     30  N   UNL     1       9.360  -0.750   0.527  0.00  0.00    -0.263 NA
ATOM     31  C   UNL     1       8.718  -0.265   1.573  0.00  0.00    +0.111 A 
ATOM     32  C   UNL     1       7.370  -0.497   1.747  0.00  0.00    +0.030 A 
ENDBRANCH   5  27
TORSDOF 4
