REMARK  Name = CHEMBL247435
REMARK  8 active torsions:
REMARK  status: ('A' for Active; 'I' for Inactive)
REMARK    1  A    between atoms: C_1  and  N_2
REMARK    2  A    between atoms: C_3  and  C_5
REMARK    3  A    between atoms: C_7  and  C_11
REMARK    4  A    between atoms: C_11  and  N_12
REMARK    5  A    between atoms: N_12  and  C_13
REMARK    6  A    between atoms: C_14  and  C_19
REMARK    7  A    between atoms: N_17  and  C_18
REMARK    8  A    between atoms: N_21  and  C_22
REMARK                            x       y       z     vdW  Elec       q    Type
REMARK                         _______ _______ _______ _____ _____    ______ ____
ROOT
ATOM      1  C   UNL     1      -5.440  -6.139  -1.562  0.00  0.00    +0.129 A 
ATOM      2  C   UNL     1      -5.777  -6.583  -2.839  0.00  0.00    +0.096 A 
ATOM      3  C   UNL     1      -6.712  -7.632  -2.678  0.00  0.00    +0.149 A 
ATOM      4  N   UNL     1      -6.917  -7.803  -1.402  0.00  0.00    -0.177 NA
ATOM      5  N   UNL     1      -6.135  -6.892  -0.684  0.00  0.00    -0.253 N 
ATOM      6  C   UNL     1      -6.081  -6.774   0.775  0.00  0.00    +0.174 C 
ENDROOT
BRANCH   2   7
ATOM      7  C   UNL     1      -5.262  -6.059  -4.109  0.00  0.00    +0.253 C 
ATOM      8  O   UNL     1      -4.456  -5.147  -4.110  0.00  0.00    -0.270 OA
ATOM      9  N   UNL     1      -5.681  -6.589  -5.276  0.00  0.00    -0.281 N 
ATOM     10  H   UNL     1      -6.270  -7.360  -5.274  0.00  0.00    +0.155 HD
BRANCH   9  11
ATOM     11  C   UNL     1      -5.264  -6.028  -6.489  0.00  0.00    +0.037 A 
ATOM     12  C   UNL     1      -6.135  -5.986  -7.570  0.00  0.00    +0.027 A 
ATOM     13  C   UNL     1      -5.726  -5.433  -8.768  0.00  0.00    +0.051 A 
ATOM     14  C   UNL     1      -4.446  -4.918  -8.895  0.00  0.00    +0.173 A 
ATOM     15  C   UNL     1      -3.570  -4.957  -7.812  0.00  0.00    +0.174 A 
ATOM     16  C   UNL     1      -3.983  -5.507  -6.610  0.00  0.00    +0.073 A 
ATOM     17  O   UNL     1      -2.385  -4.394  -8.189  0.00  0.00    -0.395 OA
ATOM     18  C   UNL     1      -2.406  -4.380  -9.629  0.00  0.00    +0.589 C 
ATOM     19  O   UNL     1      -3.809  -4.329  -9.950  0.00  0.00    -0.395 OA
ATOM     20  F   UNL     1      -1.748  -3.247 -10.119  0.00  0.00    -0.125 F 
ATOM     21  F   UNL     1      -1.827  -5.546 -10.140  0.00  0.00    -0.125 F 
ENDBRANCH   9  11
ENDBRANCH   2   7
BRANCH   1  22
ATOM     22  N   UNL     1      -4.557  -5.125  -1.253  0.00  0.00    -0.325 N 
ATOM     23  H   UNL     1      -4.148  -4.605  -1.962  0.00  0.00    +0.148 HD
BRANCH  22  24
ATOM     24  C   UNL     1      -4.235  -4.835   0.147  0.00  0.00    +0.138 C 
BRANCH  24  27
ATOM     25  C   UNL     1      -3.135  -1.220   0.403  0.00  0.00    +0.126 A 
ATOM     26  C   UNL     1      -3.959  -2.342   0.339  0.00  0.00    +0.038 A 
ATOM     27  C   UNL     1      -3.381  -3.596   0.219  0.00  0.00    -0.027 A 
ATOM     28  C   UNL     1      -1.998  -3.684   0.168  0.00  0.00    +0.025 A 
ATOM     29  C   UNL     1      -1.240  -2.526   0.238  0.00  0.00    +0.112 A 
ATOM     30  N   UNL     1      -1.815  -1.348   0.346  0.00  0.00    -0.250 NA
BRANCH  25  33
ATOM     31  C   UNL     1      -3.541   2.549   0.715  0.00  0.00    +0.128 C 
ATOM     32  N   UNL     1      -2.946   1.217   0.589  0.00  0.00    -0.313 N 
ATOM     33  C   UNL     1      -3.737   0.127   0.531  0.00  0.00    +0.262 C 
ATOM     34  O   UNL     1      -4.945   0.251   0.585  0.00  0.00    -0.269 OA
ATOM     35  H   UNL     1      -1.982   1.119   0.546  0.00  0.00    +0.149 HD
ENDBRANCH  25  33
ENDBRANCH  24  27
ENDBRANCH  22  24
ENDBRANCH   1  22
TORSDOF 6
