REMARK  Name = CHEMBL200258
REMARK  4 active torsions:
REMARK  status: ('A' for Active; 'I' for Inactive)
REMARK    1  A    between atoms: C_4  and  C_7
REMARK    2  A    between atoms: C_10  and  C_21
REMARK    3  A    between atoms: C_11  and  C_13
REMARK    4  A    between atoms: C_17  and  O_19
REMARK                            x       y       z     vdW  Elec       q    Type
REMARK                         _______ _______ _______ _____ _____    ______ ____
ROOT
ATOM      1  C   UNL     1       3.696  -0.685  -0.037  0.00  0.00    +0.139 A 
ATOM      2  N   UNL     1       4.880  -0.120  -0.045  0.00  0.00    -0.226 NA
ATOM      3  H   UNL     1       3.134  -2.701  -0.033  0.00  0.00    +0.167 HD
ATOM      4  C   UNL     1       5.830  -1.070  -0.059  0.00  0.00    +0.115 A 
ATOM      5  C   UNL     1       5.195  -2.302  -0.060  0.00  0.00    +0.076 A 
ATOM      6  N   UNL     1       3.846  -2.042  -0.041  0.00  0.00    -0.337 N 
ENDROOT
BRANCH   4   7
ATOM      7  C   UNL     1       7.292  -0.842  -0.073  0.00  0.00    +0.096 A 
ATOM      8  C   UNL     1       7.821   0.352  -0.576  0.00  0.00    +0.050 A 
ATOM      9  C   UNL     1       9.192   0.520  -0.568  0.00  0.00    +0.116 A 
ATOM     10  N   UNL     1       9.961  -0.446  -0.088  0.00  0.00    -0.223 NA
ATOM     11  C   UNL     1       9.434  -1.567   0.383  0.00  0.00    +0.213 A 
ATOM     12  N   UNL     1       8.126  -1.768   0.400  0.00  0.00    -0.213 NA
ATOM     13  N   UNL     1      10.273  -2.552   0.875  0.00  0.00    -0.327 N 
ATOM     14  H   UNL     1      11.234  -2.416   0.873  0.00  0.00    +0.145 HD
ATOM     15  H   UNL     1       9.901  -3.377   1.223  0.00  0.00    +0.145 HD
ENDBRANCH   4   7
BRANCH   5  16
ATOM     16  C   UNL     1       5.840  -3.629  -0.073  0.00  0.00    +0.004 A 
ATOM     17  C   UNL     1       6.910  -3.880  -0.936  0.00  0.00    +0.011 A 
ATOM     18  C   UNL     1       7.511  -5.122  -0.946  0.00  0.00    +0.024 A 
ATOM     19  C   UNL     1       7.057  -6.121  -0.103  0.00  0.00    +0.082 A 
ATOM     20  C   UNL     1       5.993  -5.881   0.758  0.00  0.00    +0.136 A 
ATOM     21  C   UNL     1       5.386  -4.637   0.780  0.00  0.00    +0.057 A 
ATOM     22 CL   UNL     1       7.819  -7.681  -0.122  0.00  0.00    -0.080 Cl
BRANCH  20  23
ATOM     23  O   UNL     1       5.551  -6.867   1.583  0.00  0.00    -0.505 OA
ATOM     24  H   UNL     1       5.988  -6.884   2.445  0.00  0.00    +0.292 HD
ENDBRANCH  20  23
ENDBRANCH   5  16
BRANCH   1  28
ATOM     25  C   UNL     1      -0.017   1.379   0.010  0.00  0.00    +0.000 A 
ATOM     26  C   UNL     1       1.168   2.093   0.002  0.00  0.00    +0.001 A 
ATOM     27  C   UNL     1       2.377   1.429  -0.013  0.00  0.00    +0.011 A 
ATOM     28  C   UNL     1       2.403   0.034  -0.021  0.00  0.00    +0.017 A 
ATOM     29  C   UNL     1       1.204  -0.681  -0.013  0.00  0.00    +0.011 A 
ATOM     30  C   UNL     1       0.002  -0.004   0.002  0.00  0.00    +0.001 A 
ENDBRANCH   1  28
TORSDOF 4
