REMARK  Name = CHEMBL254966
REMARK  8 active torsions:
REMARK  status: ('A' for Active; 'I' for Inactive)
REMARK    1  A    between atoms: C_3  and  C_18
REMARK    2  A    between atoms: C_5  and  N_7
REMARK    3  A    between atoms: C_8  and  C_10
REMARK    4  A    between atoms: C_10  and  C_11
REMARK    5  A    between atoms: C_19  and  C_27
REMARK    6  A    between atoms: C_22  and  C_24
REMARK    7  A    between atoms: N_33  and  C_34
REMARK    8  A    between atoms: C_38  and  C_40
REMARK                            x       y       z     vdW  Elec       q    Type
REMARK                         _______ _______ _______ _____ _____    ______ ____
ROOT
ATOM      1  C   UNL     1       3.045   0.640  -0.263  0.00  0.00    +0.076 A 
ATOM      2  C   UNL     1       3.785   1.557   0.463  0.00  0.00    +0.115 A 
ATOM      3  N   UNL     1       5.083   1.357   0.163  0.00  0.00    -0.230 NA
ATOM      4  H   UNL     1       3.744  -0.826  -1.591  0.00  0.00    +0.167 HD
ATOM      5  C   UNL     1       5.186   0.382  -0.695  0.00  0.00    +0.111 A 
ATOM      6  N   UNL     1       3.950  -0.098  -0.985  0.00  0.00    -0.341 N 
ENDROOT
BRANCH   2   7
ATOM      7  C   UNL     1       3.249   2.572   1.397  0.00  0.00    +0.096 A 
ATOM      8  C   UNL     1       4.045   3.078   2.430  0.00  0.00    +0.050 A 
ATOM      9  C   UNL     1       3.501   4.025   3.277  0.00  0.00    +0.116 A 
ATOM     10  N   UNL     1       2.251   4.421   3.088  0.00  0.00    -0.223 NA
ATOM     11  C   UNL     1       1.519   3.925   2.102  0.00  0.00    +0.220 A 
ATOM     12  N   UNL     1       2.002   3.022   1.264  0.00  0.00    -0.213 NA
ATOM     13  N   UNL     1       0.216   4.368   1.940  0.00  0.00    -0.284 N 
ATOM     14  H   UNL     1      -0.357   3.955   1.275  0.00  0.00    +0.155 HD
BRANCH  13  15
ATOM     15  C   UNL     1      -0.273   5.409   2.736  0.00  0.00    +0.034 A 
ATOM     16  C   UNL     1       0.576   6.434   3.138  0.00  0.00    +0.023 A 
ATOM     17  C   UNL     1       0.098   7.464   3.925  0.00  0.00    +0.003 A 
ATOM     18  C   UNL     1      -1.226   7.483   4.317  0.00  0.00    +0.013 A 
ATOM     19  C   UNL     1      -2.086   6.458   3.919  0.00  0.00    +0.038 A 
ATOM     20  C   UNL     1      -1.605   5.421   3.119  0.00  0.00    +0.036 A 
BRANCH  19  21
ATOM     21  C   UNL     1      -3.504   6.475   4.338  0.00  0.00    +0.242 C 
ATOM     22  O   UNL     1      -4.251   5.582   3.990  0.00  0.00    -0.270 OA
ATOM     23  N   UNL     1      -3.968   7.481   5.105  0.00  0.00    -0.325 N 
ATOM     24  H   UNL     1      -3.371   8.194   5.383  0.00  0.00    +0.145 HD
ATOM     25  H   UNL     1      -4.898   7.492   5.380  0.00  0.00    +0.145 HD
ENDBRANCH  19  21
ENDBRANCH  13  15
ENDBRANCH   2   7
BRANCH   1  28
ATOM     26  C   UNL     1      -0.621   1.456  -0.331  0.00  0.00    +0.002 A 
ATOM     27  C   UNL     1       0.751   1.606  -0.335  0.00  0.00    +0.010 A 
ATOM     28  C   UNL     1       1.577   0.483  -0.258  0.00  0.00    +0.002 A 
ATOM     29  C   UNL     1       1.009  -0.790  -0.175  0.00  0.00    +0.033 A 
ATOM     30  C   UNL     1      -0.370  -0.929  -0.171  0.00  0.00    +0.034 A 
ATOM     31  C   UNL     1      -1.183   0.196  -0.249  0.00  0.00    +0.023 A 
BRANCH  30  32
ATOM     32  N   UNL     1      -0.944  -2.203  -0.089  0.00  0.00    -0.285 N 
ATOM     33  C   UNL     1      -0.336  -3.171   0.624  0.00  0.00    +0.222 C 
ATOM     34  O   UNL     1       0.663  -2.917   1.264  0.00  0.00    -0.275 OA
ATOM     35  H   UNL     1      -1.779  -2.389  -0.545  0.00  0.00    +0.155 HD
BRANCH  33  36
ATOM     36  C   UNL     1      -0.896  -4.570   0.626  0.00  0.00    +0.131 C 
BRANCH  36  37
ATOM     37  C   UNL     1      -0.037  -5.454   1.494  0.00  0.00    -0.039 A 
ATOM     38  C   UNL     1       1.037  -6.128   0.944  0.00  0.00    +0.005 A 
ATOM     39  C   UNL     1       1.825  -6.939   1.739  0.00  0.00    +0.020 A 
ATOM     40  C   UNL     1       1.538  -7.076   3.086  0.00  0.00    +0.041 A 
ATOM     41  C   UNL     1       0.462  -6.402   3.635  0.00  0.00    +0.020 A 
ATOM     42  C   UNL     1      -0.322  -5.587   2.840  0.00  0.00    +0.005 A 
ATOM     43 CL   UNL     1       2.526  -8.095   4.085  0.00  0.00    -0.084 Cl
ENDBRANCH  36  37
ENDBRANCH  33  36
ENDBRANCH  30  32
ENDBRANCH   1  28
BRANCH   5  44
ATOM     44  C   UNL     1       6.479  -0.137  -1.271  0.00  0.00    +0.055 C 
ATOM     45  C   UNL     1       6.449  -1.506  -1.952  0.00  0.00    +0.012 C 
ATOM     46  C   UNL     1       7.122  -1.345  -0.588  0.00  0.00    +0.012 C 
ENDBRANCH   5  44
TORSDOF 8
