REMARK  Name = CHEMBL1081818
REMARK  7 active torsions:
REMARK  status: ('A' for Active; 'I' for Inactive)
REMARK    1  A    between atoms: C_3  and  C_20
REMARK    2  A    between atoms: C_5  and  N_7
REMARK    3  A    between atoms: C_8  and  C_10
REMARK    4  A    between atoms: C_14  and  C_16
REMARK    5  A    between atoms: C_28  and  C_29
REMARK    6  A    between atoms: C_31  and  C_34
REMARK    7  A    between atoms: C_34  and  N_35
REMARK                            x       y       z     vdW  Elec       q    Type
REMARK                         _______ _______ _______ _____ _____    ______ ____
ROOT
ATOM      1  C   UNL     1       3.632   2.166  -0.405  0.00  0.00    +0.076 A 
ATOM      2  C   UNL     1       4.654   2.091   0.519  0.00  0.00    +0.048 A 
ATOM      3  C   UNL     1       5.826   2.819   0.299  0.00  0.00    +0.115 A 
ATOM      4  N   UNL     1       5.953   3.567  -0.774  0.00  0.00    -0.236 NA
ATOM      5  C   UNL     1       4.974   3.652  -1.680  0.00  0.00    +0.164 A 
ATOM      6  N   UNL     1       3.804   2.954  -1.518  0.00  0.00    -0.213 N 
ATOM      7  N   UNL     1       2.982   3.232  -2.615  0.00  0.00    -0.172 NA
ATOM      8  C   UNL     1       3.606   4.055  -3.424  0.00  0.00    +0.145 A 
ATOM      9  C   UNL     1       4.858   4.360  -2.882  0.00  0.00    +0.049 A 
ENDROOT
BRANCH   1  12
ATOM     10  C   UNL     1       0.005   1.380   0.175  0.00  0.00    +0.002 A 
ATOM     11  C   UNL     1       1.174   2.089  -0.011  0.00  0.00    +0.010 A 
ATOM     12  C   UNL     1       2.379   1.410  -0.204  0.00  0.00    +0.002 A 
ATOM     13  C   UNL     1       2.395   0.015  -0.207  0.00  0.00    +0.033 A 
ATOM     14  C   UNL     1       1.215  -0.688  -0.019  0.00  0.00    +0.034 A 
ATOM     15  C   UNL     1       0.021  -0.002   0.172  0.00  0.00    +0.023 A 
BRANCH  14  16
ATOM     16  N   UNL     1       1.226  -2.086  -0.021  0.00  0.00    -0.281 N 
ATOM     17  C   UNL     1       2.295  -2.753   0.459  0.00  0.00    +0.248 C 
ATOM     18  O   UNL     1       3.207  -2.143   0.980  0.00  0.00    -0.270 OA
ATOM     19  H   UNL     1       0.464  -2.577  -0.367  0.00  0.00    +0.155 HD
BRANCH  17  20
ATOM     20  C   UNL     1       2.357  -4.226   0.350  0.00  0.00    +0.038 A 
ATOM     21  C   UNL     1       1.313  -4.929  -0.254  0.00  0.00    +0.013 A 
ATOM     22  C   UNL     1       1.377  -6.303  -0.352  0.00  0.00    +0.001 A 
ATOM     23  C   UNL     1       2.473  -6.985   0.147  0.00  0.00    +0.012 A 
ATOM     24  C   UNL     1       3.511  -6.294   0.747  0.00  0.00    +0.056 A 
ATOM     25  C   UNL     1       3.462  -4.919   0.846  0.00  0.00    +0.025 A 
BRANCH  24  26
ATOM     26  C   UNL     1       4.701  -7.045   1.287  0.00  0.00    +0.417 C 
ATOM     27  F   UNL     1       4.526  -8.416   1.068  0.00  0.00    -0.166 F 
ATOM     28  F   UNL     1       5.861  -6.612   0.636  0.00  0.00    -0.166 F 
ATOM     29  F   UNL     1       4.819  -6.804   2.660  0.00  0.00    -0.166 F 
ENDBRANCH  24  26
ENDBRANCH  17  20
ENDBRANCH  14  16
ENDBRANCH   1  12
BRANCH   9  30
ATOM     30  C   UNL     1       5.881   5.254  -3.479  0.00  0.00    +0.025 A 
ATOM     31  C   UNL     1       6.377   5.234  -4.860  0.00  0.00    +0.051 A 
ATOM     32  C   UNL     1       7.288   6.218  -4.942  0.00  0.00    +0.089 A 
ATOM     33  O   UNL     1       7.385   6.824  -3.749  0.00  0.00    -0.469 OA
ATOM     34  C   UNL     1       6.547   6.264  -2.862  0.00  0.00    +0.203 A 
BRANCH  32  35
ATOM     35  C   UNL     1       8.073   6.583  -6.175  0.00  0.00    -0.003 C 
BRANCH  35  36
ATOM     36  N   UNL     1       7.334   7.591  -6.947  0.00  0.00    +0.384 N 
ATOM     37  C   UNL     1       7.303   8.879  -6.209  0.00  0.00    -0.078 C 
ATOM     38  C   UNL     1       7.028   9.920  -7.324  0.00  0.00    -0.020 C 
ATOM     39  C   UNL     1       7.844   9.371  -8.517  0.00  0.00    -0.020 C 
ATOM     40  C   UNL     1       8.032   7.872  -8.220  0.00  0.00    -0.078 C 
ATOM     41  H   UNL     1       6.395   7.270  -7.129  0.00  0.00    -0.081 HD
ENDBRANCH  35  36
ENDBRANCH  32  35
ENDBRANCH   9  30
TORSDOF 7
