REMARK  Name = CHEMBL496265
REMARK  7 active torsions:
REMARK  status: ('A' for Active; 'I' for Inactive)
REMARK    1  A    between atoms: C_1  and  C_2
REMARK    2  A    between atoms: C_2  and  N_3
REMARK    3  A    between atoms: C_5  and  C_25
REMARK    4  A    between atoms: C_6  and  C_8
REMARK    5  A    between atoms: C_12  and  N_14
REMARK    6  A    between atoms: N_17  and  C_18
REMARK    7  A    between atoms: C_18  and  C_19
REMARK                            x       y       z     vdW  Elec       q    Type
REMARK                         _______ _______ _______ _____ _____    ______ ____
ROOT
ATOM      1  C   UNL     1       1.448  -0.790  -4.765  0.00  0.00    +0.004 A 
ATOM      2  C   UNL     1       2.712  -0.919  -5.340  0.00  0.00    +0.010 A 
ATOM      3  C   UNL     1       2.852  -0.891  -6.713  0.00  0.00    +0.002 A 
ATOM      4  C   UNL     1       1.741  -0.738  -7.522  0.00  0.00    +0.023 A 
ATOM      5  C   UNL     1       0.478  -0.609  -6.958  0.00  0.00    +0.035 A 
ATOM      6  C   UNL     1       0.329  -0.641  -5.580  0.00  0.00    +0.033 A 
ENDROOT
BRANCH   5   7
ATOM      7  N   UNL     1      -0.643  -0.452  -7.780  0.00  0.00    -0.269 N 
ATOM      8  C   UNL     1      -1.666   0.331  -7.383  0.00  0.00    +0.304 C 
ATOM      9  O   UNL     1      -1.653   0.833  -6.276  0.00  0.00    -0.252 OA
ATOM     10  N   UNL     1      -2.702   0.559  -8.215  0.00  0.00    -0.295 N 
ATOM     11  H   UNL     1      -0.685  -0.908  -8.636  0.00  0.00    +0.156 HD
ATOM     12  H   UNL     1      -2.712   0.159  -9.098  0.00  0.00    +0.151 HD
BRANCH  10  13
ATOM     13  C   UNL     1      -3.813   1.411  -7.784  0.00  0.00    +0.141 C 
BRANCH  13  14
ATOM     14  C   UNL     1      -4.833   1.503  -8.889  0.00  0.00    -0.030 A 
ATOM     15  C   UNL     1      -4.734   2.502  -9.840  0.00  0.00    +0.005 A 
ATOM     16  C   UNL     1      -5.669   2.587 -10.854  0.00  0.00    +0.000 A 
ATOM     17  C   UNL     1      -6.705   1.673 -10.917  0.00  0.00    +0.000 A 
ATOM     18  C   UNL     1      -6.804   0.674  -9.966  0.00  0.00    +0.000 A 
ATOM     19  C   UNL     1      -5.866   0.586  -8.955  0.00  0.00    +0.005 A 
ENDBRANCH  13  14
ENDBRANCH  10  13
ENDBRANCH   5   7
BRANCH   1  23
ATOM     20  N   UNL     1       0.567  -1.234  -1.253  0.00  0.00    -0.271 N 
ATOM     21  C   UNL     1       1.649  -0.445  -1.106  0.00  0.00    +0.117 A 
ATOM     22  C   UNL     1       2.133  -0.164  -2.351  0.00  0.00    +0.028 A 
ATOM     23  C   UNL     1       1.296  -0.819  -3.290  0.00  0.00    +0.100 A 
ATOM     24  N   UNL     1       0.366  -1.462  -2.620  0.00  0.00    -0.171 NA
BRANCH  22  25
ATOM     25  C   UNL     1       3.315   0.672  -2.663  0.00  0.00    -0.002 A 
ATOM     26  C   UNL     1       4.600   0.272  -2.294  0.00  0.00    +0.029 A 
ATOM     27  C   UNL     1       5.676   1.082  -2.606  0.00  0.00    +0.114 A 
ATOM     28  N   UNL     1       5.521   2.225  -3.242  0.00  0.00    -0.237 NA
ATOM     29  C   UNL     1       4.326   2.662  -3.620  0.00  0.00    +0.139 A 
ATOM     30  C   UNL     1       3.180   1.895  -3.348  0.00  0.00    +0.026 A 
ATOM     31  C   UNL     1       2.047   2.640  -3.893  0.00  0.00    +0.029 A 
ATOM     32  C   UNL     1       2.545   3.760  -4.443  0.00  0.00    +0.085 A 
ATOM     33  N   UNL     1       3.905   3.792  -4.281  0.00  0.00    -0.346 N 
ATOM     34  H   UNL     1       4.486   4.501  -4.596  0.00  0.00    +0.167 HD
ENDBRANCH  22  25
BRANCH  20  36
ATOM     35  C   UNL     1      -1.719  -1.384  -0.397  0.00  0.00    +0.029 C 
ATOM     36  C   UNL     1      -0.256  -1.769  -0.166  0.00  0.00    +0.140 C 
ENDBRANCH  20  36
ENDBRANCH   1  23
TORSDOF 6
