REMARK  Name = CHEMBL549476
REMARK  7 active torsions:
REMARK  status: ('A' for Active; 'I' for Inactive)
REMARK    1  A    between atoms: C_1  and  O_2
REMARK    2  A    between atoms: O_2  and  C_3
REMARK    3  A    between atoms: C_3  and  C_5
REMARK    4  A    between atoms: C_13  and  C_14
REMARK    5  A    between atoms: C_18  and  N_20
REMARK    6  A    between atoms: C_21  and  C_23
REMARK    7  A    between atoms: C_27  and  C_29
REMARK                            x       y       z     vdW  Elec       q    Type
REMARK                         _______ _______ _______ _____ _____    ______ ____
ROOT
ATOM      1  C   UNL     1      -2.665  -6.671   0.065  0.00  0.00    +0.002 A 
ATOM      2  C   UNL     1      -1.829  -7.144   1.079  0.00  0.00    +0.010 A 
ATOM      3  C   UNL     1      -1.286  -8.409   0.990  0.00  0.00    +0.002 A 
ATOM      4  C   UNL     1      -1.565  -9.212  -0.100  0.00  0.00    +0.023 A 
ATOM      5  C   UNL     1      -2.396  -8.751  -1.114  0.00  0.00    +0.034 A 
ATOM      6  C   UNL     1      -2.952  -7.484  -1.032  0.00  0.00    +0.033 A 
ENDROOT
BRANCH   1  15
ATOM      7  C   UNL     1      -1.948  -2.036   0.138  0.00  0.00    +0.123 A 
ATOM      8  C   UNL     1      -0.760  -2.780   0.011  0.00  0.00    +0.152 A 
ATOM      9  N   UNL     1      -1.061  -4.052  -0.001  0.00  0.00    -0.172 NA
ATOM     10  N   UNL     1      -2.446  -4.206   0.118  0.00  0.00    -0.213 N 
ATOM     11  C   UNL     1      -3.007  -2.964   0.211  0.00  0.00    +0.170 A 
ATOM     12  N   UNL     1      -4.325  -2.814   0.339  0.00  0.00    -0.235 NA
ATOM     13  C   UNL     1      -5.130  -3.854   0.384  0.00  0.00    +0.115 A 
ATOM     14  C   UNL     1      -4.613  -5.147   0.298  0.00  0.00    +0.048 A 
ATOM     15  C   UNL     1      -3.249  -5.317   0.157  0.00  0.00    +0.076 A 
BRANCH   7  16
ATOM     16  C   UNL     1      -2.062  -0.578   0.191  0.00  0.00    +0.344 C 
ATOM     17  O   UNL     1      -3.155  -0.057   0.310  0.00  0.00    -0.245 OA
BRANCH  16  19
ATOM     18  C   UNL     1      -1.139   1.604   0.168  0.00  0.00    +0.280 C 
ATOM     19  O   UNL     1      -0.955   0.188   0.109  0.00  0.00    -0.464 OA
ENDBRANCH  16  19
ENDBRANCH   7  16
ENDBRANCH   1  15
BRANCH   5  20
ATOM     20  N   UNL     1      -2.675  -9.568  -2.215  0.00  0.00    -0.281 N 
ATOM     21  C   UNL     1      -2.862  -9.018  -3.431  0.00  0.00    +0.248 C 
ATOM     22  O   UNL     1      -2.694  -7.825  -3.592  0.00  0.00    -0.270 OA
ATOM     23  H   UNL     1      -2.733 -10.530  -2.103  0.00  0.00    +0.155 HD
BRANCH  21  24
ATOM     24  C   UNL     1      -3.271  -9.867  -4.571  0.00  0.00    +0.038 A 
ATOM     25  C   UNL     1      -3.470 -11.236  -4.389  0.00  0.00    +0.013 A 
ATOM     26  C   UNL     1      -3.852 -12.022  -5.456  0.00  0.00    +0.001 A 
ATOM     27  C   UNL     1      -4.038 -11.456  -6.705  0.00  0.00    +0.012 A 
ATOM     28  C   UNL     1      -3.842 -10.099  -6.892  0.00  0.00    +0.056 A 
ATOM     29  C   UNL     1      -3.466  -9.301  -5.831  0.00  0.00    +0.025 A 
BRANCH  28  30
ATOM     30  C   UNL     1      -4.046  -9.491  -8.256  0.00  0.00    +0.417 C 
ATOM     31  F   UNL     1      -4.427 -10.489  -9.159  0.00  0.00    -0.166 F 
ATOM     32  F   UNL     1      -5.048  -8.517  -8.187  0.00  0.00    -0.166 F 
ATOM     33  F   UNL     1      -2.852  -8.903  -8.687  0.00  0.00    -0.166 F 
ENDBRANCH  28  30
ENDBRANCH  21  24
ENDBRANCH   5  20
TORSDOF 6
