REMARK  Name = CHEMBL430413
REMARK  7 active torsions:
REMARK  status: ('A' for Active; 'I' for Inactive)
REMARK    1  A    between atoms: C_1  and  N_2
REMARK    2  A    between atoms: C_7  and  C_9
REMARK    3  A    between atoms: C_10  and  C_18
REMARK    4  A    between atoms: C_12  and  C_15
REMARK    5  A    between atoms: C_22  and  N_24
REMARK    6  A    between atoms: N_27  and  C_28
REMARK    7  A    between atoms: C_32  and  C_34
REMARK                            x       y       z     vdW  Elec       q    Type
REMARK                         _______ _______ _______ _____ _____    ______ ____
ROOT
ATOM      1  C   UNL     1       0.109  -4.232  -0.323  0.00  0.00    +0.002 A 
ATOM      2  C   UNL     1      -0.030  -3.333  -1.383  0.00  0.00    +0.010 A 
ATOM      3  C   UNL     1       1.042  -3.071  -2.210  0.00  0.00    +0.002 A 
ATOM      4  C   UNL     1       2.256  -3.697  -1.996  0.00  0.00    +0.023 A 
ATOM      5  C   UNL     1       2.405  -4.594  -0.944  0.00  0.00    +0.035 A 
ATOM      6  C   UNL     1       1.336  -4.859  -0.103  0.00  0.00    +0.033 A 
ENDROOT
BRANCH   1   8
ATOM      7  C   UNL     1      -1.908  -3.590   1.116  0.00  0.00    +0.115 A 
ATOM      8  C   UNL     1      -1.037  -4.514   0.565  0.00  0.00    +0.076 A 
ATOM      9  N   UNL     1      -1.453  -5.745   1.009  0.00  0.00    -0.341 N 
ATOM     10  C   UNL     1      -2.538  -5.545   1.798  0.00  0.00    +0.111 A 
ATOM     11  N   UNL     1      -2.799  -4.271   1.863  0.00  0.00    -0.230 NA
ATOM     12  H   UNL     1      -1.046  -6.600   0.797  0.00  0.00    +0.167 HD
BRANCH   7  19
ATOM     13  C   UNL     1       0.588   1.847  -0.083  0.00  0.00    +0.128 C 
ATOM     14  N   UNL     1       0.521   0.395   0.105  0.00  0.00    -0.317 N 
ATOM     15  C   UNL     1      -0.681  -0.205   0.436  0.00  0.00    +0.215 A 
ATOM     16  N   UNL     1      -1.763   0.549   0.572  0.00  0.00    -0.223 NA
ATOM     17  C   UNL     1      -2.933   0.013   0.887  0.00  0.00    +0.116 A 
ATOM     18  C   UNL     1      -3.023  -1.353   1.076  0.00  0.00    +0.050 A 
ATOM     19  C   UNL     1      -1.865  -2.124   0.925  0.00  0.00    +0.096 A 
ATOM     20  N   UNL     1      -0.723  -1.517   0.602  0.00  0.00    -0.213 NA
ATOM     21  H   UNL     1       1.320  -0.145  -0.002  0.00  0.00    +0.149 HD
ENDBRANCH   7  19
BRANCH  10  22
ATOM     22  C   UNL     1      -3.317  -6.630   2.498  0.00  0.00    +0.055 C 
ATOM     23  C   UNL     1      -2.654  -8.002   2.630  0.00  0.00    +0.012 C 
ATOM     24  C   UNL     1      -2.803  -7.103   3.859  0.00  0.00    +0.012 C 
ENDBRANCH  10  22
ENDBRANCH   1   8
BRANCH   5  25
ATOM     25  N   UNL     1       3.635  -5.226  -0.732  0.00  0.00    -0.269 N 
ATOM     26  C   UNL     1       3.673  -6.481  -0.243  0.00  0.00    +0.308 C 
ATOM     27  O   UNL     1       2.640  -7.099  -0.074  0.00  0.00    -0.252 OA
ATOM     28  N   UNL     1       4.856  -7.051   0.060  0.00  0.00    -0.269 N 
ATOM     29  H   UNL     1       4.461  -4.760  -0.937  0.00  0.00    +0.156 HD
ATOM     30  H   UNL     1       5.674  -6.534  -0.003  0.00  0.00    +0.156 HD
BRANCH  28  31
ATOM     31  C   UNL     1       4.905  -8.390   0.465  0.00  0.00    +0.035 A 
ATOM     32  C   UNL     1       4.000  -9.307  -0.054  0.00  0.00    +0.025 A 
ATOM     33  C   UNL     1       4.050 -10.627   0.348  0.00  0.00    +0.022 A 
ATOM     34  C   UNL     1       5.001 -11.037   1.266  0.00  0.00    +0.053 A 
ATOM     35  C   UNL     1       5.904 -10.126   1.784  0.00  0.00    +0.075 A 
ATOM     36  C   UNL     1       5.862  -8.805   1.381  0.00  0.00    +0.037 A 
ATOM     37 CL   UNL     1       5.060 -12.698   1.769  0.00  0.00    -0.083 Cl
BRANCH  35  38
ATOM     38  C   UNL     1       6.938 -10.576   2.784  0.00  0.00    +0.419 C 
ATOM     39  F   UNL     1       7.729  -9.485   3.159  0.00  0.00    -0.166 F 
ATOM     40  F   UNL     1       6.298 -11.098   3.913  0.00  0.00    -0.166 F 
ATOM     41  F   UNL     1       7.745 -11.562   2.208  0.00  0.00    -0.166 F 
ENDBRANCH  35  38
ENDBRANCH  28  31
ENDBRANCH   5  25
TORSDOF 6
