REMARK  Name = CHEMBL373011
REMARK  4 active torsions:
REMARK  status: ('A' for Active; 'I' for Inactive)
REMARK    1  A    between atoms: C_4  and  C_7
REMARK    2  A    between atoms: C_10  and  C_21
REMARK    3  A    between atoms: C_11  and  C_13
REMARK    4  A    between atoms: C_17  and  O_19
REMARK                            x       y       z     vdW  Elec       q    Type
REMARK                         _______ _______ _______ _____ _____    ______ ____
ROOT
ATOM      1  C   UNL     1       3.700  -0.689   0.071  0.00  0.00    +0.139 A 
ATOM      2  N   UNL     1       3.858  -2.044   0.066  0.00  0.00    -0.337 N 
ATOM      3  H   UNL     1       3.156  -2.706   0.166  0.00  0.00    +0.167 HD
ATOM      4  C   UNL     1       5.200  -2.296  -0.108  0.00  0.00    +0.074 A 
ATOM      5  C   UNL     1       5.820  -1.061  -0.204  0.00  0.00    +0.097 A 
ATOM      6  N   UNL     1       4.872  -0.118  -0.095  0.00  0.00    -0.227 NA
ENDROOT
BRANCH   5   7
ATOM      7  C   UNL     1       7.270  -0.824  -0.399  0.00  0.00    +0.006 A 
ATOM      8  C   UNL     1       7.988  -1.592  -1.315  0.00  0.00    +0.012 A 
ATOM      9  C   UNL     1       9.338  -1.369  -1.495  0.00  0.00    +0.024 A 
ATOM     10  C   UNL     1       9.983  -0.385  -0.767  0.00  0.00    +0.082 A 
ATOM     11  C   UNL     1       9.275   0.385   0.147  0.00  0.00    +0.136 A 
ATOM     12  C   UNL     1       7.919   0.172   0.329  0.00  0.00    +0.057 A 
ATOM     13 CL   UNL     1      11.681  -0.111  -0.998  0.00  0.00    -0.080 Cl
BRANCH  11  14
ATOM     14  O   UNL     1       9.913   1.351   0.860  0.00  0.00    -0.505 OA
ATOM     15  H   UNL     1       9.916   2.218   0.431  0.00  0.00    +0.292 HD
ENDBRANCH  11  14
ENDBRANCH   5   7
BRANCH   1  19
ATOM     16  C   UNL     1       0.007   1.357   0.532  0.00  0.00    +0.000 A 
ATOM     17  C   UNL     1       1.177   2.077   0.365  0.00  0.00    +0.001 A 
ATOM     18  C   UNL     1       2.380   1.418   0.215  0.00  0.00    +0.011 A 
ATOM     19  C   UNL     1       2.415   0.023   0.232  0.00  0.00    +0.017 A 
ATOM     20  C   UNL     1       1.231  -0.697   0.402  0.00  0.00    +0.011 A 
ATOM     21  C   UNL     1       0.035  -0.026   0.551  0.00  0.00    +0.001 A 
ENDBRANCH   1  19
BRANCH   4  22
ATOM     22  C   UNL     1       5.849  -3.619  -0.179  0.00  0.00    +0.003 A 
ATOM     23  C   UNL     1       7.002  -3.897   0.569  0.00  0.00    +0.030 A 
ATOM     24  C   UNL     1       7.575  -5.147   0.472  0.00  0.00    +0.111 A 
ATOM     25  N   UNL     1       7.053  -6.074  -0.309  0.00  0.00    -0.263 NA
ATOM     26  C   UNL     1       5.970  -5.854  -1.030  0.00  0.00    +0.111 A 
ATOM     27  C   UNL     1       5.328  -4.635  -0.991  0.00  0.00    +0.030 A 
ENDBRANCH   4  22
TORSDOF 4
