REMARK  Name = CHEMBL476732
REMARK  5 active torsions:
REMARK  status: ('A' for Active; 'I' for Inactive)
REMARK    1  A    between atoms: C_6  and  C_7
REMARK    2  A    between atoms: C_9  and  C_18
REMARK    3  A    between atoms: C_11  and  C_12
REMARK    4  A    between atoms: C_18  and  N_19
REMARK    5  A    between atoms: N_28  and  O_29
REMARK                            x       y       z     vdW  Elec       q    Type
REMARK                         _______ _______ _______ _____ _____    ______ ____
ROOT
ATOM      1  C   UNL     1      -1.334  -0.671  -0.065  0.00  0.00    +0.028 A 
ATOM      2  C   UNL     1      -1.709  -1.706  -0.961  0.00  0.00    +0.052 A 
ATOM      3  C   UNL     1      -2.848  -2.241  -0.489  0.00  0.00    +0.090 A 
ATOM      4  O   UNL     1      -3.203  -1.605   0.639  0.00  0.00    -0.461 OA
ATOM      5  C   UNL     1      -2.299  -0.649   0.926  0.00  0.00    +0.143 A 
ENDROOT
BRANCH   1  11
ATOM      6  C   UNL     1      -0.297   1.593  -0.175  0.00  0.00    +0.009 A 
ATOM      7  C   UNL     1       0.808   2.405  -0.271  0.00  0.00    +0.010 A 
ATOM      8  C   UNL     1       2.091   1.845  -0.359  0.00  0.00    +0.003 A 
ATOM      9  C   UNL     1       2.240   0.459  -0.350  0.00  0.00    -0.037 A 
ATOM     10  C   UNL     1       1.131  -0.354  -0.254  0.00  0.00    +0.013 A 
ATOM     11  C   UNL     1      -0.145   0.205  -0.167  0.00  0.00    -0.014 A 
ATOM     12  C   UNL     1       3.705   0.105  -0.455  0.00  0.00    +0.042 C 
ATOM     13  C   UNL     1       4.466   1.435  -0.532  0.00  0.00    +0.064 C 
ATOM     14  C   UNL     1       3.406   2.508  -0.468  0.00  0.00    +0.088 C 
ATOM     15  N   UNL     1       3.613   3.785  -0.502  0.00  0.00    -0.092 NA
BRANCH  15  16
ATOM     16  O   UNL     1       4.934   4.285  -0.609  0.00  0.00    -0.409 OA
ATOM     17  H   UNL     1       4.988   5.250  -0.627  0.00  0.00    +0.328 HD
ENDBRANCH  15  16
ENDBRANCH   1  11
BRANCH   5  18
ATOM     18  C   UNL     1      -2.334   0.260   2.086  0.00  0.00    +0.021 A 
ATOM     19  C   UNL     1      -3.515   0.925   2.445  0.00  0.00    +0.031 A 
ATOM     20  C   UNL     1      -3.502   1.766   3.537  0.00  0.00    +0.111 A 
ATOM     21  N   UNL     1      -2.399   1.949   4.240  0.00  0.00    -0.263 NA
ATOM     22  C   UNL     1      -1.266   1.343   3.937  0.00  0.00    +0.111 A 
ATOM     23  C   UNL     1      -1.189   0.480   2.864  0.00  0.00    +0.031 A 
ENDBRANCH   5  18
BRANCH   3  24
ATOM     24  C   UNL     1      -3.608  -3.376  -1.127  0.00  0.00    -0.003 C 
BRANCH  24  25
ATOM     25  N   UNL     1      -3.121  -4.653  -0.591  0.00  0.00    +0.387 N 
ATOM     26  C   UNL     1      -1.721  -4.851  -0.992  0.00  0.00    -0.050 C 
ATOM     27  C   UNL     1      -1.215  -6.183  -0.432  0.00  0.00    +0.141 C 
ATOM     28  O   UNL     1      -2.052  -7.242  -0.906  0.00  0.00    -0.383 OA
ATOM     29  C   UNL     1      -3.431  -7.082  -0.561  0.00  0.00    +0.141 C 
ATOM     30  C   UNL     1      -3.941  -5.752  -1.121  0.00  0.00    -0.050 C 
ATOM     31  H   UNL     1      -3.184  -4.642   0.416  0.00  0.00    -0.081 HD
ENDBRANCH  24  25
ENDBRANCH   3  24
TORSDOF 5
