REMARK  Name = CHEMBL1076541
REMARK  9 active torsions:
REMARK  status: ('A' for Active; 'I' for Inactive)
REMARK    1  A    between atoms: C_1  and  C_2
REMARK    2  A    between atoms: C_2  and  N_3
REMARK    3  A    between atoms: N_6  and  C_9
REMARK    4  A    between atoms: C_9  and  C_10
REMARK    5  A    between atoms: C_12  and  C_15
REMARK    6  A    between atoms: C_23  and  C_24
REMARK    7  A    between atoms: C_28  and  N_30
REMARK    8  A    between atoms: C_31  and  C_33
REMARK    9  A    between atoms: C_37  and  C_39
REMARK                            x       y       z     vdW  Elec       q    Type
REMARK                         _______ _______ _______ _____ _____    ______ ____
ROOT
ATOM      1  C   UNL     1       0.510  -7.547  -5.991  0.00  0.00    +0.049 A 
ATOM      2  C   UNL     1      -0.821  -7.678  -5.587  0.00  0.00    +0.145 A 
ATOM      3  N   UNL     1      -1.294  -8.813  -6.045  0.00  0.00    -0.172 NA
ATOM      4  N   UNL     1      -0.293  -9.471  -6.766  0.00  0.00    -0.213 N 
ATOM      5  C   UNL     1       0.831  -8.684  -6.741  0.00  0.00    +0.164 A 
ATOM      6  N   UNL     1       1.950  -9.069  -7.362  0.00  0.00    -0.236 NA
ATOM      7  C   UNL     1       2.010 -10.207  -8.017  0.00  0.00    +0.115 A 
ATOM      8  C   UNL     1       0.894 -11.047  -8.079  0.00  0.00    +0.048 A 
ATOM      9  C   UNL     1      -0.267 -10.671  -7.437  0.00  0.00    +0.076 A 
ENDROOT
BRANCH   9  10
ATOM     10  C   UNL     1      -1.466 -11.532  -7.484  0.00  0.00    +0.002 A 
ATOM     11  C   UNL     1      -2.616 -11.097  -8.147  0.00  0.00    +0.010 A 
ATOM     12  C   UNL     1      -3.735 -11.904  -8.189  0.00  0.00    +0.002 A 
ATOM     13  C   UNL     1      -3.722 -13.144  -7.578  0.00  0.00    +0.023 A 
ATOM     14  C   UNL     1      -2.583 -13.586  -6.916  0.00  0.00    +0.034 A 
ATOM     15  C   UNL     1      -1.452 -12.786  -6.872  0.00  0.00    +0.033 A 
BRANCH  14  16
ATOM     16  N   UNL     1      -2.576 -14.842  -6.298  0.00  0.00    -0.281 N 
ATOM     17  C   UNL     1      -1.864 -15.034  -5.170  0.00  0.00    +0.248 C 
ATOM     18  O   UNL     1      -1.306 -14.095  -4.636  0.00  0.00    -0.270 OA
ATOM     19  H   UNL     1      -3.083 -15.574  -6.682  0.00  0.00    +0.155 HD
BRANCH  17  20
ATOM     20  C   UNL     1      -1.761 -16.386  -4.583  0.00  0.00    +0.038 A 
ATOM     21  C   UNL     1      -2.395 -17.468  -5.197  0.00  0.00    +0.013 A 
ATOM     22  C   UNL     1      -2.295 -18.727  -4.644  0.00  0.00    +0.001 A 
ATOM     23  C   UNL     1      -1.567 -18.920  -3.482  0.00  0.00    +0.012 A 
ATOM     24  C   UNL     1      -0.937 -17.853  -2.868  0.00  0.00    +0.056 A 
ATOM     25  C   UNL     1      -1.024 -16.589  -3.414  0.00  0.00    +0.025 A 
BRANCH  24  26
ATOM     26  C   UNL     1      -0.147 -18.072  -1.603  0.00  0.00    +0.417 C 
ATOM     27  F   UNL     1      -0.199 -19.425  -1.250  0.00  0.00    -0.166 F 
ATOM     28  F   UNL     1       1.184 -17.696  -1.813  0.00  0.00    -0.166 F 
ATOM     29  F   UNL     1      -0.693 -17.299  -0.573  0.00  0.00    -0.166 F 
ENDBRANCH  24  26
ENDBRANCH  17  20
ENDBRANCH  14  16
ENDBRANCH   9  10
BRANCH   1  32
ATOM     30  C   UNL     1       2.233  -4.330  -5.458  0.00  0.00    +0.119 A 
ATOM     31  C   UNL     1       1.130  -4.982  -5.864  0.00  0.00    +0.054 A 
ATOM     32  C   UNL     1       1.414  -6.410  -5.686  0.00  0.00    +0.025 A 
ATOM     33  C   UNL     1       2.674  -6.477  -5.185  0.00  0.00    +0.204 A 
ATOM     34  O   UNL     1       3.149  -5.227  -5.061  0.00  0.00    -0.466 OA
BRANCH  30  35
ATOM     35  C   UNL     1       2.415  -2.834  -5.456  0.00  0.00    +0.158 C 
BRANCH  35  39
ATOM     36  N   UNL     1       2.282  -0.736  -1.789  0.00  0.00    +0.381 N 
ATOM     37  C   UNL     1       1.388  -0.297  -2.868  0.00  0.00    -0.063 C 
ATOM     38  C   UNL     1       1.910  -0.821  -4.208  0.00  0.00    +0.066 C 
ATOM     39  N   UNL     1       1.972  -2.289  -4.166  0.00  0.00    -0.299 NA
ATOM     40  C   UNL     1       2.844  -2.744  -3.074  0.00  0.00    +0.066 C 
ATOM     41  C   UNL     1       2.315  -2.204  -1.744  0.00  0.00    -0.063 C 
ATOM     42  H   UNL     1       3.213  -0.384  -1.959  0.00  0.00    -0.082 HD
BRANCH  36  44
ATOM     43  C   UNL     1       1.875   1.310  -0.506  0.00  0.00    -0.017 C 
ATOM     44  C   UNL     1       1.791  -0.218  -0.505  0.00  0.00    -0.082 C 
ENDBRANCH  36  44
ENDBRANCH  35  39
ENDBRANCH  30  35
ENDBRANCH   1  32
TORSDOF 8
