REMARK  Name = CHEMBL166031
REMARK  7 active torsions:
REMARK  status: ('A' for Active; 'I' for Inactive)
REMARK    1  A    between atoms: C_1  and  C_2
REMARK    2  A    between atoms: C_2  and  C_3
REMARK    3  A    between atoms: C_2  and  C_4
REMARK    4  A    between atoms: C_2  and  C_5
REMARK    5  A    between atoms: N_13  and  C_14
REMARK    6  A    between atoms: C_17  and  O_20
REMARK    7  A    between atoms: O_20  and  C_21
REMARK                            x       y       z     vdW  Elec       q    Type
REMARK                         _______ _______ _______ _____ _____    ______ ____
ROOT
ATOM      1  C   UNL     1       0.083   2.533  -2.643  0.00  0.00    +0.144 A 
ATOM      2  C   UNL     1       1.402   2.273  -2.610  0.00  0.00    +0.092 A 
ATOM      3  C   UNL     1       1.611   0.994  -3.173  0.00  0.00    +0.169 A 
ATOM      4  N   UNL     1       0.446   0.516  -3.527  0.00  0.00    -0.063 NA
ATOM      5  O   UNL     1      -0.538   1.478  -3.193  0.00  0.00    -0.357 OA
ATOM      6  N   UNL     1       2.841   0.354  -3.325  0.00  0.00    -0.251 N 
ATOM      7  C   UNL     1       3.972   0.963  -2.915  0.00  0.00    +0.309 C 
ATOM      8  O   UNL     1       3.919   2.069  -2.413  0.00  0.00    -0.252 OA
ATOM      9  N   UNL     1       5.161   0.345  -3.062  0.00  0.00    -0.269 N 
ATOM     10  H   UNL     1       2.883  -0.528  -3.725  0.00  0.00    +0.158 HD
ATOM     11  H   UNL     1       5.196  -0.569  -3.383  0.00  0.00    +0.156 HD
ENDROOT
BRANCH   9  12
ATOM     12  C   UNL     1       6.346   1.024  -2.750  0.00  0.00    +0.035 A 
ATOM     13  C   UNL     1       7.492   0.801  -3.501  0.00  0.00    +0.027 A 
ATOM     14  C   UNL     1       8.660   1.470  -3.193  0.00  0.00    +0.048 A 
ATOM     15  C   UNL     1       8.688   2.366  -2.133  0.00  0.00    +0.129 A 
ATOM     16  C   UNL     1       7.543   2.589  -1.383  0.00  0.00    +0.048 A 
ATOM     17  C   UNL     1       6.373   1.924  -1.693  0.00  0.00    +0.027 A 
BRANCH  15  18
ATOM     18  O   UNL     1       9.839   3.024  -1.831  0.00  0.00    -0.456 OA
BRANCH  18  19
ATOM     19  C   UNL     1      10.597   2.546  -0.812  0.00  0.00    +0.131 A 
ATOM     20  C   UNL     1      11.719   3.243  -0.368  0.00  0.00    +0.066 A 
ATOM     21  C   UNL     1      12.464   2.723   0.670  0.00  0.00    +0.114 A 
ATOM     22  N   UNL     1      12.127   1.582   1.240  0.00  0.00    -0.263 NA
ATOM     23  C   UNL     1      11.072   0.893   0.848  0.00  0.00    +0.114 A 
ATOM     24  C   UNL     1      10.271   1.348  -0.180  0.00  0.00    +0.066 A 
ENDBRANCH  18  19
ENDBRANCH  15  18
ENDBRANCH   9  12
BRANCH   1  26
ATOM     25  C   UNL     1      -0.040   4.995  -2.912  0.00  0.00    +0.019 C 
ATOM     26  C   UNL     1      -0.583   3.789  -2.143  0.00  0.00    +0.023 C 
ATOM     27  C   UNL     1      -0.290   3.962  -0.651  0.00  0.00    +0.019 C 
ATOM     28  C   UNL     1      -2.094   3.685  -2.357  0.00  0.00    +0.019 C 
ENDBRANCH   1  26
TORSDOF 4
