REMARK  Name = CHEMBL1080656
REMARK  9 active torsions:
REMARK  status: ('A' for Active; 'I' for Inactive)
REMARK    1  A    between atoms: C_3  and  C_20
REMARK    2  A    between atoms: C_5  and  N_7
REMARK    3  A    between atoms: C_8  and  C_10
REMARK    4  A    between atoms: C_14  and  C_16
REMARK    5  A    between atoms: C_28  and  C_29
REMARK    6  A    between atoms: C_30  and  C_31
REMARK    7  A    between atoms: C_31  and  C_32
REMARK    8  A    between atoms: C_32  and  C_33
REMARK    9  A    between atoms: C_33  and  N_34
REMARK                            x       y       z     vdW  Elec       q    Type
REMARK                         _______ _______ _______ _____ _____    ______ ____
ROOT
ATOM      1  C   UNL     1       3.669   2.162   0.011  0.00  0.00    +0.076 A 
ATOM      2  C   UNL     1       4.538   2.075   1.080  0.00  0.00    +0.048 A 
ATOM      3  C   UNL     1       5.731   2.801   1.048  0.00  0.00    +0.115 A 
ATOM      4  N   UNL     1       6.021   3.557   0.013  0.00  0.00    -0.235 NA
ATOM      5  C   UNL     1       5.193   3.654  -1.029  0.00  0.00    +0.172 A 
ATOM      6  N   UNL     1       4.011   2.959  -1.055  0.00  0.00    -0.213 N 
ATOM      7  N   UNL     1       3.366   3.249  -2.261  0.00  0.00    -0.172 NA
ATOM      8  C   UNL     1       4.103   4.077  -2.960  0.00  0.00    +0.153 A 
ATOM      9  C   UNL     1       5.263   4.374  -2.232  0.00  0.00    +0.089 A 
ENDROOT
BRANCH   1  12
ATOM     10  C   UNL     1      -0.005   1.382   0.019  0.00  0.00    +0.002 A 
ATOM     11  C   UNL     1       1.180   2.089   0.021  0.00  0.00    +0.010 A 
ATOM     12  C   UNL     1       2.399   1.408   0.009  0.00  0.00    +0.002 A 
ATOM     13  C   UNL     1       2.413   0.013  -0.005  0.00  0.00    +0.033 A 
ATOM     14  C   UNL     1       1.217  -0.688  -0.007  0.00  0.00    +0.034 A 
ATOM     15  C   UNL     1       0.009  -0.000   0.005  0.00  0.00    +0.023 A 
BRANCH  14  16
ATOM     16  N   UNL     1       1.226  -2.086  -0.021  0.00  0.00    -0.281 N 
ATOM     17  C   UNL     1       2.182  -2.747  -0.704  0.00  0.00    +0.248 C 
ATOM     18  O   UNL     1       3.084  -2.131  -1.237  0.00  0.00    -0.270 OA
ATOM     19  H   UNL     1       0.544  -2.580   0.460  0.00  0.00    +0.155 HD
BRANCH  17  20
ATOM     20  C   UNL     1       2.133  -4.221  -0.804  0.00  0.00    +0.038 A 
ATOM     21  C   UNL     1       1.095  -4.931  -0.199  0.00  0.00    +0.013 A 
ATOM     22  C   UNL     1       1.054  -6.306  -0.297  0.00  0.00    +0.001 A 
ATOM     23  C   UNL     1       2.041  -6.982  -0.993  0.00  0.00    +0.012 A 
ATOM     24  C   UNL     1       3.072  -6.285  -1.596  0.00  0.00    +0.056 A 
ATOM     25  C   UNL     1       3.121  -4.909  -1.510  0.00  0.00    +0.025 A 
BRANCH  24  26
ATOM     26  C   UNL     1       4.142  -7.030  -2.353  0.00  0.00    +0.417 C 
ATOM     27  F   UNL     1       3.877  -8.402  -2.305  0.00  0.00    -0.166 F 
ATOM     28  F   UNL     1       4.153  -6.603  -3.685  0.00  0.00    -0.166 F 
ATOM     29  F   UNL     1       5.388  -6.775  -1.771  0.00  0.00    -0.166 F 
ENDBRANCH  24  26
ENDBRANCH  17  20
ENDBRANCH  14  16
ENDBRANCH   1  12
BRANCH   9  30
ATOM     30  C   UNL     1       6.327   5.239  -2.644  0.00  0.00    -0.061 C 
ATOM     31  C   UNL     1       7.200   5.948  -2.982  0.00  0.00    -0.097 C 
BRANCH  31  32
ATOM     32  C   UNL     1       8.294   6.837  -3.405  0.00  0.00    +0.087 C 
BRANCH  32  33
ATOM     33  C   UNL     1       7.971   7.423  -4.782  0.00  0.00    -0.006 C 
BRANCH  33  34
ATOM     34  C   UNL     1       9.109   8.347  -5.222  0.00  0.00    -0.078 C 
BRANCH  34  35
ATOM     35  N   UNL     1       8.799   8.909  -6.543  0.00  0.00    +0.383 N 
ATOM     36  C   UNL     1       8.768   7.830  -7.540  0.00  0.00    -0.050 C 
ATOM     37  C   UNL     1       8.445   8.418  -8.916  0.00  0.00    +0.141 C 
ATOM     38  O   UNL     1       9.422   9.410  -9.246  0.00  0.00    -0.383 OA
ATOM     39  C   UNL     1       9.506  10.471  -8.291  0.00  0.00    +0.141 C 
ATOM     40  C   UNL     1       9.831   9.887  -6.914  0.00  0.00    -0.050 C 
ATOM     41  H   UNL     1       7.899   9.364  -6.513  0.00  0.00    -0.082 HD
ENDBRANCH  34  35
ENDBRANCH  33  34
ENDBRANCH  32  33
ENDBRANCH  31  32
ENDBRANCH   9  30
TORSDOF 9
