REMARK  Name = CHEMBL200164
REMARK  4 active torsions:
REMARK  status: ('A' for Active; 'I' for Inactive)
REMARK    1  A    between atoms: C_4  and  C_7
REMARK    2  A    between atoms: C_10  and  C_19
REMARK    3  A    between atoms: C_11  and  C_13
REMARK    4  A    between atoms: N_29  and  O_30
REMARK                            x       y       z     vdW  Elec       q    Type
REMARK                         _______ _______ _______ _____ _____    ______ ____
ROOT
ATOM      1  C   UNL     1       3.123  -1.385   1.264  0.00  0.00    +0.139 A 
ATOM      2  N   UNL     1       3.339  -2.692   0.936  0.00  0.00    -0.337 N 
ATOM      3  H   UNL     1       2.666  -3.388   0.871  0.00  0.00    +0.167 HD
ATOM      4  C   UNL     1       4.689  -2.838   0.715  0.00  0.00    +0.074 A 
ATOM      5  C   UNL     1       5.256  -1.590   0.920  0.00  0.00    +0.097 A 
ATOM      6  N   UNL     1       4.268  -0.741   1.245  0.00  0.00    -0.227 NA
ENDROOT
BRANCH   4   7
ATOM      7  C   UNL     1       5.392  -4.077   0.335  0.00  0.00    +0.001 A 
ATOM      8  C   UNL     1       6.522  -4.486   1.052  0.00  0.00    +0.010 A 
ATOM      9  C   UNL     1       7.172  -5.633   0.696  0.00  0.00    +0.011 A 
ATOM     10  C   UNL     1       6.708  -6.394  -0.381  0.00  0.00    +0.003 A 
ATOM     11  C   UNL     1       5.579  -5.993  -1.097  0.00  0.00    -0.038 A 
ATOM     12  C   UNL     1       4.927  -4.843  -0.736  0.00  0.00    +0.014 A 
ATOM     13  C   UNL     1       5.050  -6.799  -2.252  0.00  0.00    +0.036 C 
ATOM     14  C   UNL     1       6.137  -7.686  -2.853  0.00  0.00    +0.011 C 
ATOM     15  C   UNL     1       6.749  -8.559  -1.750  0.00  0.00    +0.060 C 
ATOM     16  C   UNL     1       7.425  -7.631  -0.761  0.00  0.00    +0.087 C 
ATOM     17  N   UNL     1       8.588  -7.911  -0.267  0.00  0.00    -0.092 NA
BRANCH  17  18
ATOM     18  O   UNL     1       9.274  -6.951   0.515  0.00  0.00    -0.409 OA
ATOM     19  H   UNL     1      10.134  -7.250   0.840  0.00  0.00    +0.328 HD
ENDBRANCH  17  18
ENDBRANCH   4   7
BRANCH   1  23
ATOM     20  C   UNL     1      -0.652   0.333   2.180  0.00  0.00    +0.000 A 
ATOM     21  C   UNL     1       0.485   1.121   2.196  0.00  0.00    +0.001 A 
ATOM     22  C   UNL     1       1.714   0.569   1.899  0.00  0.00    +0.011 A 
ATOM     23  C   UNL     1       1.810  -0.787   1.583  0.00  0.00    +0.017 A 
ATOM     24  C   UNL     1       0.658  -1.576   1.570  0.00  0.00    +0.011 A 
ATOM     25  C   UNL     1      -0.565  -1.012   1.868  0.00  0.00    +0.001 A 
ENDBRANCH   1  23
BRANCH   5  26
ATOM     26  C   UNL     1       6.692  -1.252   0.797  0.00  0.00    +0.005 A 
ATOM     27  C   UNL     1       7.474  -1.797  -0.228  0.00  0.00    +0.030 A 
ATOM     28  C   UNL     1       8.808  -1.455  -0.305  0.00  0.00    +0.111 A 
ATOM     29  N   UNL     1       9.347  -0.628   0.570  0.00  0.00    -0.263 NA
ATOM     30  C   UNL     1       8.646  -0.092   1.552  0.00  0.00    +0.111 A 
ATOM     31  C   UNL     1       7.304  -0.375   1.700  0.00  0.00    +0.030 A 
ENDBRANCH   5  26
TORSDOF 4
