REMARK  Name = CHEMBL401710
REMARK  6 active torsions:
REMARK  status: ('A' for Active; 'I' for Inactive)
REMARK    1  A    between atoms: C_4  and  C_8
REMARK    2  A    between atoms: C_9  and  C_17
REMARK    3  A    between atoms: C_12  and  C_14
REMARK    4  A    between atoms: N_23  and  C_24
REMARK    5  A    between atoms: C_24  and  C_25
REMARK    6  A    between atoms: C_25  and  N_26
REMARK                            x       y       z     vdW  Elec       q    Type
REMARK                         _______ _______ _______ _____ _____    ______ ____
ROOT
ATOM      1  C   UNL     1       3.698  -0.688  -0.037  0.00  0.00    +0.075 A 
ATOM      2  C   UNL     1       4.652  -0.684   0.966  0.00  0.00    +0.091 A 
ATOM      3  N   UNL     1       5.680  -1.485   0.520  0.00  0.00    -0.341 N 
ATOM      4  H   UNL     1       6.500  -1.686   0.997  0.00  0.00    +0.167 HD
ATOM      5  C   UNL     1       5.335  -1.938  -0.703  0.00  0.00    +0.088 A 
ATOM      6  N   UNL     1       4.162  -1.470  -1.028  0.00  0.00    -0.343 N 
ATOM      7  H   UNL     1       3.696  -1.656  -1.858  0.00  0.00    +0.167 HD
ENDROOT
BRANCH   1  11
ATOM      8  C   UNL     1      -0.017   1.380   0.010  0.00  0.00    +0.021 A 
ATOM      9  C   UNL     1       1.168   2.094   0.002  0.00  0.00    +0.022 A 
ATOM     10  C   UNL     1       2.378   1.428  -0.013  0.00  0.00    +0.050 A 
ATOM     11  C   UNL     1       2.404   0.032  -0.021  0.00  0.00    +0.020 A 
ATOM     12  C   UNL     1       1.206  -0.681  -0.013  0.00  0.00    +0.031 A 
ATOM     13  C   UNL     1       0.002  -0.004   0.002  0.00  0.00    +0.042 A 
ATOM     14 CL   UNL     1      -1.490  -0.891   0.011  0.00  0.00    -0.084 Cl
ATOM     15 CL   UNL     1       3.864   2.325  -0.023  0.00  0.00    -0.083 Cl
ENDBRANCH   1  11
BRANCH   2  16
ATOM     16  C   UNL     1       4.581   0.032   2.253  0.00  0.00    +0.094 A 
ATOM     17  C   UNL     1       5.310  -0.421   3.361  0.00  0.00    +0.050 A 
ATOM     18  C   UNL     1       5.211   0.283   4.545  0.00  0.00    +0.116 A 
ATOM     19  N   UNL     1       4.437   1.357   4.599  0.00  0.00    -0.223 NA
ATOM     20  C   UNL     1       3.758   1.764   3.536  0.00  0.00    +0.216 A 
ATOM     21  N   UNL     1       3.826   1.125   2.380  0.00  0.00    -0.213 NA
ATOM     22  N   UNL     1       2.961   2.891   3.637  0.00  0.00    -0.312 N 
ATOM     23  H   UNL     1       2.459   3.201   2.867  0.00  0.00    +0.149 HD
BRANCH  22  24
ATOM     24  C   UNL     1       2.876   3.618   4.907  0.00  0.00    +0.123 C 
BRANCH  24  25
ATOM     25  C   UNL     1       1.936   4.814   4.748  0.00  0.00    +0.128 C 
BRANCH  25  26
ATOM     26  N   UNL     1       1.851   5.540   6.018  0.00  0.00    -0.283 N 
ATOM     27  C   UNL     1       0.879   5.274   7.088  0.00  0.00    +0.128 C 
ATOM     28  C   UNL     1       1.231   6.309   8.174  0.00  0.00    +0.124 C 
ATOM     29  N   UNL     1       2.365   7.049   7.599  0.00  0.00    -0.298 N 
ATOM     30  C   UNL     1       2.650   6.548   6.390  0.00  0.00    +0.302 C 
ATOM     31  O   UNL     1       3.551   6.973   5.692  0.00  0.00    -0.253 OA
ATOM     32  H   UNL     1       2.834   7.781   8.029  0.00  0.00    +0.150 HD
ENDBRANCH  25  26
ENDBRANCH  24  25
ENDBRANCH  22  24
ENDBRANCH   2  16
BRANCH   5  33
ATOM     33  C   UNL     1       6.174  -2.851  -1.560  0.00  0.00    +0.053 C 
ATOM     34  C   UNL     1       7.694  -2.699  -1.475  0.00  0.00    +0.012 C 
ATOM     35  C   UNL     1       7.011  -3.916  -0.848  0.00  0.00    +0.012 C 
ENDBRANCH   5  33
TORSDOF 6
