REMARK  Name = CHEMBL571748
REMARK  4 active torsions:
REMARK  status: ('A' for Active; 'I' for Inactive)
REMARK    1  A    between atoms: C_3  and  C_11
REMARK    2  A    between atoms: C_12  and  C_39
REMARK    3  A    between atoms: C_19  and  C_20
REMARK    4  A    between atoms: C_34  and  C_36
REMARK                            x       y       z     vdW  Elec       q    Type
REMARK                         _______ _______ _______ _____ _____    ______ ____
ROOT
ATOM      1  C   UNL     1       2.870   4.581   1.980  0.00  0.00    +0.055 A 
ATOM      2  C   UNL     1       3.330   5.833   1.526  0.00  0.00    +0.103 A 
ATOM      3  N   UNL     1       4.624   5.743   1.286  0.00  0.00    -0.164 NA
ATOM      4  N   UNL     1       5.055   4.442   1.570  0.00  0.00    -0.217 N 
ATOM      5  C   UNL     1       3.975   3.720   2.006  0.00  0.00    +0.164 A 
ATOM      6  N   UNL     1       4.108   2.436   2.353  0.00  0.00    -0.236 NA
ATOM      7  C   UNL     1       5.276   1.838   2.288  0.00  0.00    +0.115 A 
ATOM      8  C   UNL     1       6.406   2.544   1.851  0.00  0.00    +0.043 A 
ATOM      9  C   UNL     1       6.281   3.845   1.490  0.00  0.00    +0.050 A 
ENDROOT
BRANCH   9  10
ATOM     10  C   UNL     1       7.481   4.625   1.019  0.00  0.00    +0.041 C 
ATOM     11  C   UNL     1       7.025   5.740   0.074  0.00  0.00    +0.032 C 
ATOM     12  C   UNL     1       6.448   5.106  -1.202  0.00  0.00    +0.079 C 
ATOM     13  C   UNL     1       5.465   3.992  -0.775  0.00  0.00    +0.024 C 
ATOM     14  C   UNL     1       6.339   2.726  -0.645  0.00  0.00    +0.024 C 
ATOM     15  C   UNL     1       7.767   3.194  -1.007  0.00  0.00    +0.079 C 
ATOM     16  C   UNL     1       8.442   3.686   0.283  0.00  0.00    +0.032 C 
ATOM     17  N   UNL     1       7.554   4.380  -1.872  0.00  0.00    -0.279 N 
ATOM     18  C   UNL     1       8.211   4.718  -3.000  0.00  0.00    +0.306 C 
ATOM     19  O   UNL     1       9.024   3.953  -3.482  0.00  0.00    -0.252 OA
ATOM     20  N   UNL     1       7.965   5.902  -3.594  0.00  0.00    -0.272 N 
ATOM     21  C   UNL     1       7.109   6.974  -3.052  0.00  0.00    +0.110 C 
ATOM     22  C   UNL     1       7.626   8.271  -3.722  0.00  0.00    +0.021 C 
ATOM     23  C   UNL     1       7.978   7.767  -5.147  0.00  0.00    +0.036 C 
ATOM     24  C   UNL     1       8.511   6.343  -4.886  0.00  0.00    +0.190 C 
BRANCH  24  25
ATOM     25  C   UNL     1       8.048   5.417  -5.980  0.00  0.00    +0.376 C 
ATOM     26  O   UNL     1       6.972   4.850  -5.885  0.00  0.00    -0.244 OA
ATOM     27  O   UNL     1       8.748   5.233  -6.961  0.00  0.00    -0.244 OA
ENDBRANCH  24  25
ENDBRANCH   9  10
BRANCH   1  30
ATOM     28  C   UNL     1      -0.241   4.093   4.036  0.00  0.00    +0.003 A 
ATOM     29  C   UNL     1       1.059   4.411   3.674  0.00  0.00    +0.009 A 
ATOM     30  C   UNL     1       1.484   4.242   2.363  0.00  0.00    -0.002 A 
ATOM     31  C   UNL     1       0.581   3.743   1.399  0.00  0.00    +0.027 A 
ATOM     32  C   UNL     1       0.688   3.460   0.019  0.00  0.00    +0.143 A 
ATOM     33  N   UNL     1      -0.459   3.010  -0.405  0.00  0.00    -0.181 NA
ATOM     34  N   UNL     1      -1.372   2.972   0.656  0.00  0.00    -0.277 N 
ATOM     35  H   UNL     1      -2.294   2.676   0.603  0.00  0.00    +0.189 HD
ATOM     36  C   UNL     1      -0.735   3.426   1.782  0.00  0.00    +0.066 A 
ATOM     37  C   UNL     1      -1.132   3.606   3.105  0.00  0.00    +0.028 A 
ENDBRANCH   1  30
BRANCH   2  38
ATOM     38  C   UNL     1       2.500   7.048   1.347  0.00  0.00    +0.006 A 
ATOM     39  C   UNL     1       1.171   6.953   0.922  0.00  0.00    +0.030 A 
ATOM     40  C   UNL     1       0.433   8.109   0.769  0.00  0.00    +0.111 A 
ATOM     41  N   UNL     1       0.966   9.290   1.018  0.00  0.00    -0.263 NA
ATOM     42  C   UNL     1       2.215   9.424   1.421  0.00  0.00    +0.111 A 
ATOM     43  C   UNL     1       3.022   8.319   1.605  0.00  0.00    +0.030 A 
ENDBRANCH   2  38
TORSDOF 4
