REMARK  Name = CHEMBL1213976
REMARK  7 active torsions:
REMARK  status: ('A' for Active; 'I' for Inactive)
REMARK    1  A    between atoms: C_3  and  O_22
REMARK    2  A    between atoms: C_6  and  N_7
REMARK    3  A    between atoms: N_10  and  C_11
REMARK    4  A    between atoms: C_15  and  C_17
REMARK    5  A    between atoms: O_22  and  C_23
REMARK    6  A    between atoms: C_23  and  C_24
REMARK    7  A    between atoms: C_24  and  N_25
REMARK                            x       y       z     vdW  Elec       q    Type
REMARK                         _______ _______ _______ _____ _____    ______ ____
ROOT
ATOM      1  N   UNL     1      -1.345  -0.851   0.457  0.00  0.00    -0.269 N 
ATOM      2  C   UNL     1      -2.574  -0.369   0.187  0.00  0.00    +0.308 C 
ATOM      3  O   UNL     1      -2.715   0.795  -0.133  0.00  0.00    -0.252 OA
ATOM      4  N   UNL     1      -3.648  -1.179   0.271  0.00  0.00    -0.269 N 
ATOM      5  H   UNL     1      -1.224  -1.795   0.643  0.00  0.00    +0.156 HD
ATOM      6  H   UNL     1      -3.546  -2.088   0.594  0.00  0.00    +0.156 HD
ENDROOT
BRANCH   4   7
ATOM      7  C   UNL     1      -4.911  -0.709  -0.108  0.00  0.00    +0.035 A 
ATOM      8  C   UNL     1      -5.030   0.208  -1.145  0.00  0.00    +0.025 A 
ATOM      9  C   UNL     1      -6.277   0.670  -1.516  0.00  0.00    +0.022 A 
ATOM     10  C   UNL     1      -7.408   0.223  -0.856  0.00  0.00    +0.053 A 
ATOM     11  C   UNL     1      -7.292  -0.690   0.178  0.00  0.00    +0.075 A 
ATOM     12  C   UNL     1      -6.048  -1.161   0.549  0.00  0.00    +0.037 A 
ATOM     13 CL   UNL     1      -8.974   0.807  -1.325  0.00  0.00    -0.083 Cl
BRANCH  11  14
ATOM     14  C   UNL     1      -8.525  -1.175   0.895  0.00  0.00    +0.419 C 
ATOM     15  F   UNL     1      -8.157  -2.084   1.893  0.00  0.00    -0.166 F 
ATOM     16  F   UNL     1      -9.185  -0.087   1.477  0.00  0.00    -0.166 F 
ATOM     17  F   UNL     1      -9.379  -1.804  -0.018  0.00  0.00    -0.166 F 
ENDBRANCH  11  14
ENDBRANCH   4   7
BRANCH   1  23
ATOM     18  C   UNL     1      -0.392   1.327   0.890  0.00  0.00    +0.027 A 
ATOM     19  C   UNL     1       0.696   2.178   0.902  0.00  0.00    +0.047 A 
ATOM     20  C   UNL     1       1.939   1.719   0.492  0.00  0.00    +0.121 A 
ATOM     21  C   UNL     1       2.091   0.406   0.070  0.00  0.00    +0.047 A 
ATOM     22  C   UNL     1       1.004  -0.445   0.058  0.00  0.00    +0.027 A 
ATOM     23  C   UNL     1      -0.241   0.013   0.468  0.00  0.00    +0.035 A 
BRANCH  20  24
ATOM     24  O   UNL     1       3.010   2.557   0.503  0.00  0.00    -0.491 OA
BRANCH  24  25
ATOM     25  C   UNL     1       4.260   2.019   0.068  0.00  0.00    +0.244 C 
BRANCH  25  26
ATOM     26  C   UNL     1       5.338   3.101   0.150  0.00  0.00    +0.125 C 
BRANCH  26  27
ATOM     27  N   UNL     1       5.539   3.487   1.553  0.00  0.00    -0.295 NA
ATOM     28  C   UNL     1       6.194   4.800   1.650  0.00  0.00    +0.112 C 
ATOM     29  C   UNL     1       6.329   5.189   3.124  0.00  0.00    +0.175 C 
ATOM     30  O   UNL     1       7.055   4.169   3.817  0.00  0.00    -0.377 OA
ATOM     31  C   UNL     1       6.445   2.878   3.743  0.00  0.00    +0.175 C 
ATOM     32  C   UNL     1       6.310   2.465   2.275  0.00  0.00    +0.112 C 
ENDBRANCH  26  27
ENDBRANCH  25  26
ENDBRANCH  24  25
ENDBRANCH  20  24
ENDBRANCH   1  23
TORSDOF 7
