REMARK  Name = CHEMBL248256
REMARK  6 active torsions:
REMARK  status: ('A' for Active; 'I' for Inactive)
REMARK    1  A    between atoms: C_1  and  C_2
REMARK    2  A    between atoms: C_7  and  C_11
REMARK    3  A    between atoms: C_11  and  N_12
REMARK    4  A    between atoms: N_12  and  C_13
REMARK    5  A    between atoms: C_18  and  C_19
REMARK    6  A    between atoms: N_21  and  C_22
REMARK                            x       y       z     vdW  Elec       q    Type
REMARK                         _______ _______ _______ _____ _____    ______ ____
ROOT
ATOM      1  C   UNL     1       2.906  -5.733   2.158  0.00  0.00    +0.040 A 
ATOM      2  C   UNL     1       3.778  -6.174   1.171  0.00  0.00    +0.024 A 
ATOM      3  C   UNL     1       4.938  -6.835   1.518  0.00  0.00    +0.002 A 
ATOM      4  C   UNL     1       5.243  -7.064   2.851  0.00  0.00    +0.001 A 
ATOM      5  C   UNL     1       4.391  -6.635   3.844  0.00  0.00    +0.015 A 
ATOM      6  C   UNL     1       3.214  -5.959   3.509  0.00  0.00    +0.058 A 
ENDROOT
BRANCH   6   7
ATOM      7  C   UNL     1       2.300  -5.491   4.567  0.00  0.00    +0.250 C 
ATOM      8  O   UNL     1       1.329  -4.819   4.278  0.00  0.00    -0.270 OA
ATOM      9  N   UNL     1       2.542  -5.808   5.854  0.00  0.00    -0.281 N 
ATOM     10  H   UNL     1       3.357  -6.276   6.094  0.00  0.00    +0.155 HD
BRANCH   9  11
ATOM     11  C   UNL     1       1.615  -5.463   6.846  0.00  0.00    +0.037 A 
ATOM     12  C   UNL     1       2.056  -5.095   8.110  0.00  0.00    +0.027 A 
ATOM     13  C   UNL     1       1.143  -4.753   9.090  0.00  0.00    +0.051 A 
ATOM     14  C   UNL     1      -0.214  -4.777   8.813  0.00  0.00    +0.173 A 
ATOM     15  C   UNL     1      -0.659  -5.145   7.546  0.00  0.00    +0.174 A 
ATOM     16  C   UNL     1       0.257  -5.482   6.563  0.00  0.00    +0.073 A 
ATOM     17  O   UNL     1      -2.023  -5.088   7.529  0.00  0.00    -0.395 OA
ATOM     18  C   UNL     1      -2.425  -5.079   8.912  0.00  0.00    +0.589 C 
ATOM     19  O   UNL     1      -1.300  -4.489   9.591  0.00  0.00    -0.395 OA
ATOM     20  F   UNL     1      -3.570  -4.294   9.086  0.00  0.00    -0.125 F 
ATOM     21  F   UNL     1      -2.647  -6.382   9.368  0.00  0.00    -0.125 F 
ENDBRANCH   9  11
ENDBRANCH   6   7
BRANCH   1  22
ATOM     22  N   UNL     1       1.738  -5.067   1.811  0.00  0.00    -0.339 N 
ATOM     23  H   UNL     1       1.170  -4.691   2.502  0.00  0.00    +0.146 HD
BRANCH  22  24
ATOM     24  C   UNL     1       1.362  -4.933   0.402  0.00  0.00    +0.137 C 
BRANCH  24  31
ATOM     25  C   UNL     1      -2.380   1.422  -0.019  0.00  0.00    +0.109 C 
ATOM     26  C   UNL     1      -2.360  -0.085  -0.012  0.00  0.00    +0.215 C 
ATOM     27  O   UNL     1      -3.402  -0.705   0.004  0.00  0.00    -0.276 OA
ATOM     28  N   UNL     1      -1.184  -0.743  -0.023  0.00  0.00    -0.271 N 
ATOM     29  C   UNL     1      -1.162  -2.132   0.091  0.00  0.00    +0.125 A 
ATOM     30  C   UNL     1       0.056  -2.796   0.185  0.00  0.00    +0.049 A 
ATOM     31  C   UNL     1       0.063  -4.176   0.297  0.00  0.00    -0.026 A 
ATOM     32  C   UNL     1      -1.153  -4.846   0.311  0.00  0.00    +0.025 A 
ATOM     33  C   UNL     1      -2.324  -4.122   0.214  0.00  0.00    +0.113 A 
ATOM     34  N   UNL     1      -2.301  -2.806   0.113  0.00  0.00    -0.240 NA
ATOM     35  H   UNL     1      -0.353  -0.250  -0.109  0.00  0.00    +0.156 HD
ENDBRANCH  24  31
ENDBRANCH  22  24
ENDBRANCH   1  22
TORSDOF 5
