REMARK  Name = CHEMBL1090143
REMARK  5 active torsions:
REMARK  status: ('A' for Active; 'I' for Inactive)
REMARK    1  A    between atoms: C_3  and  C_20
REMARK    2  A    between atoms: C_5  and  N_7
REMARK    3  A    between atoms: C_8  and  C_10
REMARK    4  A    between atoms: C_14  and  C_16
REMARK    5  A    between atoms: C_23  and  C_29
REMARK                            x       y       z     vdW  Elec       q    Type
REMARK                         _______ _______ _______ _____ _____    ______ ____
ROOT
ATOM      1  C   UNL     1       0.005   1.380   0.175  0.00  0.00    +0.002 A 
ATOM      2  C   UNL     1       1.174   2.089  -0.012  0.00  0.00    +0.010 A 
ATOM      3  C   UNL     1       2.378   1.410  -0.204  0.00  0.00    +0.003 A 
ATOM      4  C   UNL     1       2.395   0.016  -0.207  0.00  0.00    +0.033 A 
ATOM      5  C   UNL     1       1.215  -0.687  -0.019  0.00  0.00    +0.034 A 
ATOM      6  C   UNL     1       0.021  -0.002   0.172  0.00  0.00    +0.023 A 
ENDROOT
BRANCH   3   7
ATOM      7  C   UNL     1       3.634   2.169  -0.405  0.00  0.00    +0.082 A 
ATOM      8  C   UNL     1       3.625   3.406  -1.113  0.00  0.00    +0.034 A 
ATOM      9  C   UNL     1       2.548   4.088  -1.700  0.00  0.00    +0.028 A 
ATOM     10  C   UNL     1       2.759   5.269  -2.335  0.00  0.00    +0.022 A 
ATOM     11  S   UNL     1       4.517   5.514  -2.149  0.00  0.00    -0.069 S 
ATOM     12  C   UNL     1       4.889   4.037  -1.239  0.00  0.00    +0.113 A 
ATOM     13  N   UNL     1       5.978   3.502  -0.732  0.00  0.00    -0.228 NA
ATOM     14  C   UNL     1       5.920   2.352  -0.087  0.00  0.00    +0.223 A 
ATOM     15  N   UNL     1       4.780   1.709   0.076  0.00  0.00    -0.235 NA
BRANCH  10  16
ATOM     16  C   UNL     1       1.775   6.138  -3.013  0.00  0.00    -0.008 A 
ATOM     17  C   UNL     1       0.419   5.791  -3.059  0.00  0.00    +0.029 A 
ATOM     18  C   UNL     1      -0.464   6.632  -3.703  0.00  0.00    +0.111 A 
ATOM     19  N   UNL     1      -0.047   7.748  -4.269  0.00  0.00    -0.263 NA
ATOM     20  C   UNL     1       1.221   8.113  -4.249  0.00  0.00    +0.111 A 
ATOM     21  C   UNL     1       2.172   7.335  -3.622  0.00  0.00    +0.029 A 
ENDBRANCH  10  16
ENDBRANCH   3   7
BRANCH   5  22
ATOM     22  N   UNL     1       1.227  -2.086  -0.021  0.00  0.00    -0.281 N 
ATOM     23  C   UNL     1       2.296  -2.751   0.459  0.00  0.00    +0.248 C 
ATOM     24  O   UNL     1       3.208  -2.141   0.980  0.00  0.00    -0.270 OA
ATOM     25  H   UNL     1       0.465  -2.576  -0.367  0.00  0.00    +0.155 HD
BRANCH  23  26
ATOM     26  C   UNL     1       2.359  -4.224   0.350  0.00  0.00    +0.038 A 
ATOM     27  C   UNL     1       1.316  -4.928  -0.254  0.00  0.00    +0.013 A 
ATOM     28  C   UNL     1       1.381  -6.302  -0.352  0.00  0.00    +0.001 A 
ATOM     29  C   UNL     1       2.478  -6.983   0.146  0.00  0.00    +0.012 A 
ATOM     30  C   UNL     1       3.516  -6.292   0.746  0.00  0.00    +0.056 A 
ATOM     31  C   UNL     1       3.465  -4.917   0.846  0.00  0.00    +0.025 A 
BRANCH  30  32
ATOM     32  C   UNL     1       4.706  -7.042   1.286  0.00  0.00    +0.417 C 
ATOM     33  F   UNL     1       4.533  -8.412   1.065  0.00  0.00    -0.166 F 
ATOM     34  F   UNL     1       5.865  -6.608   0.634  0.00  0.00    -0.166 F 
ATOM     35  F   UNL     1       4.825  -6.802   2.659  0.00  0.00    -0.166 F 
ENDBRANCH  30  32
ENDBRANCH  23  26
ENDBRANCH   5  22
TORSDOF 5
