REMARK  Name = CHEMBL199811
REMARK  5 active torsions:
REMARK  status: ('A' for Active; 'I' for Inactive)
REMARK    1  A    between atoms: C_1  and  C_2
REMARK    2  A    between atoms: N_4  and  C_5
REMARK    3  A    between atoms: C_9  and  C_11
REMARK    4  A    between atoms: C_15  and  N_17
REMARK    5  A    between atoms: N_17  and  C_18
REMARK                            x       y       z     vdW  Elec       q    Type
REMARK                         _______ _______ _______ _____ _____    ______ ____
ROOT
ATOM      1  C   UNL     1       0.888  -4.775  -3.796  0.00  0.00    +0.091 A 
ATOM      2  C   UNL     1       0.874  -4.017  -4.966  0.00  0.00    +0.139 A 
ATOM      3  N   UNL     1       0.808  -4.617  -6.141  0.00  0.00    -0.258 NA
ATOM      4  C   UNL     1       0.756  -5.934  -6.213  0.00  0.00    +0.154 A 
ATOM      5  C   UNL     1       0.771  -6.698  -5.048  0.00  0.00    +0.142 A 
ATOM      6  N   UNL     1       0.841  -6.102  -3.865  0.00  0.00    -0.229 NA
ENDROOT
BRANCH   1  11
ATOM      7  C   UNL     1       1.082  -2.089  -1.166  0.00  0.00    +0.034 A 
ATOM      8  C   UNL     1       1.102  -2.852  -0.005  0.00  0.00    +0.023 A 
ATOM      9  C   UNL     1       1.053  -4.231  -0.078  0.00  0.00    +0.002 A 
ATOM     10  C   UNL     1       0.983  -4.859  -1.306  0.00  0.00    +0.010 A 
ATOM     11  C   UNL     1       0.962  -4.102  -2.476  0.00  0.00    +0.004 A 
ATOM     12  C   UNL     1       1.006  -2.712  -2.403  0.00  0.00    +0.033 A 
BRANCH   7  16
ATOM     13  C   UNL     1       2.012   1.403  -0.111  0.00  0.00    +0.109 C 
ATOM     14  C   UNL     1       1.872  -0.098  -0.131  0.00  0.00    +0.214 C 
ATOM     15  O   UNL     1       2.425  -0.770   0.714  0.00  0.00    -0.276 OA
ATOM     16  N   UNL     1       1.131  -0.693  -1.087  0.00  0.00    -0.286 N 
ATOM     17  H   UNL     1       0.633  -0.153  -1.721  0.00  0.00    +0.155 HD
ENDBRANCH   7  16
ENDBRANCH   1  11
BRANCH   5  18
ATOM     18  N   UNL     1       0.716  -8.086  -5.125  0.00  0.00    -0.298 N 
ATOM     19  H   UNL     1       0.748  -8.525  -5.989  0.00  0.00    +0.154 HD
BRANCH  18  20
ATOM     20  C   UNL     1       0.614  -8.848  -3.957  0.00  0.00    +0.033 A 
ATOM     21  C   UNL     1      -0.083  -8.349  -2.862  0.00  0.00    +0.024 A 
ATOM     22  C   UNL     1      -0.186  -9.099  -1.704  0.00  0.00    +0.009 A 
ATOM     23  C   UNL     1       0.401 -10.341  -1.633  0.00  0.00    +0.004 A 
ATOM     24  C   UNL     1       1.105 -10.854  -2.726  0.00  0.00    +0.067 A 
ATOM     25  C   UNL     1       1.205 -10.101  -3.895  0.00  0.00    +0.038 A 
ATOM     26  C   UNL     1       1.611 -12.186  -2.346  0.00  0.00    +0.340 C 
ATOM     27  O   UNL     1       2.267 -12.913  -3.065  0.00  0.00    -0.245 OA
ATOM     28  O   UNL     1       1.239 -12.477  -1.089  0.00  0.00    -0.456 OA
ATOM     29  C   UNL     1       0.479 -11.391  -0.553  0.00  0.00    +0.268 C 
ENDBRANCH  18  20
ENDBRANCH   5  18
TORSDOF 4
