REMARK  Name = CHEMBL401710
REMARK  6 active torsions:
REMARK  status: ('A' for Active; 'I' for Inactive)
REMARK    1  A    between atoms: C_4  and  C_8
REMARK    2  A    between atoms: C_9  and  C_17
REMARK    3  A    between atoms: C_12  and  C_14
REMARK    4  A    between atoms: N_23  and  C_24
REMARK    5  A    between atoms: C_24  and  C_25
REMARK    6  A    between atoms: C_25  and  N_26
REMARK                            x       y       z     vdW  Elec       q    Type
REMARK                         _______ _______ _______ _____ _____    ______ ____
ROOT
ATOM      1  C   UNL     1       3.695  -0.684  -0.038  0.00  0.00    +0.077 A 
ATOM      2  C   UNL     1       4.659  -0.684   0.956  0.00  0.00    +0.115 A 
ATOM      3  N   UNL     1       5.673  -1.465   0.534  0.00  0.00    -0.230 NA
ATOM      4  H   UNL     1       3.731  -1.696  -1.876  0.00  0.00    +0.167 HD
ATOM      5  C   UNL     1       5.395  -1.941  -0.646  0.00  0.00    +0.111 A 
ATOM      6  N   UNL     1       4.177  -1.490  -1.040  0.00  0.00    -0.341 N 
ENDROOT
BRANCH   1  10
ATOM      7  C   UNL     1      -0.017   1.381   0.010  0.00  0.00    +0.021 A 
ATOM      8  C   UNL     1       1.168   2.095   0.002  0.00  0.00    +0.022 A 
ATOM      9  C   UNL     1       2.378   1.431  -0.013  0.00  0.00    +0.050 A 
ATOM     10  C   UNL     1       2.405   0.033  -0.021  0.00  0.00    +0.020 A 
ATOM     11  C   UNL     1       1.205  -0.681  -0.013  0.00  0.00    +0.031 A 
ATOM     12  C   UNL     1       0.002  -0.004   0.002  0.00  0.00    +0.042 A 
ATOM     13 CL   UNL     1      -1.490  -0.890   0.012  0.00  0.00    -0.084 Cl
ATOM     14 CL   UNL     1       3.864   2.329  -0.024  0.00  0.00    -0.083 Cl
ENDBRANCH   1  10
BRANCH   2  15
ATOM     15  C   UNL     1       4.589   0.040   2.243  0.00  0.00    +0.096 A 
ATOM     16  C   UNL     1       5.319  -0.406   3.351  0.00  0.00    +0.050 A 
ATOM     17  C   UNL     1       5.221   0.303   4.532  0.00  0.00    +0.116 A 
ATOM     18  N   UNL     1       4.446   1.375   4.583  0.00  0.00    -0.223 NA
ATOM     19  C   UNL     1       3.765   1.776   3.519  0.00  0.00    +0.216 A 
ATOM     20  N   UNL     1       3.833   1.131   2.366  0.00  0.00    -0.213 NA
ATOM     21  N   UNL     1       2.965   2.902   3.615  0.00  0.00    -0.312 N 
ATOM     22  H   UNL     1       2.462   3.207   2.844  0.00  0.00    +0.149 HD
BRANCH  21  23
ATOM     23  C   UNL     1       2.881   3.634   4.881  0.00  0.00    +0.123 C 
BRANCH  23  24
ATOM     24  C   UNL     1       1.938   4.828   4.718  0.00  0.00    +0.128 C 
BRANCH  24  25
ATOM     25  N   UNL     1       1.853   5.560   5.984  0.00  0.00    -0.283 N 
ATOM     26  C   UNL     1       0.882   5.297   7.057  0.00  0.00    +0.128 C 
ATOM     27  C   UNL     1       1.234   6.338   8.137  0.00  0.00    +0.124 C 
ATOM     28  N   UNL     1       2.366   7.078   7.558  0.00  0.00    -0.298 N 
ATOM     29  C   UNL     1       2.651   6.572   6.351  0.00  0.00    +0.302 C 
ATOM     30  O   UNL     1       3.549   6.995   5.650  0.00  0.00    -0.253 OA
ATOM     31  H   UNL     1       2.834   7.813   7.984  0.00  0.00    +0.150 HD
ENDBRANCH  24  25
ENDBRANCH  23  24
ENDBRANCH  21  23
ENDBRANCH   2  15
BRANCH   5  32
ATOM     32  C   UNL     1       6.285  -2.856  -1.448  0.00  0.00    +0.055 C 
ATOM     33  C   UNL     1       5.986  -3.003  -2.941  0.00  0.00    +0.012 C 
ATOM     34  C   UNL     1       7.212  -2.212  -2.481  0.00  0.00    +0.012 C 
ENDBRANCH   5  32
TORSDOF 6
