REMARK  Name = CHEMBL200118
REMARK  3 active torsions:
REMARK  status: ('A' for Active; 'I' for Inactive)
REMARK    1  A    between atoms: C_4  and  O_19
REMARK    2  A    between atoms: C_6  and  C_7
REMARK    3  A    between atoms: C_8  and  C_13
REMARK                            x       y       z     vdW  Elec       q    Type
REMARK                         _______ _______ _______ _____ _____    ______ ____
ROOT
ATOM      1  C   UNL     1      -1.270  -0.764   0.011  0.00  0.00    +0.097 A 
ATOM      2  C   UNL     1      -2.437  -0.402   0.659  0.00  0.00    +0.074 A 
ATOM      3  N   UNL     1      -3.348  -1.398   0.393  0.00  0.00    -0.344 N 
ATOM      4  C   UNL     1      -2.731  -2.312  -0.387  0.00  0.00    +0.197 A 
ATOM      5  N   UNL     1      -1.504  -1.932  -0.616  0.00  0.00    -0.235 NA
ATOM      6  H   UNL     1      -4.265  -1.437   0.707  0.00  0.00    +0.167 HD
ENDROOT
BRANCH   1  12
ATOM      7  C   UNL     1      -0.017   1.390   0.010  0.00  0.00    +0.012 A 
ATOM      8  C   UNL     1       1.169   2.096   0.002  0.00  0.00    +0.024 A 
ATOM      9  C   UNL     1       2.378   1.425  -0.013  0.00  0.00    +0.082 A 
ATOM     10  C   UNL     1       2.406   0.035  -0.021  0.00  0.00    +0.136 A 
ATOM     11  C   UNL     1       1.221  -0.681  -0.014  0.00  0.00    +0.057 A 
ATOM     12  C   UNL     1       0.002  -0.004   0.002  0.00  0.00    +0.006 A 
ATOM     13 CL   UNL     1       3.866   2.320  -0.024  0.00  0.00    -0.080 Cl
BRANCH  10  14
ATOM     14  O   UNL     1       3.596  -0.621  -0.036  0.00  0.00    -0.505 OA
ATOM     15  H   UNL     1       3.949  -0.815   0.842  0.00  0.00    +0.292 HD
ENDBRANCH  10  14
ENDBRANCH   1  12
BRANCH   2  16
ATOM     16  C   UNL     1      -2.659   0.809   1.473  0.00  0.00    +0.003 A 
ATOM     17  C   UNL     1      -1.710   1.229   2.414  0.00  0.00    +0.030 A 
ATOM     18  C   UNL     1      -1.959   2.366   3.152  0.00  0.00    +0.111 A 
ATOM     19  N   UNL     1      -3.072   3.054   2.982  0.00  0.00    -0.263 NA
ATOM     20  C   UNL     1      -3.993   2.694   2.107  0.00  0.00    +0.111 A 
ATOM     21  C   UNL     1      -3.824   1.574   1.322  0.00  0.00    +0.030 A 
ENDBRANCH   2  16
TORSDOF 3
