REMARK  Name = CHEMBL1087001
REMARK  6 active torsions:
REMARK  status: ('A' for Active; 'I' for Inactive)
REMARK    1  A    between atoms: C_1  and  C_2
REMARK    2  A    between atoms: C_4  and  N_30
REMARK    3  A    between atoms: C_7  and  C_8
REMARK    4  A    between atoms: C_15  and  C_24
REMARK    5  A    between atoms: C_16  and  C_17
REMARK    6  A    between atoms: C_21  and  O_23
REMARK                            x       y       z     vdW  Elec       q    Type
REMARK                         _______ _______ _______ _____ _____    ______ ____
ROOT
ATOM      1  C   UNL     1       0.044   0.344   2.518  0.00  0.00    +0.077 A 
ATOM      2  C   UNL     1       1.123   1.026   3.047  0.00  0.00    +0.048 A 
ATOM      3  C   UNL     1       1.020   1.572   4.328  0.00  0.00    +0.115 A 
ATOM      4  N   UNL     1      -0.089   1.438   5.020  0.00  0.00    -0.236 NA
ATOM      5  C   UNL     1      -1.143   0.782   4.525  0.00  0.00    +0.164 A 
ATOM      6  N   UNL     1      -1.100   0.231   3.271  0.00  0.00    -0.213 N 
ATOM      7  N   UNL     1      -2.334  -0.379   3.019  0.00  0.00    -0.164 NA
ATOM      8  C   UNL     1      -3.120  -0.213   4.066  0.00  0.00    +0.103 A 
ATOM      9  C   UNL     1      -2.412   0.506   5.049  0.00  0.00    +0.054 A 
ENDROOT
BRANCH   1  16
ATOM     10  C   UNL     1      -0.105   2.066   0.200  0.00  0.00    +0.044 C 
ATOM     11  C   UNL     1       0.046   0.576   0.039  0.00  0.00    -0.040 A 
ATOM     12  C   UNL     1       0.120   0.022  -1.220  0.00  0.00    +0.027 A 
ATOM     13  C   UNL     1       0.259  -1.354  -1.369  0.00  0.00    +0.030 A 
ATOM     14  C   UNL     1       0.325  -2.176  -0.248  0.00  0.00    +0.024 A 
ATOM     15  C   UNL     1       0.252  -1.629   1.014  0.00  0.00    +0.012 A 
ATOM     16  C   UNL     1       0.117  -0.246   1.167  0.00  0.00    +0.004 A 
BRANCH  13  17
ATOM     17  N   UNL     1       0.333  -1.911  -2.644  0.00  0.00    -0.330 N 
ATOM     18  C   UNL     1       0.286  -1.188  -3.933  0.00  0.00    +0.090 C 
ATOM     19  C   UNL     1       0.359  -2.300  -5.026  0.00  0.00    -0.053 C 
ATOM     20  C   UNL     1      -0.406  -3.451  -4.280  0.00  0.00    +0.006 C 
ATOM     21  C   UNL     1       0.482  -3.357  -2.984  0.00  0.00    +0.055 C 
ATOM     22  C   UNL     1       1.900  -3.452  -3.628  0.00  0.00    -0.060 C 
ATOM     23  N   UNL     1       1.775  -2.781  -4.961  0.00  0.00    +0.383 N 
ATOM     24  H   UNL     1       1.951  -3.443  -5.702  0.00  0.00    -0.085 HD
ATOM     25  H   UNL     1       2.411  -2.001  -5.032  0.00  0.00    -0.085 HD
ENDBRANCH  13  17
ENDBRANCH   1  16
BRANCH   9  26
ATOM     26  C   UNL     1      -2.919   0.909   6.379  0.00  0.00    -0.009 A 
ATOM     27  C   UNL     1      -3.194  -0.059   7.347  0.00  0.00    +0.009 A 
ATOM     28  C   UNL     1      -3.667   0.321   8.586  0.00  0.00    +0.004 A 
ATOM     29  C   UNL     1      -3.871   1.658   8.873  0.00  0.00    +0.045 A 
ATOM     30  C   UNL     1      -3.601   2.627   7.917  0.00  0.00    +0.117 A 
ATOM     31  C   UNL     1      -3.120   2.258   6.672  0.00  0.00    +0.054 A 
BRANCH  30  32
ATOM     32  O   UNL     1      -3.804   3.940   8.205  0.00  0.00    -0.507 OA
ATOM     33  H   UNL     1      -3.033   4.383   8.586  0.00  0.00    +0.292 HD
ENDBRANCH  30  32
ENDBRANCH   9  26
BRANCH   8  34
ATOM     34  C   UNL     1      -4.511  -0.712   4.192  0.00  0.00    +0.006 A 
ATOM     35  C   UNL     1      -5.506   0.078   4.774  0.00  0.00    +0.030 A 
ATOM     36  C   UNL     1      -6.788  -0.425   4.872  0.00  0.00    +0.111 A 
ATOM     37  N   UNL     1      -7.077  -1.632   4.425  0.00  0.00    -0.263 NA
ATOM     38  C   UNL     1      -6.167  -2.409   3.869  0.00  0.00    +0.111 A 
ATOM     39  C   UNL     1      -4.863  -1.982   3.727  0.00  0.00    +0.030 A 
ENDBRANCH   8  34
TORSDOF 5
