REMARK  Name = CHEMBL246424
REMARK  6 active torsions:
REMARK  status: ('A' for Active; 'I' for Inactive)
REMARK    1  A    between atoms: C_1  and  N_2
REMARK    2  A    between atoms: C_7  and  C_9
REMARK    3  A    between atoms: C_9  and  N_10
REMARK    4  A    between atoms: N_10  and  C_11
REMARK    5  A    between atoms: C_16  and  C_17
REMARK    6  A    between atoms: N_19  and  C_20
REMARK                            x       y       z     vdW  Elec       q    Type
REMARK                         _______ _______ _______ _____ _____    ______ ____
ROOT
ATOM      1  C   UNL     1      -2.376  -6.082  -1.628  0.00  0.00    +0.040 A 
ATOM      2  C   UNL     1      -2.325  -6.978  -0.566  0.00  0.00    +0.024 A 
ATOM      3  C   UNL     1      -2.071  -8.313  -0.800  0.00  0.00    +0.002 A 
ATOM      4  C   UNL     1      -1.864  -8.773  -2.091  0.00  0.00    +0.001 A 
ATOM      5  C   UNL     1      -1.910  -7.901  -3.156  0.00  0.00    +0.015 A 
ATOM      6  C   UNL     1      -2.172  -6.546  -2.937  0.00  0.00    +0.058 A 
ENDROOT
BRANCH   6   7
ATOM      7  C   UNL     1      -2.228  -5.608  -4.073  0.00  0.00    +0.250 C 
ATOM      8  O   UNL     1      -2.351  -4.415  -3.871  0.00  0.00    -0.270 OA
ATOM      9  N   UNL     1      -2.144  -6.073  -5.335  0.00  0.00    -0.281 N 
ATOM     10  H   UNL     1      -2.122  -7.028  -5.500  0.00  0.00    +0.155 HD
BRANCH   9  11
ATOM     11  C   UNL     1      -2.088  -5.176  -6.409  0.00  0.00    +0.037 A 
ATOM     12  C   UNL     1      -2.671  -5.510  -7.624  0.00  0.00    +0.027 A 
ATOM     13  C   UNL     1      -2.617  -4.626  -8.684  0.00  0.00    +0.051 A 
ATOM     14  C   UNL     1      -1.981  -3.404  -8.539  0.00  0.00    +0.173 A 
ATOM     15  C   UNL     1      -1.395  -3.065  -7.322  0.00  0.00    +0.174 A 
ATOM     16  C   UNL     1      -1.454  -3.950  -6.258  0.00  0.00    +0.073 A 
ATOM     17  O   UNL     1      -0.839  -1.824  -7.435  0.00  0.00    -0.395 OA
ATOM     18  C   UNL     1      -0.734  -1.577  -8.849  0.00  0.00    +0.589 C 
ATOM     19  O   UNL     1      -1.792  -2.373  -9.415  0.00  0.00    -0.395 OA
ATOM     20  F   UNL     1      -0.936  -0.221  -9.128  0.00  0.00    -0.125 F 
ATOM     21  F   UNL     1       0.510  -1.999  -9.331  0.00  0.00    -0.125 F 
ENDBRANCH   9  11
ENDBRANCH   6   7
BRANCH   1  22
ATOM     22  N   UNL     1      -2.632  -4.737  -1.395  0.00  0.00    -0.338 N 
ATOM     23  H   UNL     1      -2.578  -4.100  -2.125  0.00  0.00    +0.146 HD
BRANCH  22  24
ATOM     24  C   UNL     1      -2.986  -4.281  -0.049  0.00  0.00    +0.157 C 
BRANCH  24  31
ATOM     25  C   UNL     1      -1.487   1.649   0.170  0.00  0.00    +0.128 C 
ATOM     26  N   UNL     1      -1.294   0.196   0.179  0.00  0.00    -0.317 N 
ATOM     27  C   UNL     1      -2.384  -0.647   0.045  0.00  0.00    +0.215 A 
ATOM     28  N   UNL     1      -3.593  -0.124  -0.095  0.00  0.00    -0.223 NA
ATOM     29  C   UNL     1      -4.655  -0.902  -0.226  0.00  0.00    +0.116 A 
ATOM     30  C   UNL     1      -4.491  -2.278  -0.215  0.00  0.00    +0.045 A 
ATOM     31  C   UNL     1      -3.212  -2.791  -0.067  0.00  0.00    +0.063 A 
ATOM     32  N   UNL     1      -2.192  -1.958   0.054  0.00  0.00    -0.218 NA
ATOM     33  H   UNL     1      -0.403  -0.174   0.278  0.00  0.00    +0.149 HD
ENDBRANCH  24  31
ENDBRANCH  22  24
ENDBRANCH   1  22
TORSDOF 5
