REMARK  Name = CHEMBL429498
REMARK  9 active torsions:
REMARK  status: ('A' for Active; 'I' for Inactive)
REMARK    1  A    between atoms: C_3  and  C_18
REMARK    2  A    between atoms: C_5  and  N_7
REMARK    3  A    between atoms: C_8  and  C_10
REMARK    4  A    between atoms: C_10  and  C_11
REMARK    5  A    between atoms: C_19  and  C_27
REMARK    6  A    between atoms: C_22  and  C_24
REMARK    7  A    between atoms: N_33  and  C_34
REMARK    8  A    between atoms: C_34  and  C_35
REMARK    9  A    between atoms: C_35  and  N_36
REMARK                            x       y       z     vdW  Elec       q    Type
REMARK                         _______ _______ _______ _____ _____    ______ ____
ROOT
ATOM      1  C   UNL     1       3.632   2.166  -0.403  0.00  0.00    +0.076 A 
ATOM      2  C   UNL     1       4.064   3.264   0.322  0.00  0.00    +0.115 A 
ATOM      3  N   UNL     1       5.252   3.642  -0.189  0.00  0.00    -0.230 NA
ATOM      4  H   UNL     1       4.597   1.207  -2.000  0.00  0.00    +0.167 HD
ATOM      5  C   UNL     1       5.574   2.851  -1.173  0.00  0.00    +0.111 A 
ATOM      6  N   UNL     1       4.604   1.917  -1.340  0.00  0.00    -0.341 N 
ENDROOT
BRANCH   2   7
ATOM      7  C   UNL     1       3.352   3.905   1.448  0.00  0.00    +0.096 A 
ATOM      8  C   UNL     1       4.057   4.635   2.412  0.00  0.00    +0.050 A 
ATOM      9  C   UNL     1       3.349   5.216   3.446  0.00  0.00    +0.116 A 
ATOM     10  N   UNL     1       2.034   5.066   3.496  0.00  0.00    -0.223 NA
ATOM     11  C   UNL     1       1.390   4.369   2.570  0.00  0.00    +0.216 A 
ATOM     12  N   UNL     1       2.028   3.800   1.560  0.00  0.00    -0.213 NA
ATOM     13  N   UNL     1       0.015   4.237   2.660  0.00  0.00    -0.312 N 
ATOM     14  H   UNL     1      -0.468   3.729   1.990  0.00  0.00    +0.149 HD
BRANCH  13  15
ATOM     15  C   UNL     1      -0.710   4.863   3.768  0.00  0.00    +0.123 C 
BRANCH  15  16
ATOM     16  C   UNL     1      -2.204   4.566   3.632  0.00  0.00    +0.128 C 
BRANCH  16  17
ATOM     17  N   UNL     1      -2.930   5.192   4.740  0.00  0.00    -0.283 N 
ATOM     18  C   UNL     1      -3.208   4.564   6.040  0.00  0.00    +0.128 C 
ATOM     19  C   UNL     1      -3.985   5.646   6.815  0.00  0.00    +0.124 C 
ATOM     20  N   UNL     1      -4.063   6.769   5.869  0.00  0.00    -0.298 N 
ATOM     21  C   UNL     1      -3.440   6.431   4.732  0.00  0.00    +0.302 C 
ATOM     22  O   UNL     1      -3.349   7.179   3.778  0.00  0.00    -0.253 OA
ATOM     23  H   UNL     1      -4.493   7.621   6.042  0.00  0.00    +0.150 HD
ENDBRANCH  16  17
ENDBRANCH  15  16
ENDBRANCH  13  15
ENDBRANCH   2   7
BRANCH   1  26
ATOM     24  C   UNL     1       0.004   1.380   0.175  0.00  0.00    +0.002 A 
ATOM     25  C   UNL     1       1.173   2.089  -0.011  0.00  0.00    +0.010 A 
ATOM     26  C   UNL     1       2.379   1.410  -0.203  0.00  0.00    +0.002 A 
ATOM     27  C   UNL     1       2.395   0.015  -0.206  0.00  0.00    +0.033 A 
ATOM     28  C   UNL     1       1.215  -0.688  -0.019  0.00  0.00    +0.034 A 
ATOM     29  C   UNL     1       0.021  -0.002   0.172  0.00  0.00    +0.023 A 
BRANCH  28  30
ATOM     30  N   UNL     1       1.226  -2.087  -0.021  0.00  0.00    -0.285 N 
ATOM     31  C   UNL     1       2.294  -2.754   0.458  0.00  0.00    +0.222 C 
ATOM     32  O   UNL     1       3.205  -2.145   0.978  0.00  0.00    -0.275 OA
ATOM     33  H   UNL     1       0.464  -2.577  -0.368  0.00  0.00    +0.155 HD
BRANCH  31  34
ATOM     34  C   UNL     1       2.358  -4.255   0.346  0.00  0.00    +0.131 C 
BRANCH  34  35
ATOM     35  C   UNL     1       3.646  -4.750   0.953  0.00  0.00    -0.039 A 
ATOM     36  C   UNL     1       4.778  -4.870   0.169  0.00  0.00    +0.005 A 
ATOM     37  C   UNL     1       5.959  -5.324   0.725  0.00  0.00    +0.020 A 
ATOM     38  C   UNL     1       6.008  -5.658   2.066  0.00  0.00    +0.041 A 
ATOM     39  C   UNL     1       4.875  -5.538   2.851  0.00  0.00    +0.020 A 
ATOM     40  C   UNL     1       3.696  -5.078   2.295  0.00  0.00    +0.005 A 
ATOM     41 CL   UNL     1       7.492  -6.228   2.765  0.00  0.00    -0.084 Cl
ENDBRANCH  34  35
ENDBRANCH  31  34
ENDBRANCH  28  30
ENDBRANCH   1  26
BRANCH   5  42
ATOM     42  C   UNL     1       6.833   2.955  -1.996  0.00  0.00    +0.055 C 
ATOM     43  C   UNL     1       7.227   1.740  -2.839  0.00  0.00    +0.012 C 
ATOM     44  C   UNL     1       8.023   2.088  -1.579  0.00  0.00    +0.012 C 
ENDBRANCH   5  42
TORSDOF 9
