REMARK  Name = CHEMBL1087397
REMARK  9 active torsions:
REMARK  status: ('A' for Active; 'I' for Inactive)
REMARK    1  A    between atoms: C_1  and  N_2
REMARK    2  A    between atoms: N_2  and  C_3
REMARK    3  A    between atoms: N_2  and  C_4
REMARK    4  A    between atoms: C_4  and  C_5
REMARK    5  A    between atoms: C_8  and  C_11
REMARK    6  A    between atoms: C_19  and  C_20
REMARK    7  A    between atoms: C_24  and  N_26
REMARK    8  A    between atoms: C_27  and  C_29
REMARK    9  A    between atoms: C_33  and  C_35
REMARK                            x       y       z     vdW  Elec       q    Type
REMARK                         _______ _______ _______ _____ _____    ______ ____
ROOT
ATOM      1  C   UNL     1       6.170   1.079  -0.310  0.00  0.00    +0.046 A 
ATOM      2  C   UNL     1       6.828   1.427  -1.494  0.00  0.00    +0.145 A 
ATOM      3  N   UNL     1       8.074   1.725  -1.214  0.00  0.00    -0.172 NA
ATOM      4  N   UNL     1       8.284   1.584   0.161  0.00  0.00    -0.213 N 
ATOM      5  C   UNL     1       7.102   1.188   0.731  0.00  0.00    +0.164 A 
ATOM      6  N   UNL     1       7.012   0.981   2.047  0.00  0.00    -0.236 NA
ATOM      7  C   UNL     1       8.048   1.152   2.838  0.00  0.00    +0.115 A 
ATOM      8  C   UNL     1       9.277   1.559   2.313  0.00  0.00    +0.048 A 
ATOM      9  C   UNL     1       9.391   1.769   0.954  0.00  0.00    +0.076 A 
ENDROOT
BRANCH   1  13
ATOM     10  C   UNL     1       2.097  -0.077   0.064  0.00  0.00    -0.064 A 
ATOM     11  C   UNL     1       2.426   1.071  -0.636  0.00  0.00    +0.002 A 
ATOM     12  C   UNL     1       3.746   1.451  -0.761  0.00  0.00    +0.009 A 
ATOM     13  C   UNL     1       4.750   0.676  -0.179  0.00  0.00    -0.013 A 
ATOM     14  C   UNL     1       4.412  -0.479   0.525  0.00  0.00    +0.009 A 
ATOM     15  C   UNL     1       3.087  -0.846   0.647  0.00  0.00    +0.002 A 
BRANCH  10  16
ATOM     16  C   UNL     1       0.652  -0.486   0.196  0.00  0.00    -0.044 C 
BRANCH  16  18
ATOM     17  C   UNL     1       0.055   1.587   1.244  0.00  0.00    -0.096 C 
ATOM     18  N   UNL     1       0.078   0.127   1.401  0.00  0.00    +0.379 N 
ATOM     19  C   UNL     1      -1.292  -0.367   1.596  0.00  0.00    -0.096 C 
ATOM     20  H   UNL     1       0.640  -0.117   2.203  0.00  0.00    -0.082 HD
ENDBRANCH  16  18
ENDBRANCH  10  16
ENDBRANCH   1  13
BRANCH   9  21
ATOM     21  C   UNL     1      10.675   2.201   0.364  0.00  0.00    +0.002 A 
ATOM     22  C   UNL     1      10.787   3.464  -0.223  0.00  0.00    +0.010 A 
ATOM     23  C   UNL     1      11.987   3.865  -0.773  0.00  0.00    +0.002 A 
ATOM     24  C   UNL     1      13.082   3.021  -0.746  0.00  0.00    +0.023 A 
ATOM     25  C   UNL     1      12.981   1.762  -0.165  0.00  0.00    +0.034 A 
ATOM     26  C   UNL     1      11.781   1.352   0.396  0.00  0.00    +0.033 A 
BRANCH  25  27
ATOM     27  N   UNL     1      14.091   0.912  -0.141  0.00  0.00    -0.281 N 
ATOM     28  C   UNL     1      13.921  -0.422  -0.232  0.00  0.00    +0.248 C 
ATOM     29  O   UNL     1      12.813  -0.881  -0.431  0.00  0.00    -0.270 OA
ATOM     30  H   UNL     1      14.984   1.283  -0.059  0.00  0.00    +0.155 HD
BRANCH  28  31
ATOM     31  C   UNL     1      15.081  -1.326  -0.089  0.00  0.00    +0.038 A 
ATOM     32  C   UNL     1      16.354  -0.803   0.145  0.00  0.00    +0.013 A 
ATOM     33  C   UNL     1      17.432  -1.652   0.278  0.00  0.00    +0.001 A 
ATOM     34  C   UNL     1      17.255  -3.021   0.178  0.00  0.00    +0.012 A 
ATOM     35  C   UNL     1      15.996  -3.547  -0.054  0.00  0.00    +0.056 A 
ATOM     36  C   UNL     1      14.908  -2.708  -0.183  0.00  0.00    +0.025 A 
BRANCH  35  37
ATOM     37  C   UNL     1      15.812  -5.039  -0.161  0.00  0.00    +0.417 C 
ATOM     38  F   UNL     1      17.047  -5.674   0.007  0.00  0.00    -0.166 F 
ATOM     39  F   UNL     1      14.926  -5.472   0.831  0.00  0.00    -0.166 F 
ATOM     40  F   UNL     1      15.293  -5.355  -1.421  0.00  0.00    -0.166 F 
ENDBRANCH  35  37
ENDBRANCH  28  31
ENDBRANCH  25  27
ENDBRANCH   9  21
TORSDOF 7
