REMARK  Name = CHEMBL402029
REMARK  8 active torsions:
REMARK  status: ('A' for Active; 'I' for Inactive)
REMARK    1  A    between atoms: C_1  and  N_2
REMARK    2  A    between atoms: C_7  and  C_9
REMARK    3  A    between atoms: C_10  and  C_18
REMARK    4  A    between atoms: C_12  and  C_15
REMARK    5  A    between atoms: C_22  and  N_24
REMARK    6  A    between atoms: N_24  and  S_25
REMARK    7  A    between atoms: S_25  and  C_28
REMARK    8  A    between atoms: C_28  and  C_29
REMARK                            x       y       z     vdW  Elec       q    Type
REMARK                         _______ _______ _______ _____ _____    ______ ____
ROOT
ATOM      1  C   UNL     1       0.067  -4.546  -1.064  0.00  0.00    +0.002 A 
ATOM      2  C   UNL     1       0.057  -3.520  -2.012  0.00  0.00    +0.010 A 
ATOM      3  C   UNL     1       1.242  -3.086  -2.571  0.00  0.00    +0.002 A 
ATOM      4  C   UNL     1       2.441  -3.664  -2.197  0.00  0.00    +0.024 A 
ATOM      5  C   UNL     1       2.461  -4.686  -1.255  0.00  0.00    +0.048 A 
ATOM      6  C   UNL     1       1.277  -5.124  -0.682  0.00  0.00    +0.034 A 
ENDROOT
BRANCH   1   8
ATOM      7  C   UNL     1      -2.234  -4.224   0.011  0.00  0.00    +0.115 A 
ATOM      8  C   UNL     1      -1.200  -5.012  -0.464  0.00  0.00    +0.076 A 
ATOM      9  N   UNL     1      -1.587  -6.314  -0.266  0.00  0.00    -0.341 N 
ATOM     10  C   UNL     1      -2.816  -6.287   0.310  0.00  0.00    +0.111 A 
ATOM     11  N   UNL     1      -3.191  -5.051   0.476  0.00  0.00    -0.230 NA
ATOM     12  H   UNL     1      -1.078  -7.107  -0.495  0.00  0.00    +0.167 HD
BRANCH   7  19
ATOM     13  C   UNL     1      -0.018   1.461   0.010  0.00  0.00    +0.128 C 
ATOM     14  N   UNL     1       0.002  -0.004   0.002  0.00  0.00    -0.317 N 
ATOM     15  C   UNL     1      -1.187  -0.712   0.010  0.00  0.00    +0.215 A 
ATOM     16  N   UNL     1      -2.334  -0.048   0.019  0.00  0.00    -0.223 NA
ATOM     17  C   UNL     1      -3.493  -0.688   0.026  0.00  0.00    +0.116 A 
ATOM     18  C   UNL     1      -3.503  -2.071   0.023  0.00  0.00    +0.050 A 
ATOM     19  C   UNL     1      -2.277  -2.746   0.014  0.00  0.00    +0.096 A 
ATOM     20  N   UNL     1      -1.149  -2.035   0.002  0.00  0.00    -0.213 NA
ATOM     21  H   UNL     1       0.849  -0.478  -0.009  0.00  0.00    +0.149 HD
ENDBRANCH   7  19
BRANCH  10  22
ATOM     22  C   UNL     1      -3.620  -7.500   0.702  0.00  0.00    +0.055 C 
ATOM     23  C   UNL     1      -3.208  -8.846   0.101  0.00  0.00    +0.012 C 
ATOM     24  C   UNL     1      -4.485  -8.153  -0.379  0.00  0.00    +0.012 C 
ENDBRANCH  10  22
ENDBRANCH   1   8
BRANCH   5  25
ATOM     25  N   UNL     1       3.675  -5.267  -0.881  0.00  0.00    -0.220 N 
ATOM     26  H   UNL     1       3.751  -6.231  -0.812  0.00  0.00    +0.173 HD
BRANCH  25  27
ATOM     27  S   UNL     1       4.986  -4.308  -0.555  0.00  0.00    +0.047 S 
ATOM     28  O   UNL     1       6.031  -5.218  -0.239  0.00  0.00    -0.155 OA
ATOM     29  O   UNL     1       5.093  -3.446  -1.679  0.00  0.00    -0.155 OA
BRANCH  27  30
ATOM     30  C   UNL     1       4.516  -3.360   0.918  0.00  0.00    +0.223 C 
BRANCH  30  31
ATOM     31  C   UNL     1       5.648  -2.445   1.308  0.00  0.00    -0.023 A 
ATOM     32  C   UNL     1       6.624  -2.886   2.182  0.00  0.00    +0.007 A 
ATOM     33  C   UNL     1       7.662  -2.048   2.541  0.00  0.00    +0.022 A 
ATOM     34  C   UNL     1       7.725  -0.765   2.026  0.00  0.00    +0.059 A 
ATOM     35  C   UNL     1       6.747  -0.323   1.151  0.00  0.00    +0.060 A 
ATOM     36  C   UNL     1       5.711  -1.165   0.789  0.00  0.00    +0.026 A 
ATOM     37 CL   UNL     1       6.823   1.287   0.505  0.00  0.00    -0.082 Cl
ATOM     38 CL   UNL     1       9.028   0.290   2.477  0.00  0.00    -0.082 Cl
ENDBRANCH  30  31
ENDBRANCH  27  30
ENDBRANCH  25  27
ENDBRANCH   5  25
TORSDOF 7
