REMARK  Name = CHEMBL512329
REMARK  8 active torsions:
REMARK  status: ('A' for Active; 'I' for Inactive)
REMARK    1  A    between atoms: C_1  and  C_2
REMARK    2  A    between atoms: C_2  and  C_3
REMARK    3  A    between atoms: C_2  and  C_4
REMARK    4  A    between atoms: C_2  and  C_5
REMARK    5  A    between atoms: C_7  and  N_10
REMARK    6  A    between atoms: N_13  and  C_14
REMARK    7  A    between atoms: C_17  and  O_20
REMARK    8  A    between atoms: O_20  and  C_21
REMARK                            x       y       z     vdW  Elec       q    Type
REMARK                         _______ _______ _______ _____ _____    ______ ____
ROOT
ATOM      1  N   UNL     1       2.870  -2.284  -3.050  0.00  0.00    -0.238 N 
ATOM      2  C   UNL     1       3.100  -2.762  -4.289  0.00  0.00    +0.310 C 
ATOM      3  O   UNL     1       2.481  -3.727  -4.693  0.00  0.00    -0.252 OA
ATOM      4  N   UNL     1       4.015  -2.169  -5.081  0.00  0.00    -0.269 N 
ATOM      5  H   UNL     1       3.364  -1.514  -2.728  0.00  0.00    +0.159 HD
ATOM      6  H   UNL     1       4.448  -1.350  -4.793  0.00  0.00    +0.156 HD
ENDROOT
BRANCH   4   7
ATOM      7  C   UNL     1       4.342  -2.736  -6.320  0.00  0.00    +0.035 A 
ATOM      8  C   UNL     1       5.646  -2.664  -6.794  0.00  0.00    +0.027 A 
ATOM      9  C   UNL     1       5.967  -3.224  -8.014  0.00  0.00    +0.048 A 
ATOM     10  C   UNL     1       4.989  -3.856  -8.768  0.00  0.00    +0.129 A 
ATOM     11  C   UNL     1       3.686  -3.927  -8.295  0.00  0.00    +0.048 A 
ATOM     12  C   UNL     1       3.365  -3.374  -7.071  0.00  0.00    +0.027 A 
BRANCH  10  13
ATOM     13  O   UNL     1       5.306  -4.406  -9.970  0.00  0.00    -0.456 OA
BRANCH  13  14
ATOM     14  C   UNL     1       5.021  -3.696 -11.091  0.00  0.00    +0.131 A 
ATOM     15  C   UNL     1       5.203  -4.252 -12.354  0.00  0.00    +0.064 A 
ATOM     16  C   UNL     1       4.902  -3.498 -13.469  0.00  0.00    +0.086 A 
ATOM     17  N   UNL     1       4.448  -2.264 -13.349  0.00  0.00    -0.367 N 
ATOM     18  C   UNL     1       4.263  -1.702 -12.169  0.00  0.00    +0.086 A 
ATOM     19  C   UNL     1       4.534  -2.394 -11.006  0.00  0.00    +0.064 A 
ATOM     20  H   UNL     1       4.245  -1.757 -14.150  0.00  0.00    +0.165 HD
ENDBRANCH  13  14
ENDBRANCH  10  13
ENDBRANCH   4   7
BRANCH   1  23
ATOM     21  C   UNL     1       0.608  -3.393  -0.503  0.00  0.00    +0.091 A 
ATOM     22  C   UNL     1       1.599  -2.519  -0.972  0.00  0.00    +0.093 A 
ATOM     23  C   UNL     1       1.928  -2.894  -2.235  0.00  0.00    +0.225 A 
ATOM     24  O   UNL     1       1.178  -3.962  -2.555  0.00  0.00    -0.339 OA
ATOM     25  N   UNL     1       0.354  -4.263  -1.442  0.00  0.00    -0.081 NA
BRANCH  21  27
ATOM     26  C   UNL     1      -1.049  -2.187   0.892  0.00  0.00    +0.017 C 
ATOM     27  C   UNL     1      -0.045  -3.341   0.853  0.00  0.00    +0.008 C 
ATOM     28  C   UNL     1       1.023  -3.125   1.927  0.00  0.00    +0.017 C 
ATOM     29  C   UNL     1      -0.775  -4.660   1.119  0.00  0.00    +0.017 C 
ENDBRANCH  21  27
ENDBRANCH   1  23
TORSDOF 5
