REMARK  Name = CHEMBL478823
REMARK  8 active torsions:
REMARK  status: ('A' for Active; 'I' for Inactive)
REMARK    1  A    between atoms: C_1  and  C_2
REMARK    2  A    between atoms: C_2  and  C_3
REMARK    3  A    between atoms: C_2  and  C_4
REMARK    4  A    between atoms: C_2  and  C_6
REMARK    5  A    between atoms: C_4  and  N_5
REMARK    6  A    between atoms: C_9  and  C_23
REMARK    7  A    between atoms: C_10  and  C_12
REMARK    8  A    between atoms: N_21  and  O_22
REMARK                            x       y       z     vdW  Elec       q    Type
REMARK                         _______ _______ _______ _____ _____    ______ ____
ROOT
ATOM      1  C   UNL     1       0.652  -0.415  -1.306  0.00  0.00    +0.112 A 
ATOM      2  N   UNL     1       1.818   0.070  -1.784  0.00  0.00    -0.341 N 
ATOM      3  H   UNL     1       2.296   0.847  -1.454  0.00  0.00    +0.167 HD
ATOM      4  C   UNL     1       2.204  -0.740  -2.827  0.00  0.00    +0.074 A 
ATOM      5  C   UNL     1       1.225  -1.713  -2.941  0.00  0.00    +0.097 A 
ATOM      6  N   UNL     1       0.307  -1.472  -1.987  0.00  0.00    -0.231 NA
ENDROOT
BRANCH   5   7
ATOM      7  C   UNL     1       1.198  -2.818  -3.925  0.00  0.00    +0.003 A 
ATOM      8  C   UNL     1       2.365  -3.528  -4.213  0.00  0.00    +0.011 A 
ATOM      9  C   UNL     1       2.338  -4.553  -5.127  0.00  0.00    +0.011 A 
ATOM     10  C   UNL     1       1.140  -4.892  -5.775  0.00  0.00    +0.003 A 
ATOM     11  C   UNL     1      -0.024  -4.182  -5.484  0.00  0.00    -0.037 A 
ATOM     12  C   UNL     1       0.004  -3.157  -4.562  0.00  0.00    +0.014 A 
ATOM     13  C   UNL     1      -1.170  -4.731  -6.301  0.00  0.00    +0.042 C 
ATOM     14  C   UNL     1      -0.591  -5.875  -7.144  0.00  0.00    +0.064 C 
ATOM     15  C   UNL     1       0.872  -5.940  -6.779  0.00  0.00    +0.088 C 
ATOM     16  N   UNL     1       1.739  -6.770  -7.262  0.00  0.00    -0.092 NA
BRANCH  16  17
ATOM     17  O   UNL     1       1.342  -7.729  -8.224  0.00  0.00    -0.409 OA
ATOM     18  H   UNL     1       2.059  -8.305  -8.526  0.00  0.00    +0.328 HD
ENDBRANCH  16  17
ENDBRANCH   5   7
BRANCH   4  19
ATOM     19  C   UNL     1       3.415  -0.600  -3.657  0.00  0.00    +0.003 A 
ATOM     20  C   UNL     1       3.343  -0.672  -5.055  0.00  0.00    +0.030 A 
ATOM     21  C   UNL     1       4.500  -0.536  -5.792  0.00  0.00    +0.111 A 
ATOM     22  N   UNL     1       5.663  -0.341  -5.198  0.00  0.00    -0.263 NA
ATOM     23  C   UNL     1       5.776  -0.267  -3.885  0.00  0.00    +0.111 A 
ATOM     24  C   UNL     1       4.670  -0.386  -3.071  0.00  0.00    +0.030 A 
ENDBRANCH   4  19
BRANCH   1  26
ATOM     25  C   UNL     1      -0.204   1.691  -0.316  0.00  0.00    +0.017 C 
ATOM     26  C   UNL     1      -0.126   0.171  -0.156  0.00  0.00    +0.007 C 
ATOM     27  C   UNL     1       0.575  -0.168   1.161  0.00  0.00    +0.017 C 
BRANCH  26  28
ATOM     28  C   UNL     1      -1.540  -0.414  -0.147  0.00  0.00    -0.072 C 
BRANCH  28  29
ATOM     29  N   UNL     1      -2.299   0.158   0.974  0.00  0.00    +0.379 N 
ATOM     30  H   UNL     1      -3.231  -0.228   0.980  0.00  0.00    -0.090 HD
ATOM     31  H   UNL     1      -1.836  -0.066   1.842  0.00  0.00    -0.090 HD
ATOM     32  H   UNL     1      -2.350   1.160   0.869  0.00  0.00    -0.090 HD
ENDBRANCH  28  29
ENDBRANCH  26  28
ENDBRANCH   1  26
TORSDOF 6
