REMARK  Name = CHEMBL200118
REMARK  3 active torsions:
REMARK  status: ('A' for Active; 'I' for Inactive)
REMARK    1  A    between atoms: C_4  and  O_19
REMARK    2  A    between atoms: C_6  and  C_7
REMARK    3  A    between atoms: C_8  and  C_13
REMARK                            x       y       z     vdW  Elec       q    Type
REMARK                         _______ _______ _______ _____ _____    ______ ____
ROOT
ATOM      1  C   UNL     1      -1.265  -0.762   0.011  0.00  0.00    +0.074 A 
ATOM      2  C   UNL     1      -2.374  -0.518   0.801  0.00  0.00    +0.097 A 
ATOM      3  N   UNL     1      -3.304  -1.441   0.490  0.00  0.00    -0.235 NA
ATOM      4  C   UNL     1      -2.840  -2.232  -0.436  0.00  0.00    +0.197 A 
ATOM      5  N   UNL     1      -1.582  -1.849  -0.770  0.00  0.00    -0.344 N 
ATOM      6  H   UNL     1      -1.011  -2.265  -1.435  0.00  0.00    +0.167 HD
ENDROOT
BRANCH   1  12
ATOM      7  C   UNL     1      -0.017   1.392   0.010  0.00  0.00    +0.011 A 
ATOM      8  C   UNL     1       1.169   2.098   0.002  0.00  0.00    +0.024 A 
ATOM      9  C   UNL     1       2.378   1.426  -0.013  0.00  0.00    +0.082 A 
ATOM     10  C   UNL     1       2.407   0.036  -0.021  0.00  0.00    +0.136 A 
ATOM     11  C   UNL     1       1.223  -0.681  -0.013  0.00  0.00    +0.057 A 
ATOM     12  C   UNL     1       0.002  -0.004   0.002  0.00  0.00    +0.004 A 
ATOM     13 CL   UNL     1       3.865   2.321  -0.023  0.00  0.00    -0.080 Cl
BRANCH  10  14
ATOM     14  O   UNL     1       3.598  -0.619  -0.036  0.00  0.00    -0.505 OA
ATOM     15  H   UNL     1       3.951  -0.813   0.843  0.00  0.00    +0.292 HD
ENDBRANCH  10  14
ENDBRANCH   1  12
BRANCH   2  16
ATOM     16  C   UNL     1      -2.512   0.560   1.806  0.00  0.00    +0.005 A 
ATOM     17  C   UNL     1      -1.415   0.979   2.567  0.00  0.00    +0.030 A 
ATOM     18  C   UNL     1      -1.588   1.987   3.492  0.00  0.00    +0.111 A 
ATOM     19  N   UNL     1      -2.768   2.553   3.664  0.00  0.00    -0.263 NA
ATOM     20  C   UNL     1      -3.828   2.188   2.967  0.00  0.00    +0.111 A 
ATOM     21  C   UNL     1      -3.742   1.192   2.018  0.00  0.00    +0.030 A 
ENDBRANCH   2  16
TORSDOF 3
