REMARK  Name = CHEMBL1213925
REMARK  7 active torsions:
REMARK  status: ('A' for Active; 'I' for Inactive)
REMARK    1  A    between atoms: C_7  and  N_20
REMARK    2  A    between atoms: C_10  and  O_11
REMARK    3  A    between atoms: O_11  and  C_12
REMARK    4  A    between atoms: C_12  and  C_13
REMARK    5  A    between atoms: C_13  and  N_14
REMARK    6  A    between atoms: N_23  and  C_24
REMARK    7  A    between atoms: C_28  and  C_30
REMARK                            x       y       z     vdW  Elec       q    Type
REMARK                         _______ _______ _______ _____ _____    ______ ____
ROOT
ATOM      1  C   UNL     1       0.952   1.205   0.843  0.00  0.00    +0.001 A 
ATOM      2  C   UNL     1       2.214   1.793   0.791  0.00  0.00    +0.001 A 
ATOM      3  C   UNL     1       3.338   1.032   0.684  0.00  0.00    +0.012 A 
ATOM      4  C   UNL     1       3.227  -0.367   0.625  0.00  0.00    +0.026 A 
ATOM      5  C   UNL     1       1.944  -0.965   0.677  0.00  0.00    +0.007 A 
ATOM      6  C   UNL     1       0.807  -0.148   0.788  0.00  0.00    +0.010 A 
ATOM      7  C   UNL     1       1.832  -2.370   0.618  0.00  0.00    +0.043 A 
ATOM      8  C   UNL     1       2.971  -3.137   0.510  0.00  0.00    +0.027 A 
ATOM      9  C   UNL     1       4.229  -2.543   0.459  0.00  0.00    +0.048 A 
ATOM     10  C   UNL     1       4.369  -1.186   0.514  0.00  0.00    +0.128 A 
ENDROOT
BRANCH   7  11
ATOM     11  N   UNL     1       0.574  -2.979   0.669  0.00  0.00    -0.269 N 
ATOM     12  C   UNL     1       0.453  -4.237   1.139  0.00  0.00    +0.308 C 
ATOM     13  O   UNL     1       1.444  -4.868   1.448  0.00  0.00    -0.252 OA
ATOM     14  N   UNL     1      -0.768  -4.794   1.266  0.00  0.00    -0.269 N 
ATOM     15  H   UNL     1      -0.211  -2.497   0.366  0.00  0.00    +0.156 HD
ATOM     16  H   UNL     1      -1.553  -4.318   0.953  0.00  0.00    +0.156 HD
BRANCH  14  17
ATOM     17  C   UNL     1      -0.902  -6.059   1.850  0.00  0.00    +0.035 A 
ATOM     18  C   UNL     1      -0.057  -6.441   2.884  0.00  0.00    +0.025 A 
ATOM     19  C   UNL     1      -0.192  -7.689   3.459  0.00  0.00    +0.022 A 
ATOM     20  C   UNL     1      -1.169  -8.559   3.006  0.00  0.00    +0.053 A 
ATOM     21  C   UNL     1      -2.012  -8.181   1.976  0.00  0.00    +0.075 A 
ATOM     22  C   UNL     1      -1.885  -6.931   1.402  0.00  0.00    +0.037 A 
ATOM     23 CL   UNL     1      -1.335 -10.128   3.731  0.00  0.00    -0.083 Cl
BRANCH  21  24
ATOM     24  C   UNL     1      -3.074  -9.131   1.485  0.00  0.00    +0.419 C 
ATOM     25  F   UNL     1      -3.795  -8.529   0.448  0.00  0.00    -0.166 F 
ATOM     26  F   UNL     1      -2.470 -10.302   1.015  0.00  0.00    -0.166 F 
ATOM     27  F   UNL     1      -3.942  -9.444   2.536  0.00  0.00    -0.166 F 
ENDBRANCH  21  24
ENDBRANCH  14  17
ENDBRANCH   7  11
BRANCH  10  28
ATOM     28  O   UNL     1       5.606  -0.626   0.463  0.00  0.00    -0.490 OA
BRANCH  28  29
ATOM     29  C   UNL     1       6.717  -1.517   0.351  0.00  0.00    +0.244 C 
BRANCH  29  30
ATOM     30  C   UNL     1       8.016  -0.710   0.306  0.00  0.00    +0.125 C 
BRANCH  30  31
ATOM     31  N   UNL     1       8.207  -0.019   1.589  0.00  0.00    -0.295 NA
ATOM     32  C   UNL     1       9.157   1.095   1.451  0.00  0.00    +0.112 C 
ATOM     33  C   UNL     1       9.281   1.822   2.792  0.00  0.00    +0.175 C 
ATOM     34  O   UNL     1       9.683   0.889   3.799  0.00  0.00    -0.377 OA
ATOM     35  C   UNL     1       8.780  -0.209   3.961  0.00  0.00    +0.175 C 
ATOM     36  C   UNL     1       8.652  -0.956   2.631  0.00  0.00    +0.112 C 
ENDBRANCH  30  31
ENDBRANCH  29  30
ENDBRANCH  28  29
ENDBRANCH  10  28
TORSDOF 7
