REMARK  Name = CHEMBL430413
REMARK  7 active torsions:
REMARK  status: ('A' for Active; 'I' for Inactive)
REMARK    1  A    between atoms: C_1  and  N_2
REMARK    2  A    between atoms: C_7  and  C_9
REMARK    3  A    between atoms: C_10  and  C_18
REMARK    4  A    between atoms: C_12  and  C_15
REMARK    5  A    between atoms: C_22  and  N_24
REMARK    6  A    between atoms: N_27  and  C_28
REMARK    7  A    between atoms: C_32  and  C_34
REMARK                            x       y       z     vdW  Elec       q    Type
REMARK                         _______ _______ _______ _____ _____    ______ ____
ROOT
ATOM      1  C   UNL     1      -0.221  -4.249   0.090  0.00  0.00    +0.002 A 
ATOM      2  C   UNL     1      -1.092  -3.371   0.736  0.00  0.00    +0.010 A 
ATOM      3  C   UNL     1      -2.352  -3.145   0.220  0.00  0.00    +0.002 A 
ATOM      4  C   UNL     1      -2.756  -3.787  -0.936  0.00  0.00    +0.023 A 
ATOM      5  C   UNL     1      -1.895  -4.664  -1.585  0.00  0.00    +0.035 A 
ATOM      6  C   UNL     1      -0.625  -4.892  -1.078  0.00  0.00    +0.033 A 
ENDROOT
BRANCH   1   8
ATOM      7  C   UNL     1       2.011  -3.532   1.113  0.00  0.00    +0.091 A 
ATOM      8  C   UNL     1       1.133  -4.493   0.642  0.00  0.00    +0.073 A 
ATOM      9  N   UNL     1       1.735  -5.687   0.777  0.00  0.00    -0.343 N 
ATOM     10  C   UNL     1       2.919  -5.524   1.298  0.00  0.00    +0.088 A 
ATOM     11  N   UNL     1       3.139  -4.211   1.518  0.00  0.00    -0.341 N 
ATOM     12  H   UNL     1       3.942  -3.818   1.894  0.00  0.00    +0.167 HD
ATOM     13  H   UNL     1       1.347  -6.540   0.526  0.00  0.00    +0.167 HD
BRANCH   7  20
ATOM     14  C   UNL     1      -0.412   1.835  -0.471  0.00  0.00    +0.128 C 
ATOM     15  N   UNL     1      -0.180   0.389  -0.502  0.00  0.00    -0.317 N 
ATOM     16  C   UNL     1       0.723  -0.186   0.377  0.00  0.00    +0.215 A 
ATOM     17  N   UNL     1       1.363   0.588   1.242  0.00  0.00    -0.223 NA
ATOM     18  C   UNL     1       2.234   0.079   2.100  0.00  0.00    +0.116 A 
ATOM     19  C   UNL     1       2.477  -1.282   2.090  0.00  0.00    +0.050 A 
ATOM     20  C   UNL     1       1.787  -2.076   1.165  0.00  0.00    +0.094 A 
ATOM     21  N   UNL     1       0.920  -1.493   0.335  0.00  0.00    -0.213 NA
ATOM     22  H   UNL     1      -0.658  -0.166  -1.138  0.00  0.00    +0.149 HD
ENDBRANCH   7  20
BRANCH  10  23
ATOM     23  C   UNL     1       3.895  -6.631   1.603  0.00  0.00    +0.053 C 
ATOM     24  C   UNL     1       5.385  -6.321   1.449  0.00  0.00    +0.012 C 
ATOM     25  C   UNL     1       4.776  -6.474   2.844  0.00  0.00    +0.012 C 
ENDBRANCH  10  23
ENDBRANCH   1   8
BRANCH   5  26
ATOM     26  N   UNL     1      -2.309  -5.312  -2.755  0.00  0.00    -0.269 N 
ATOM     27  C   UNL     1      -1.870  -6.558  -3.026  0.00  0.00    +0.308 C 
ATOM     28  O   UNL     1      -1.191  -7.154  -2.212  0.00  0.00    -0.252 OA
ATOM     29  N   UNL     1      -2.183  -7.142  -4.200  0.00  0.00    -0.269 N 
ATOM     30  H   UNL     1      -2.911  -4.866  -3.370  0.00  0.00    +0.156 HD
ATOM     31  H   UNL     1      -2.659  -6.640  -4.879  0.00  0.00    +0.156 HD
BRANCH  29  32
ATOM     32  C   UNL     1      -1.820  -8.473  -4.438  0.00  0.00    +0.035 A 
ATOM     33  C   UNL     1      -1.792  -9.384  -3.390  0.00  0.00    +0.025 A 
ATOM     34  C   UNL     1      -1.434 -10.697  -3.628  0.00  0.00    +0.022 A 
ATOM     35  C   UNL     1      -1.102 -11.103  -4.909  0.00  0.00    +0.053 A 
ATOM     36  C   UNL     1      -1.128 -10.197  -5.954  0.00  0.00    +0.075 A 
ATOM     37  C   UNL     1      -1.492  -8.885  -5.723  0.00  0.00    +0.037 A 
ATOM     38 CL   UNL     1      -0.651 -12.754  -5.204  0.00  0.00    -0.083 Cl
BRANCH  36  39
ATOM     39  C   UNL     1      -0.766 -10.644  -7.347  0.00  0.00    +0.419 C 
ATOM     40  F   UNL     1      -0.866  -9.559  -8.225  0.00  0.00    -0.166 F 
ATOM     41  F   UNL     1       0.545 -11.131  -7.354  0.00  0.00    -0.166 F 
ATOM     42  F   UNL     1      -1.641 -11.656  -7.754  0.00  0.00    -0.166 F 
ENDBRANCH  36  39
ENDBRANCH  29  32
ENDBRANCH   5  26
TORSDOF 6
