REMARK  Name = CHEMBL496477
REMARK  3 active torsions:
REMARK  status: ('A' for Active; 'I' for Inactive)
REMARK    1  A    between atoms: C_1  and  N_2
REMARK    2  A    between atoms: C_4  and  C_13
REMARK    3  A    between atoms: C_5  and  C_7
REMARK                            x       y       z     vdW  Elec       q    Type
REMARK                         _______ _______ _______ _____ _____    ______ ____
ROOT
ATOM      1  C   UNL     1      -0.018   1.461   0.010  0.00  0.00    +0.172 C 
ATOM      2  N   UNL     1       0.002  -0.004   0.002  0.00  0.00    -0.273 N 
ATOM      3  C   UNL     1       0.008  -0.787  -1.097  0.00  0.00    +0.117 A 
ATOM      4  C   UNL     1       0.028  -2.085  -0.684  0.00  0.00    +0.027 A 
ATOM      5  C   UNL     1       0.034  -2.082   0.734  0.00  0.00    +0.100 A 
ATOM      6  N   UNL     1       0.025  -0.829   1.133  0.00  0.00    -0.171 NA
ENDROOT
BRANCH   4   7
ATOM      7  C   UNL     1       0.040  -3.284  -1.559  0.00  0.00    -0.014 A 
ATOM      8  C   UNL     1       0.976  -4.294  -1.343  0.00  0.00    +0.009 A 
ATOM      9  C   UNL     1       0.989  -5.412  -2.156  0.00  0.00    +0.006 A 
ATOM     10  C   UNL     1       0.078  -5.531  -3.182  0.00  0.00    -0.018 A 
ATOM     11  C   UNL     1      -0.867  -4.527  -3.412  0.00  0.00    +0.042 A 
ATOM     12  C   UNL     1      -0.886  -3.401  -2.590  0.00  0.00    +0.022 A 
ATOM     13  C   UNL     1      -1.698  -4.928  -4.564  0.00  0.00    +0.245 C 
ATOM     14  O   UNL     1      -2.613  -4.273  -5.022  0.00  0.00    -0.270 OA
ATOM     15  N   UNL     1      -1.296  -6.122  -5.034  0.00  0.00    -0.307 N 
ATOM     16  C   UNL     1      -0.169  -6.594  -4.223  0.00  0.00    +0.140 C 
ATOM     17  H   UNL     1      -1.688  -6.593  -5.786  0.00  0.00    +0.149 HD
ENDBRANCH   4   7
BRANCH   5  18
ATOM     18  C   UNL     1       0.055  -3.278   1.610  0.00  0.00    +0.006 A 
ATOM     19  C   UNL     1      -0.614  -4.449   1.242  0.00  0.00    +0.030 A 
ATOM     20  C   UNL     1      -0.570  -5.538   2.087  0.00  0.00    +0.111 A 
ATOM     21  N   UNL     1       0.092  -5.485   3.227  0.00  0.00    -0.263 NA
ATOM     22  C   UNL     1       0.736  -4.399   3.611  0.00  0.00    +0.111 A 
ATOM     23  C   UNL     1       0.749  -3.267   2.824  0.00  0.00    +0.030 A 
ENDBRANCH   5  18
TORSDOF 2
