REMARK  Name = CHEMBL477565
REMARK  9 active torsions:
REMARK  status: ('A' for Active; 'I' for Inactive)
REMARK    1  A    between atoms: C_1  and  N_2
REMARK    2  A    between atoms: N_2  and  C_3
REMARK    3  A    between atoms: N_2  and  C_4
REMARK    4  A    between atoms: C_4  and  C_5
REMARK    5  A    between atoms: C_5  and  O_6
REMARK    6  A    between atoms: O_6  and  C_7
REMARK    7  A    between atoms: C_9  and  C_19
REMARK    8  A    between atoms: C_10  and  C_13
REMARK    9  A    between atoms: N_28  and  O_29
REMARK                            x       y       z     vdW  Elec       q    Type
REMARK                         _______ _______ _______ _____ _____    ______ ____
ROOT
ATOM      1  C   UNL     1      -2.149  -0.549   3.504  0.00  0.00    +0.211 C 
ATOM      2  C   UNL     1      -3.466  -1.160   3.679  0.00  0.00    +0.073 C 
ATOM      3  C   UNL     1      -4.015  -0.713   4.826  0.00  0.00    -0.007 C 
ATOM      4  C   UNL     1      -3.002   0.237   5.427  0.00  0.00    +0.170 C 
ATOM      5  N   UNL     1      -1.868   0.245   4.495  0.00  0.00    -0.238 NA
ENDROOT
BRANCH   3   6
ATOM      6  C   UNL     1      -5.329  -1.074   5.380  0.00  0.00    -0.019 A 
ATOM      7  C   UNL     1      -6.333  -0.106   5.494  0.00  0.00    +0.009 A 
ATOM      8  C   UNL     1      -7.550  -0.443   6.008  0.00  0.00    +0.010 A 
ATOM      9  C   UNL     1      -7.803  -1.760   6.424  0.00  0.00    +0.003 A 
ATOM     10  C   UNL     1      -6.802  -2.724   6.310  0.00  0.00    -0.037 A 
ATOM     11  C   UNL     1      -5.581  -2.387   5.789  0.00  0.00    +0.012 A 
ATOM     12  C   UNL     1      -7.314  -4.050   6.820  0.00  0.00    +0.042 C 
ATOM     13  C   UNL     1      -8.761  -3.811   7.272  0.00  0.00    +0.064 C 
ATOM     14  C   UNL     1      -9.027  -2.349   7.003  0.00  0.00    +0.088 C 
ATOM     15  N   UNL     1     -10.134  -1.723   7.239  0.00  0.00    -0.092 NA
BRANCH  15  16
ATOM     16  O   UNL     1     -11.235  -2.416   7.800  0.00  0.00    -0.409 OA
ATOM     17  H   UNL     1     -12.017  -1.865   7.939  0.00  0.00    +0.328 HD
ENDBRANCH  15  16
ENDBRANCH   3   6
BRANCH   4  18
ATOM     18  C   UNL     1      -3.592   1.618   5.550  0.00  0.00    -0.016 A 
ATOM     19  C   UNL     1      -3.661   2.460   4.451  0.00  0.00    +0.026 A 
ATOM     20  C   UNL     1      -4.208   3.720   4.601  0.00  0.00    +0.111 A 
ATOM     21  N   UNL     1      -4.661   4.124   5.772  0.00  0.00    -0.263 NA
ATOM     22  C   UNL     1      -4.611   3.350   6.839  0.00  0.00    +0.111 A 
ATOM     23  C   UNL     1      -4.083   2.075   6.763  0.00  0.00    +0.026 A 
ENDBRANCH   4  18
BRANCH   1  24
ATOM     24  O   UNL     1      -1.328  -0.783   2.454  0.00  0.00    -0.478 OA
BRANCH  24  25
ATOM     25  C   UNL     1      -0.071  -0.103   2.448  0.00  0.00    +0.212 C 
BRANCH  25  26
ATOM     26  C   UNL     1       0.713  -0.491   1.192  0.00  0.00    -0.038 C 
BRANCH  26  28
ATOM     27  C   UNL     1      -0.018   1.465   0.010  0.00  0.00    -0.096 C 
ATOM     28  N   UNL     1       0.002  -0.004   0.002  0.00  0.00    +0.378 N 
ATOM     29  C   UNL     1       0.690  -0.478  -1.207  0.00  0.00    -0.096 C 
ATOM     30  H   UNL     1      -0.945  -0.353   0.009  0.00  0.00    -0.082 HD
ENDBRANCH  26  28
ENDBRANCH  25  26
ENDBRANCH  24  25
ENDBRANCH   1  24
TORSDOF 7
