REMARK  Name = CHEMBL1088768
REMARK  6 active torsions:
REMARK  status: ('A' for Active; 'I' for Inactive)
REMARK    1  A    between atoms: C_1  and  N_2
REMARK    2  A    between atoms: C_6  and  C_7
REMARK    3  A    between atoms: C_13  and  C_16
REMARK    4  A    between atoms: C_20  and  N_22
REMARK    5  A    between atoms: C_23  and  C_25
REMARK    6  A    between atoms: C_29  and  C_31
REMARK                            x       y       z     vdW  Elec       q    Type
REMARK                         _______ _______ _______ _____ _____    ______ ____
ROOT
ATOM      1  C   UNL     1       0.920  -2.186   6.417  0.00  0.00    +0.002 A 
ATOM      2  C   UNL     1       2.045  -2.893   5.985  0.00  0.00    +0.010 A 
ATOM      3  C   UNL     1       2.219  -4.209   6.361  0.00  0.00    +0.002 A 
ATOM      4  C   UNL     1       1.283  -4.833   7.164  0.00  0.00    +0.023 A 
ATOM      5  C   UNL     1       0.160  -4.139   7.598  0.00  0.00    +0.034 A 
ATOM      6  C   UNL     1      -0.021  -2.814   7.232  0.00  0.00    +0.033 A 
ENDROOT
BRANCH   1  13
ATOM      7  C   UNL     1       0.243  -0.411   2.504  0.00  0.00    +0.113 A 
ATOM      8  C   UNL     1       0.175   0.905   2.973  0.00  0.00    +0.079 A 
ATOM      9  C   UNL     1       0.356   0.870   4.347  0.00  0.00    +0.157 A 
ATOM     10  N   UNL     1       0.382   1.835   5.277  0.00  0.00    -0.236 NA
ATOM     11  C   UNL     1       0.572   1.554   6.546  0.00  0.00    +0.115 A 
ATOM     12  C   UNL     1       0.755   0.231   6.958  0.00  0.00    +0.048 A 
ATOM     13  C   UNL     1       0.732  -0.777   6.016  0.00  0.00    +0.076 A 
ATOM     14  N   UNL     1       0.529  -0.445   4.698  0.00  0.00    -0.213 N 
ATOM     15  N   UNL     1       0.449  -1.216   3.533  0.00  0.00    -0.163 NA
BRANCH   7  21
ATOM     16  C   UNL     1      -0.514   1.403   0.066  0.00  0.00    +0.150 C 
ATOM     17  N   UNL     1      -0.232  -0.033   0.023  0.00  0.00    -0.332 N 
ATOM     18  C   UNL     1      -0.243  -0.822  -1.073  0.00  0.00    +0.199 A 
ATOM     19  N   UNL     1       0.057  -2.043  -0.722  0.00  0.00    -0.243 NA
ATOM     20  C   UNL     1       0.272  -2.089   0.598  0.00  0.00    +0.140 A 
ATOM     21  C   UNL     1       0.102  -0.833   1.093  0.00  0.00    +0.088 A 
ENDBRANCH   7  21
ENDBRANCH   1  13
BRANCH   5  22
ATOM     22  N   UNL     1      -0.785  -4.775   8.410  0.00  0.00    -0.281 N 
ATOM     23  C   UNL     1      -2.094  -4.487   8.274  0.00  0.00    +0.248 C 
ATOM     24  O   UNL     1      -2.446  -3.604   7.515  0.00  0.00    -0.270 OA
ATOM     25  H   UNL     1      -0.497  -5.424   9.072  0.00  0.00    +0.155 HD
BRANCH  23  26
ATOM     26  C   UNL     1      -3.102  -5.244   9.046  0.00  0.00    +0.038 A 
ATOM     27  C   UNL     1      -2.701  -6.254   9.921  0.00  0.00    +0.013 A 
ATOM     28  C   UNL     1      -3.646  -6.956  10.639  0.00  0.00    +0.001 A 
ATOM     29  C   UNL     1      -4.990  -6.661  10.492  0.00  0.00    +0.012 A 
ATOM     30  C   UNL     1      -5.395  -5.662   9.626  0.00  0.00    +0.056 A 
ATOM     31  C   UNL     1      -4.459  -4.948   8.906  0.00  0.00    +0.025 A 
BRANCH  30  32
ATOM     32  C   UNL     1      -6.861  -5.348   9.472  0.00  0.00    +0.417 C 
ATOM     33  F   UNL     1      -7.608  -6.192  10.301  0.00  0.00    -0.166 F 
ATOM     34  F   UNL     1      -7.093  -4.016   9.832  0.00  0.00    -0.166 F 
ATOM     35  F   UNL     1      -7.243  -5.544   8.141  0.00  0.00    -0.166 F 
ENDBRANCH  30  32
ENDBRANCH  23  26
ENDBRANCH   5  22
TORSDOF 5
