REMARK  Name = CHEMBL258454
REMARK  7 active torsions:
REMARK  status: ('A' for Active; 'I' for Inactive)
REMARK    1  A    between atoms: C_1  and  N_2
REMARK    2  A    between atoms: C_7  and  C_9
REMARK    3  A    between atoms: C_10  and  C_19
REMARK    4  A    between atoms: C_12  and  C_15
REMARK    5  A    between atoms: C_23  and  N_25
REMARK    6  A    between atoms: C_26  and  C_28
REMARK    7  A    between atoms: C_28  and  C_29
REMARK                            x       y       z     vdW  Elec       q    Type
REMARK                         _______ _______ _______ _____ _____    ______ ____
ROOT
ATOM      1  C   UNL     1      -2.120  -3.864   0.235  0.00  0.00    +0.115 A 
ATOM      2  C   UNL     1      -1.149  -4.749  -0.200  0.00  0.00    +0.076 A 
ATOM      3  N   UNL     1      -1.569  -5.999   0.184  0.00  0.00    -0.334 N 
ATOM      4  C   UNL     1      -2.755  -5.848   0.826  0.00  0.00    +0.213 A 
ATOM      5  N   UNL     1      -3.073  -4.584   0.858  0.00  0.00    -0.222 NA
ATOM      6  H   UNL     1      -1.104  -6.835   0.025  0.00  0.00    +0.167 HD
ENDROOT
BRANCH   1  13
ATOM      7  C   UNL     1       0.293   1.675  -0.618  0.00  0.00    +0.128 C 
ATOM      8  N   UNL     1       0.260   0.220  -0.443  0.00  0.00    -0.317 N 
ATOM      9  C   UNL     1      -0.951  -0.429  -0.273  0.00  0.00    +0.215 A 
ATOM     10  N   UNL     1      -2.070   0.281  -0.277  0.00  0.00    -0.223 NA
ATOM     11  C   UNL     1      -3.249  -0.302  -0.118  0.00  0.00    +0.116 A 
ATOM     12  C   UNL     1      -3.308  -1.672   0.054  0.00  0.00    +0.050 A 
ATOM     13  C   UNL     1      -2.110  -2.396   0.054  0.00  0.00    +0.096 A 
ATOM     14  N   UNL     1      -0.961  -1.743  -0.116  0.00  0.00    -0.213 NA
ATOM     15  H   UNL     1       1.086  -0.287  -0.446  0.00  0.00    +0.149 HD
ENDBRANCH   1  13
BRANCH   2  16
ATOM     16  C   UNL     1       0.091  -4.417  -0.930  0.00  0.00    +0.002 A 
ATOM     17  C   UNL     1       0.055  -3.516  -1.997  0.00  0.00    +0.010 A 
ATOM     18  C   UNL     1       1.215  -3.207  -2.678  0.00  0.00    +0.002 A 
ATOM     19  C   UNL     1       2.414  -3.786  -2.308  0.00  0.00    +0.023 A 
ATOM     20  C   UNL     1       2.461  -4.684  -1.249  0.00  0.00    +0.034 A 
ATOM     21  C   UNL     1       1.303  -4.996  -0.554  0.00  0.00    +0.033 A 
BRANCH  20  22
ATOM     22  N   UNL     1       3.677  -5.268  -0.879  0.00  0.00    -0.285 N 
ATOM     23  C   UNL     1       3.701  -6.526  -0.395  0.00  0.00    +0.222 C 
ATOM     24  O   UNL     1       2.684  -7.185  -0.369  0.00  0.00    -0.275 OA
ATOM     25  H   UNL     1       4.503  -4.768  -0.972  0.00  0.00    +0.155 HD
BRANCH  23  26
ATOM     26  C   UNL     1       4.993  -7.113   0.114  0.00  0.00    +0.131 C 
BRANCH  26  27
ATOM     27  C   UNL     1       4.750  -8.520   0.596  0.00  0.00    -0.039 A 
ATOM     28  C   UNL     1       4.391  -8.747   1.911  0.00  0.00    +0.005 A 
ATOM     29  C   UNL     1       4.168 -10.037   2.354  0.00  0.00    +0.020 A 
ATOM     30  C   UNL     1       4.304 -11.101   1.480  0.00  0.00    +0.041 A 
ATOM     31  C   UNL     1       4.663 -10.873   0.164  0.00  0.00    +0.020 A 
ATOM     32  C   UNL     1       4.880  -9.582  -0.279  0.00  0.00    +0.005 A 
ATOM     33 CL   UNL     1       4.025 -12.722   2.035  0.00  0.00    -0.084 Cl
ENDBRANCH  26  27
ENDBRANCH  23  26
ENDBRANCH  20  22
ENDBRANCH   2  16
BRANCH   4  34
ATOM     34  C   UNL     1      -3.574  -6.966   1.417  0.00  0.00    +0.450 C 
ATOM     35  F   UNL     1      -4.867  -6.505   1.688  0.00  0.00    -0.163 F 
ATOM     36  F   UNL     1      -3.639  -8.027   0.506  0.00  0.00    -0.163 F 
ATOM     37  F   UNL     1      -2.977  -7.406   2.603  0.00  0.00    -0.163 F 
ENDBRANCH   4  34
TORSDOF 6
