REMARK  Name = CHEMBL515491
REMARK  7 active torsions:
REMARK  status: ('A' for Active; 'I' for Inactive)
REMARK    1  A    between atoms: C_6  and  C_7
REMARK    2  A    between atoms: C_8  and  C_24
REMARK    3  A    between atoms: C_11  and  C_13
REMARK    4  A    between atoms: N_15  and  C_16
REMARK    5  A    between atoms: C_16  and  C_17
REMARK    6  A    between atoms: C_17  and  N_18
REMARK    7  A    between atoms: N_33  and  O_34
REMARK                            x       y       z     vdW  Elec       q    Type
REMARK                         _______ _______ _______ _____ _____    ______ ____
ROOT
ATOM      1  C   UNL     1      -1.269  -0.763   0.010  0.00  0.00    +0.097 A 
ATOM      2  C   UNL     1      -2.442  -0.394   0.662  0.00  0.00    +0.074 A 
ATOM      3  N   UNL     1      -3.355  -1.378   0.402  0.00  0.00    -0.334 N 
ATOM      4  H   UNL     1      -4.271  -1.411   0.718  0.00  0.00    +0.168 HD
ATOM      5  C   UNL     1      -2.735  -2.307  -0.386  0.00  0.00    +0.195 A 
ATOM      6  N   UNL     1      -1.499  -1.923  -0.614  0.00  0.00    -0.223 NA
ENDROOT
BRANCH   1  12
ATOM      7  C   UNL     1      -0.017   1.391   0.010  0.00  0.00    +0.011 A 
ATOM      8  C   UNL     1       1.164   2.095   0.002  0.00  0.00    +0.011 A 
ATOM      9  C   UNL     1       2.392   1.416  -0.014  0.00  0.00    +0.003 A 
ATOM     10  C   UNL     1       2.407   0.022  -0.021  0.00  0.00    -0.037 A 
ATOM     11  C   UNL     1       1.221  -0.682  -0.013  0.00  0.00    +0.014 A 
ATOM     12  C   UNL     1       0.002  -0.004   0.002  0.00  0.00    +0.003 A 
ATOM     13  C   UNL     1       3.835  -0.470  -0.038  0.00  0.00    +0.042 C 
ATOM     14  C   UNL     1       4.723   0.782  -0.039  0.00  0.00    +0.064 C 
ATOM     15  C   UNL     1       3.768   1.950  -0.024  0.00  0.00    +0.088 C 
ATOM     16  N   UNL     1       4.097   3.201  -0.021  0.00  0.00    -0.092 NA
BRANCH  16  17
ATOM     17  O   UNL     1       5.463   3.574  -0.032  0.00  0.00    -0.409 OA
ATOM     18  H   UNL     1       5.611   4.530  -0.029  0.00  0.00    +0.328 HD
ENDBRANCH  16  17
ENDBRANCH   1  12
BRANCH   2  19
ATOM     19  C   UNL     1      -2.657   0.819   1.476  0.00  0.00    +0.003 A 
ATOM     20  C   UNL     1      -1.704   1.235   2.414  0.00  0.00    +0.030 A 
ATOM     21  C   UNL     1      -1.946   2.375   3.152  0.00  0.00    +0.111 A 
ATOM     22  N   UNL     1      -3.055   3.069   2.983  0.00  0.00    -0.263 NA
ATOM     23  C   UNL     1      -3.979   2.713   2.111  0.00  0.00    +0.111 A 
ATOM     24  C   UNL     1      -3.817   1.590   1.327  0.00  0.00    +0.030 A 
ENDBRANCH   2  19
BRANCH   5  25
ATOM     25  C   UNL     1      -3.356  -3.540  -0.903  0.00  0.00    +0.279 C 
ATOM     26  O   UNL     1      -4.514  -3.797  -0.634  0.00  0.00    -0.267 OA
ATOM     27  N   UNL     1      -2.641  -4.383  -1.675  0.00  0.00    -0.308 N 
ATOM     28  H   UNL     1      -1.718  -4.178  -1.890  0.00  0.00    +0.149 HD
BRANCH  27  29
ATOM     29  C   UNL     1      -3.258  -5.608  -2.189  0.00  0.00    +0.120 C 
BRANCH  29  30
ATOM     30  C   UNL     1      -2.238  -6.379  -3.029  0.00  0.00    +0.103 C 
BRANCH  30  31
ATOM     31  N   UNL     1      -2.857  -7.608  -3.544  0.00  0.00    -0.297 NA
ATOM     32  C   UNL     1      -3.173  -8.537  -2.450  0.00  0.00    +0.112 C 
ATOM     33  C   UNL     1      -3.868  -9.775  -3.023  0.00  0.00    +0.175 C 
ATOM     34  O   UNL     1      -3.027 -10.371  -4.015  0.00  0.00    -0.377 OA
ATOM     35  C   UNL     1      -2.700  -9.494  -5.096  0.00  0.00    +0.175 C 
ATOM     36  C   UNL     1      -1.993  -8.254  -4.543  0.00  0.00    +0.112 C 
ENDBRANCH  30  31
ENDBRANCH  29  30
ENDBRANCH  27  29
ENDBRANCH   5  25
TORSDOF 7
