REMARK  Name = CHEMBL498524
REMARK  4 active torsions:
REMARK  status: ('A' for Active; 'I' for Inactive)
REMARK    1  A    between atoms: C_1  and  N_2
REMARK    2  A    between atoms: C_4  and  C_13
REMARK    3  A    between atoms: C_5  and  C_7
REMARK    4  A    between atoms: N_23  and  O_24
REMARK                            x       y       z     vdW  Elec       q    Type
REMARK                         _______ _______ _______ _____ _____    ______ ____
ROOT
ATOM      1  C   UNL     1      -0.066  -3.385  -1.429  0.00  0.00    -0.014 A 
ATOM      2  C   UNL     1       0.867  -4.401  -1.217  0.00  0.00    +0.009 A 
ATOM      3  C   UNL     1       0.912  -5.477  -2.074  0.00  0.00    +0.012 A 
ATOM      4  C   UNL     1       0.025  -5.549  -3.148  0.00  0.00    +0.021 A 
ATOM      5  C   UNL     1      -0.913  -4.540  -3.360  0.00  0.00    -0.035 A 
ATOM      6  C   UNL     1      -0.956  -3.463  -2.498  0.00  0.00    +0.013 A 
ATOM      7  C   UNL     1      -1.895  -4.608  -4.499  0.00  0.00    +0.054 C 
ATOM      8  C   UNL     1      -1.378  -5.511  -5.618  0.00  0.00    +0.107 C 
ATOM      9  N   UNL     1      -0.933  -6.788  -5.034  0.00  0.00    -0.326 N 
ATOM     10  C   UNL     1       0.084  -6.706  -4.078  0.00  0.00    +0.165 C 
ATOM     11  N   UNL     1       1.031  -7.596  -4.007  0.00  0.00    -0.071 NA
ATOM     12  H   UNL     1      -1.323  -7.636  -5.297  0.00  0.00    +0.148 HD
ENDROOT
BRANCH   1  16
ATOM     13  C   UNL     1      -0.198   1.294   0.320  0.00  0.00    +0.172 C 
ATOM     14  N   UNL     1      -0.173  -0.170   0.256  0.00  0.00    -0.273 N 
ATOM     15  C   UNL     1      -0.124  -0.908  -0.872  0.00  0.00    +0.117 A 
ATOM     16  C   UNL     1      -0.114  -2.223  -0.510  0.00  0.00    +0.027 A 
ATOM     17  C   UNL     1      -0.160  -2.274   0.907  0.00  0.00    +0.100 A 
ATOM     18  N   UNL     1      -0.189  -1.038   1.354  0.00  0.00    -0.171 NA
BRANCH  17  19
ATOM     19  C   UNL     1      -0.167  -3.503   1.736  0.00  0.00    +0.006 A 
ATOM     20  C   UNL     1      -0.817  -4.661   1.299  0.00  0.00    +0.030 A 
ATOM     21  C   UNL     1      -0.799  -5.782   2.103  0.00  0.00    +0.111 A 
ATOM     22  N   UNL     1      -0.180  -5.771   3.268  0.00  0.00    -0.263 NA
ATOM     23  C   UNL     1       0.445  -4.700   3.717  0.00  0.00    +0.111 A 
ATOM     24  C   UNL     1       0.482  -3.538   2.975  0.00  0.00    +0.030 A 
ENDBRANCH  17  19
ENDBRANCH   1  16
BRANCH  11  25
ATOM     25  O   UNL     1       2.133  -7.389  -3.142  0.00  0.00    -0.408 OA
ATOM     26  H   UNL     1       2.784  -8.103  -3.157  0.00  0.00    +0.328 HD
ENDBRANCH  11  25
TORSDOF 3
