REMARK  Name = CHEMBL1089082
REMARK  5 active torsions:
REMARK  status: ('A' for Active; 'I' for Inactive)
REMARK    1  A    between atoms: C_3  and  C_20
REMARK    2  A    between atoms: C_5  and  N_7
REMARK    3  A    between atoms: C_8  and  C_10
REMARK    4  A    between atoms: C_14  and  C_16
REMARK    5  A    between atoms: C_27  and  C_29
REMARK                            x       y       z     vdW  Elec       q    Type
REMARK                         _______ _______ _______ _____ _____    ______ ____
ROOT
ATOM      1  C   UNL     1      -0.005   1.382   0.019  0.00  0.00    +0.002 A 
ATOM      2  C   UNL     1       1.180   2.089   0.021  0.00  0.00    +0.010 A 
ATOM      3  C   UNL     1       2.399   1.408   0.009  0.00  0.00    +0.002 A 
ATOM      4  C   UNL     1       2.413   0.013  -0.005  0.00  0.00    +0.033 A 
ATOM      5  C   UNL     1       1.217  -0.688  -0.007  0.00  0.00    +0.034 A 
ATOM      6  C   UNL     1       0.009  -0.000   0.005  0.00  0.00    +0.023 A 
ENDROOT
BRANCH   3   7
ATOM      7  C   UNL     1       3.669   2.162   0.011  0.00  0.00    +0.076 A 
ATOM      8  C   UNL     1       4.537   2.075   1.079  0.00  0.00    +0.048 A 
ATOM      9  C   UNL     1       5.731   2.801   1.049  0.00  0.00    +0.115 A 
ATOM     10  N   UNL     1       6.023   3.558   0.017  0.00  0.00    -0.236 NA
ATOM     11  C   UNL     1       5.193   3.656  -1.031  0.00  0.00    +0.157 A 
ATOM     12  N   UNL     1       4.011   2.960  -1.055  0.00  0.00    -0.213 N 
ATOM     13  N   UNL     1       3.366   3.249  -2.262  0.00  0.00    -0.164 NA
ATOM     14  C   UNL     1       4.119   4.084  -2.957  0.00  0.00    +0.095 A 
ATOM     15  C   UNL     1       5.268   4.372  -2.217  0.00  0.00    +0.078 A 
BRANCH  14  16
ATOM     16  C   UNL     1       3.791   4.635  -4.295  0.00  0.00    +0.005 A 
ATOM     17  C   UNL     1       4.666   5.510  -4.945  0.00  0.00    +0.030 A 
ATOM     18  C   UNL     1       4.323   5.999  -6.189  0.00  0.00    +0.111 A 
ATOM     19  N   UNL     1       3.187   5.652  -6.763  0.00  0.00    -0.263 NA
ATOM     20  C   UNL     1       2.333   4.829  -6.184  0.00  0.00    +0.111 A 
ATOM     21  C   UNL     1       2.602   4.289  -4.943  0.00  0.00    +0.030 A 
ENDBRANCH  14  16
ENDBRANCH   3   7
BRANCH   5  22
ATOM     22  N   UNL     1       1.226  -2.086  -0.021  0.00  0.00    -0.281 N 
ATOM     23  C   UNL     1       2.182  -2.747  -0.704  0.00  0.00    +0.248 C 
ATOM     24  O   UNL     1       3.084  -2.131  -1.237  0.00  0.00    -0.270 OA
ATOM     25  H   UNL     1       0.544  -2.580   0.460  0.00  0.00    +0.155 HD
BRANCH  23  26
ATOM     26  C   UNL     1       2.133  -4.221  -0.805  0.00  0.00    +0.038 A 
ATOM     27  C   UNL     1       1.095  -4.931  -0.199  0.00  0.00    +0.013 A 
ATOM     28  C   UNL     1       1.055  -6.306  -0.297  0.00  0.00    +0.001 A 
ATOM     29  C   UNL     1       2.041  -6.982  -0.994  0.00  0.00    +0.012 A 
ATOM     30  C   UNL     1       3.072  -6.285  -1.597  0.00  0.00    +0.056 A 
ATOM     31  C   UNL     1       3.121  -4.909  -1.511  0.00  0.00    +0.025 A 
BRANCH  30  32
ATOM     32  C   UNL     1       4.142  -7.029  -2.354  0.00  0.00    +0.417 C 
ATOM     33  F   UNL     1       3.877  -8.402  -2.306  0.00  0.00    -0.166 F 
ATOM     34  F   UNL     1       4.153  -6.602  -3.686  0.00  0.00    -0.166 F 
ATOM     35  F   UNL     1       5.388  -6.774  -1.772  0.00  0.00    -0.166 F 
ENDBRANCH  30  32
ENDBRANCH  23  26
ENDBRANCH   5  22
TORSDOF 5
