REMARK  Name = CHEMBL478190
REMARK  11 active torsions:
REMARK  status: ('A' for Active; 'I' for Inactive)
REMARK    1  A    between atoms: C_1  and  C_2
REMARK    2  A    between atoms: C_2  and  C_3
REMARK    3  A    between atoms: C_2  and  N_34
REMARK    4  A    between atoms: C_3  and  O_4
REMARK    5  A    between atoms: O_4  and  C_5
REMARK    6  A    between atoms: C_9  and  C_11
REMARK    7  A    between atoms: C_14  and  C_28
REMARK    8  A    between atoms: C_15  and  C_17
REMARK    9  A    between atoms: N_26  and  O_27
REMARK   10  A    between atoms: N_34  and  C_35
REMARK   11  A    between atoms: N_34  and  C_36
REMARK                            x       y       z     vdW  Elec       q    Type
REMARK                         _______ _______ _______ _____ _____    ______ ____
ROOT
ATOM      1  C   UNL     1      -6.140   0.266   3.678  0.00  0.00    +0.158 A 
ATOM      2  N   UNL     1      -5.667   1.139   4.615  0.00  0.00    -0.336 N 
ATOM      3  H   UNL     1      -4.748   1.434   4.714  0.00  0.00    +0.167 HD
ATOM      4  C   UNL     1      -6.733   1.520   5.390  0.00  0.00    +0.074 A 
ATOM      5  C   UNL     1      -7.842   0.853   4.887  0.00  0.00    +0.097 A 
ATOM      6  N   UNL     1      -7.433   0.110   3.849  0.00  0.00    -0.226 NA
ENDROOT
BRANCH   5   7
ATOM      7  C   UNL     1      -9.226   0.949   5.401  0.00  0.00    +0.003 A 
ATOM      8  C   UNL     1      -9.757   2.191   5.756  0.00  0.00    +0.011 A 
ATOM      9  C   UNL     1     -11.043   2.278   6.232  0.00  0.00    +0.011 A 
ATOM     10  C   UNL     1     -11.828   1.122   6.366  0.00  0.00    +0.003 A 
ATOM     11  C   UNL     1     -11.295  -0.116   6.011  0.00  0.00    -0.037 A 
ATOM     12  C   UNL     1     -10.006  -0.201   5.527  0.00  0.00    +0.014 A 
ATOM     13  C   UNL     1     -12.325  -1.196   6.242  0.00  0.00    +0.042 C 
ATOM     14  C   UNL     1     -13.575  -0.492   6.787  0.00  0.00    +0.064 C 
ATOM     15  C   UNL     1     -13.215   0.972   6.848  0.00  0.00    +0.088 C 
ATOM     16  N   UNL     1     -13.987   1.929   7.253  0.00  0.00    -0.092 NA
BRANCH  16  17
ATOM     17  O   UNL     1     -15.302   1.640   7.691  0.00  0.00    -0.409 OA
ATOM     18  H   UNL     1     -15.802   2.418   7.974  0.00  0.00    +0.328 HD
ENDBRANCH  16  17
ENDBRANCH   5   7
BRANCH   1  23
ATOM     19  C   UNL     1      -3.291  -0.751   1.615  0.00  0.00    +0.318 A 
ATOM     20  N   UNL     1      -3.826  -1.584   0.736  0.00  0.00    -0.203 NA
ATOM     21  C   UNL     1      -5.120  -1.861   0.759  0.00  0.00    +0.118 A 
ATOM     22  C   UNL     1      -5.922  -1.269   1.718  0.00  0.00    +0.051 A 
ATOM     23  C   UNL     1      -5.328  -0.393   2.633  0.00  0.00    +0.113 A 
ATOM     24  N   UNL     1      -4.017  -0.167   2.551  0.00  0.00    -0.192 NA
BRANCH  19  25
ATOM     25  O   UNL     1      -1.962  -0.496   1.556  0.00  0.00    -0.464 OA
BRANCH  25  26
ATOM     26  C   UNL     1      -1.220  -1.152   0.526  0.00  0.00    +0.217 C 
BRANCH  26  28
ATOM     27  C   UNL     1       0.361   0.782   0.572  0.00  0.00    -0.010 C 
ATOM     28  C   UNL     1       0.252  -0.743   0.618  0.00  0.00    -0.034 C 
BRANCH  28  29
ATOM     29  N   UNL     1       0.819  -1.237   1.880  0.00  0.00    +0.380 N 
ATOM     30  C   UNL     1       0.714  -2.701   1.924  0.00  0.00    -0.096 C 
ATOM     31  C   UNL     1       2.232  -0.844   1.968  0.00  0.00    -0.096 C 
ATOM     32  H   UNL     1       0.311  -0.840   2.656  0.00  0.00    -0.082 HD
ENDBRANCH  28  29
ENDBRANCH  26  28
ENDBRANCH  25  26
ENDBRANCH  19  25
ENDBRANCH   1  23
BRANCH   4  33
ATOM     33  C   UNL     1      -6.707   2.455   6.532  0.00  0.00    +0.003 A 
ATOM     34  C   UNL     1      -7.333   2.130   7.743  0.00  0.00    +0.030 A 
ATOM     35  C   UNL     1      -7.282   3.033   8.784  0.00  0.00    +0.111 A 
ATOM     36  N   UNL     1      -6.657   4.187   8.650  0.00  0.00    -0.263 NA
ATOM     37  C   UNL     1      -6.055   4.533   7.528  0.00  0.00    +0.111 A 
ATOM     38  C   UNL     1      -6.050   3.689   6.438  0.00  0.00    +0.030 A 
ENDBRANCH   4  33
TORSDOF 8
