REMARK  Name = CHEMBL477987
REMARK  5 active torsions:
REMARK  status: ('A' for Active; 'I' for Inactive)
REMARK    1  A    between atoms: C_6  and  C_7
REMARK    2  A    between atoms: C_8  and  C_20
REMARK    3  A    between atoms: C_11  and  C_13
REMARK    4  A    between atoms: C_13  and  N_14
REMARK    5  A    between atoms: N_29  and  O_30
REMARK                            x       y       z     vdW  Elec       q    Type
REMARK                         _______ _______ _______ _____ _____    ______ ____
ROOT
ATOM      1  C   UNL     1      -1.268  -0.763   0.010  0.00  0.00    +0.072 A 
ATOM      2  C   UNL     1      -2.372  -0.507   0.807  0.00  0.00    +0.072 A 
ATOM      3  N   UNL     1      -3.311  -1.457   0.476  0.00  0.00    -0.342 N 
ATOM      4  H   UNL     1      -4.197  -1.547   0.861  0.00  0.00    +0.167 HD
ATOM      5  C   UNL     1      -2.772  -2.241  -0.482  0.00  0.00    +0.100 A 
ATOM      6  N   UNL     1      -1.568  -1.826  -0.760  0.00  0.00    -0.342 N 
ATOM      7  H   UNL     1      -0.977  -2.223  -1.419  0.00  0.00    +0.167 HD
ENDROOT
BRANCH   1  13
ATOM      8  C   UNL     1      -0.017   1.392   0.010  0.00  0.00    +0.010 A 
ATOM      9  C   UNL     1       1.164   2.095   0.002  0.00  0.00    +0.011 A 
ATOM     10  C   UNL     1       2.392   1.416  -0.014  0.00  0.00    +0.003 A 
ATOM     11  C   UNL     1       2.407   0.022  -0.021  0.00  0.00    -0.037 A 
ATOM     12  C   UNL     1       1.221  -0.682  -0.013  0.00  0.00    +0.014 A 
ATOM     13  C   UNL     1       0.002  -0.004   0.002  0.00  0.00    +0.001 A 
ATOM     14  C   UNL     1       3.835  -0.469  -0.038  0.00  0.00    +0.042 C 
ATOM     15  C   UNL     1       4.723   0.782  -0.040  0.00  0.00    +0.064 C 
ATOM     16  C   UNL     1       3.768   1.950  -0.024  0.00  0.00    +0.088 C 
ATOM     17  N   UNL     1       4.097   3.202  -0.021  0.00  0.00    -0.092 NA
BRANCH  17  18
ATOM     18  O   UNL     1       5.463   3.575  -0.032  0.00  0.00    -0.409 OA
ATOM     19  H   UNL     1       5.610   4.530  -0.028  0.00  0.00    +0.328 HD
ENDBRANCH  17  18
ENDBRANCH   1  13
BRANCH   2  20
ATOM     20  C   UNL     1      -2.512   0.567   1.808  0.00  0.00    +0.003 A 
ATOM     21  C   UNL     1      -1.479   0.848   2.714  0.00  0.00    +0.030 A 
ATOM     22  C   UNL     1      -1.653   1.860   3.632  0.00  0.00    +0.111 A 
ATOM     23  N   UNL     1      -2.772   2.560   3.667  0.00  0.00    -0.263 NA
ATOM     24  C   UNL     1      -3.769   2.329   2.833  0.00  0.00    +0.111 A 
ATOM     25  C   UNL     1      -3.679   1.340   1.877  0.00  0.00    +0.030 A 
ENDBRANCH   2  20
BRANCH   5  26
ATOM     26  C   UNL     1      -3.460  -3.412  -1.135  0.00  0.00    +0.156 C 
BRANCH  26  27
ATOM     27  N   UNL     1      -4.564  -3.869  -0.281  0.00  0.00    -0.291 NA
ATOM     28  C   UNL     1      -4.058  -4.428   0.981  0.00  0.00    +0.113 C 
ATOM     29  C   UNL     1      -5.241  -4.836   1.863  0.00  0.00    +0.175 C 
ATOM     30  O   UNL     1      -6.063  -5.765   1.150  0.00  0.00    -0.377 OA
ATOM     31  C   UNL     1      -6.573  -5.253  -0.084  0.00  0.00    +0.175 C 
ATOM     32  C   UNL     1      -5.404  -4.849  -0.986  0.00  0.00    +0.113 C 
ENDBRANCH  26  27
ENDBRANCH   5  26
TORSDOF 5
