REMARK  Name = CHEMBL198244
REMARK  6 active torsions:
REMARK  status: ('A' for Active; 'I' for Inactive)
REMARK    1  A    between atoms: C_1  and  C_2
REMARK    2  A    between atoms: N_4  and  C_5
REMARK    3  A    between atoms: C_9  and  C_11
REMARK    4  A    between atoms: C_15  and  N_17
REMARK    5  A    between atoms: N_17  and  C_18
REMARK    6  A    between atoms: C_22  and  C_24
REMARK                            x       y       z     vdW  Elec       q    Type
REMARK                         _______ _______ _______ _____ _____    ______ ____
ROOT
ATOM      1  C   UNL     1      -3.704  -4.853  -0.844  0.00  0.00    +0.091 A 
ATOM      2  C   UNL     1      -4.888  -4.118  -0.835  0.00  0.00    +0.139 A 
ATOM      3  N   UNL     1      -6.052  -4.739  -0.765  0.00  0.00    -0.258 NA
ATOM      4  C   UNL     1      -6.098  -6.057  -0.704  0.00  0.00    +0.154 A 
ATOM      5  C   UNL     1      -4.919  -6.799  -0.713  0.00  0.00    +0.142 A 
ATOM      6  N   UNL     1      -3.748  -6.181  -0.788  0.00  0.00    -0.229 NA
ENDROOT
BRANCH   1  11
ATOM      7  C   UNL     1      -1.126  -2.119  -1.053  0.00  0.00    +0.034 A 
ATOM      8  C   UNL     1       0.050  -2.859  -1.067  0.00  0.00    +0.023 A 
ATOM      9  C   UNL     1       0.002  -4.239  -1.009  0.00  0.00    +0.002 A 
ATOM     10  C   UNL     1      -1.213  -4.890  -0.936  0.00  0.00    +0.010 A 
ATOM     11  C   UNL     1      -2.398  -4.155  -0.921  0.00  0.00    +0.004 A 
ATOM     12  C   UNL     1      -2.351  -2.764  -0.974  0.00  0.00    +0.033 A 
BRANCH   7  16
ATOM     13  C   UNL     1      -0.138   1.386  -2.007  0.00  0.00    +0.109 C 
ATOM     14  C   UNL     1      -0.129  -0.113  -1.857  0.00  0.00    +0.214 C 
ATOM     15  O   UNL     1       0.729  -0.773  -2.405  0.00  0.00    -0.276 OA
ATOM     16  N   UNL     1      -1.074  -0.722  -1.113  0.00  0.00    -0.286 N 
ATOM     17  H   UNL     1      -1.718  -0.191  -0.619  0.00  0.00    +0.155 HD
ENDBRANCH   7  16
ENDBRANCH   1  11
BRANCH   5  18
ATOM     18  N   UNL     1      -4.970  -8.187  -0.648  0.00  0.00    -0.298 N 
ATOM     19  H   UNL     1      -5.825  -8.643  -0.677  0.00  0.00    +0.154 HD
BRANCH  18  20
ATOM     20  C   UNL     1      -3.788  -8.926  -0.541  0.00  0.00    +0.033 A 
ATOM     21  C   UNL     1      -2.702  -8.403   0.152  0.00  0.00    +0.023 A 
ATOM     22  C   UNL     1      -1.531  -9.129   0.261  0.00  0.00    +0.002 A 
ATOM     23  C   UNL     1      -1.432 -10.378  -0.318  0.00  0.00    +0.012 A 
ATOM     24  C   UNL     1      -2.517 -10.912  -1.016  0.00  0.00    +0.021 A 
ATOM     25  C   UNL     1      -3.700 -10.182  -1.120  0.00  0.00    +0.035 A 
BRANCH  24  26
ATOM     26  C   UNL     1      -2.413 -12.249  -1.637  0.00  0.00    +0.155 A 
ATOM     27  C   UNL     1      -1.334 -13.073  -1.609  0.00  0.00    +0.160 A 
ATOM     28  N   UNL     1      -1.655 -14.183  -2.290  0.00  0.00    -0.224 NA
ATOM     29  C   UNL     1      -2.878 -14.070  -2.729  0.00  0.00    +0.308 A 
ATOM     30  O   UNL     1      -3.375 -12.889  -2.338  0.00  0.00    -0.442 OA
ENDBRANCH  24  26
ENDBRANCH  18  20
ENDBRANCH   5  18
TORSDOF 5
