REMARK  Name = CHEMBL371958
REMARK  5 active torsions:
REMARK  status: ('A' for Active; 'I' for Inactive)
REMARK    1  A    between atoms: C_1  and  C_2
REMARK    2  A    between atoms: N_4  and  C_5
REMARK    3  A    between atoms: C_9  and  C_11
REMARK    4  A    between atoms: C_15  and  N_17
REMARK    5  A    between atoms: N_17  and  C_18
REMARK                            x       y       z     vdW  Elec       q    Type
REMARK                         _______ _______ _______ _____ _____    ______ ____
ROOT
ATOM      1  C   UNL     1      -3.705  -4.853  -0.840  0.00  0.00    +0.091 A 
ATOM      2  C   UNL     1      -4.889  -4.118  -0.830  0.00  0.00    +0.139 A 
ATOM      3  N   UNL     1      -6.052  -4.739  -0.761  0.00  0.00    -0.258 NA
ATOM      4  C   UNL     1      -6.099  -6.057  -0.701  0.00  0.00    +0.154 A 
ATOM      5  C   UNL     1      -4.919  -6.799  -0.710  0.00  0.00    +0.142 A 
ATOM      6  N   UNL     1      -3.749  -6.181  -0.784  0.00  0.00    -0.229 NA
ENDROOT
BRANCH   1  11
ATOM      7  C   UNL     1      -1.127  -2.118  -1.048  0.00  0.00    +0.034 A 
ATOM      8  C   UNL     1       0.049  -2.859  -1.062  0.00  0.00    +0.023 A 
ATOM      9  C   UNL     1       0.002  -4.238  -1.004  0.00  0.00    +0.002 A 
ATOM     10  C   UNL     1      -1.214  -4.889  -0.932  0.00  0.00    +0.010 A 
ATOM     11  C   UNL     1      -2.398  -4.155  -0.917  0.00  0.00    +0.004 A 
ATOM     12  C   UNL     1      -2.351  -2.764  -0.970  0.00  0.00    +0.033 A 
BRANCH   7  16
ATOM     13  C   UNL     1      -0.138   1.387  -2.000  0.00  0.00    +0.109 C 
ATOM     14  C   UNL     1      -0.129  -0.112  -1.850  0.00  0.00    +0.214 C 
ATOM     15  O   UNL     1       0.728  -0.771  -2.398  0.00  0.00    -0.276 OA
ATOM     16  N   UNL     1      -1.075  -0.721  -1.106  0.00  0.00    -0.286 N 
ATOM     17  H   UNL     1      -1.719  -0.191  -0.612  0.00  0.00    +0.155 HD
ENDBRANCH   7  16
ENDBRANCH   1  11
BRANCH   5  18
ATOM     18  N   UNL     1      -4.970  -8.187  -0.646  0.00  0.00    -0.298 N 
ATOM     19  H   UNL     1      -5.826  -8.643  -0.676  0.00  0.00    +0.154 HD
BRANCH  18  20
ATOM     20  C   UNL     1      -3.786  -8.927  -0.539  0.00  0.00    +0.036 A 
ATOM     21  C   UNL     1      -2.701  -8.405   0.153  0.00  0.00    +0.027 A 
ATOM     22  C   UNL     1      -1.532  -9.134   0.259  0.00  0.00    +0.051 A 
ATOM     23  C   UNL     1      -1.439 -10.387  -0.324  0.00  0.00    +0.166 A 
ATOM     24  C   UNL     1      -2.526 -10.914  -1.018  0.00  0.00    +0.168 A 
ATOM     25  C   UNL     1      -3.699 -10.185  -1.120  0.00  0.00    +0.072 A 
ATOM     26  O   UNL     1      -2.184 -12.147  -1.492  0.00  0.00    -0.453 OA
ATOM     27  C   UNL     1      -0.746 -12.198  -1.432  0.00  0.00    +0.466 C 
ATOM     28  O   UNL     1      -0.416 -11.292  -0.363  0.00  0.00    -0.453 OA
ENDBRANCH  18  20
ENDBRANCH   5  18
TORSDOF 4
