REMARK  Name = CHEMBL478190
REMARK  11 active torsions:
REMARK  status: ('A' for Active; 'I' for Inactive)
REMARK    1  A    between atoms: C_1  and  C_2
REMARK    2  A    between atoms: C_2  and  C_3
REMARK    3  A    between atoms: C_2  and  N_34
REMARK    4  A    between atoms: C_3  and  O_4
REMARK    5  A    between atoms: O_4  and  C_5
REMARK    6  A    between atoms: C_9  and  C_11
REMARK    7  A    between atoms: C_14  and  C_28
REMARK    8  A    between atoms: C_15  and  C_17
REMARK    9  A    between atoms: N_26  and  O_27
REMARK   10  A    between atoms: N_34  and  C_35
REMARK   11  A    between atoms: N_34  and  C_36
REMARK                            x       y       z     vdW  Elec       q    Type
REMARK                         _______ _______ _______ _____ _____    ______ ____
ROOT
ATOM      1  C   UNL     1       0.144   0.487   7.147  0.00  0.00    +0.158 A 
ATOM      2  N   UNL     1      -0.923   1.334   7.218  0.00  0.00    -0.336 N 
ATOM      3  H   UNL     1      -1.369   1.761   6.470  0.00  0.00    +0.167 HD
ATOM      4  C   UNL     1      -1.246   1.471   8.545  0.00  0.00    +0.074 A 
ATOM      5  C   UNL     1      -0.344   0.684   9.250  0.00  0.00    +0.097 A 
ATOM      6  N   UNL     1       0.474   0.105   8.360  0.00  0.00    -0.226 NA
ENDROOT
BRANCH   5   7
ATOM      7  C   UNL     1      -0.299   0.512  10.720  0.00  0.00    +0.003 A 
ATOM      8  C   UNL     1      -1.482   0.337  11.441  0.00  0.00    +0.011 A 
ATOM      9  C   UNL     1      -1.437   0.176  12.805  0.00  0.00    +0.011 A 
ATOM     10  C   UNL     1      -0.207   0.189  13.479  0.00  0.00    +0.003 A 
ATOM     11  C   UNL     1       0.973   0.364  12.756  0.00  0.00    -0.037 A 
ATOM     12  C   UNL     1       0.927   0.519  11.386  0.00  0.00    +0.014 A 
ATOM     13  C   UNL     1       2.153   0.341  13.698  0.00  0.00    +0.042 C 
ATOM     14  C   UNL     1       1.579   0.129  15.106  0.00  0.00    +0.064 C 
ATOM     15  C   UNL     1       0.084   0.038  14.918  0.00  0.00    +0.088 C 
ATOM     16  N   UNL     1      -0.790  -0.140  15.856  0.00  0.00    -0.092 NA
BRANCH  16  17
ATOM     17  O   UNL     1      -0.368  -0.270  17.201  0.00  0.00    -0.409 OA
ATOM     18  H   UNL     1      -1.092  -0.400  17.829  0.00  0.00    +0.328 HD
ENDBRANCH  16  17
ENDBRANCH   5   7
BRANCH   1  23
ATOM     19  C   UNL     1       1.003   0.129   3.605  0.00  0.00    +0.318 A 
ATOM     20  N   UNL     1       2.033  -0.704   3.618  0.00  0.00    -0.203 NA
ATOM     21  C   UNL     1       2.502  -1.190   4.756  0.00  0.00    +0.118 A 
ATOM     22  C   UNL     1       1.905  -0.820   5.948  0.00  0.00    +0.051 A 
ATOM     23  C   UNL     1       0.819   0.060   5.902  0.00  0.00    +0.113 A 
ATOM     24  N   UNL     1       0.405   0.513   4.719  0.00  0.00    -0.192 NA
BRANCH  19  25
ATOM     25  O   UNL     1       0.554   0.604   2.418  0.00  0.00    -0.464 OA
BRANCH  25  26
ATOM     26  C   UNL     1       1.234   0.159   1.243  0.00  0.00    +0.217 C 
BRANCH  26  28
ATOM     27  C   UNL     1       0.581   2.318   0.169  0.00  0.00    -0.010 C 
ATOM     28  C   UNL     1       0.591   0.797   0.009  0.00  0.00    -0.034 C 
BRANCH  28  29
ATOM     29  N   UNL     1      -0.788   0.309  -0.131  0.00  0.00    +0.380 N 
ATOM     30  C   UNL     1      -1.405   0.922  -1.315  0.00  0.00    -0.096 C 
ATOM     31  C   UNL     1      -0.777  -1.152  -0.284  0.00  0.00    -0.096 C 
ATOM     32  H   UNL     1      -1.317   0.558   0.691  0.00  0.00    -0.082 HD
ENDBRANCH  28  29
ENDBRANCH  26  28
ENDBRANCH  25  26
ENDBRANCH  19  25
ENDBRANCH   1  23
BRANCH   4  33
ATOM     33  C   UNL     1      -2.334   2.291   9.111  0.00  0.00    +0.003 A 
ATOM     34  C   UNL     1      -2.102   3.146  10.196  0.00  0.00    +0.030 A 
ATOM     35  C   UNL     1      -3.148   3.895  10.692  0.00  0.00    +0.111 A 
ATOM     36  N   UNL     1      -4.353   3.813  10.159  0.00  0.00    -0.263 NA
ATOM     37  C   UNL     1      -4.615   3.021   9.137  0.00  0.00    +0.111 A 
ATOM     38  C   UNL     1      -3.627   2.241   8.573  0.00  0.00    +0.030 A 
ENDBRANCH   4  33
TORSDOF 8
