REMARK  Name = CHEMBL200172
REMARK  7 active torsions:
REMARK  status: ('A' for Active; 'I' for Inactive)
REMARK    1  A    between atoms: C_1  and  C_2
REMARK    2  A    between atoms: C_2  and  C_3
REMARK    3  A    between atoms: C_2  and  C_4
REMARK    4  A    between atoms: C_2  and  C_5
REMARK    5  A    between atoms: C_8  and  C_19
REMARK    6  A    between atoms: C_9  and  C_11
REMARK    7  A    between atoms: C_15  and  O_17
REMARK                            x       y       z     vdW  Elec       q    Type
REMARK                         _______ _______ _______ _____ _____    ______ ____
ROOT
ATOM      1  C   UNL     1       0.707  -0.490  -1.238  0.00  0.00    +0.114 A 
ATOM      2  N   UNL     1       0.123  -1.002  -2.284  0.00  0.00    -0.231 NA
ATOM      3  H   UNL     1       2.716  -0.121  -0.821  0.00  0.00    +0.167 HD
ATOM      4  C   UNL     1       1.051  -1.328  -3.204  0.00  0.00    +0.097 A 
ATOM      5  C   UNL     1       2.288  -0.991  -2.684  0.00  0.00    +0.074 A 
ATOM      6  N   UNL     1       2.049  -0.457  -1.440  0.00  0.00    -0.341 N 
ENDROOT
BRANCH   5   7
ATOM      7  C   UNL     1       3.602  -1.166  -3.336  0.00  0.00    +0.004 A 
ATOM      8  C   UNL     1       3.905  -2.362  -3.991  0.00  0.00    +0.011 A 
ATOM      9  C   UNL     1       5.133  -2.521  -4.599  0.00  0.00    +0.024 A 
ATOM     10  C   UNL     1       6.066  -1.500  -4.563  0.00  0.00    +0.082 A 
ATOM     11  C   UNL     1       5.773  -0.307  -3.913  0.00  0.00    +0.136 A 
ATOM     12  C   UNL     1       4.542  -0.135  -3.305  0.00  0.00    +0.057 A 
ATOM     13 CL   UNL     1       7.609  -1.710  -5.331  0.00  0.00    -0.080 Cl
BRANCH  11  14
ATOM     14  O   UNL     1       6.693   0.693  -3.880  0.00  0.00    -0.505 OA
ATOM     15  H   UNL     1       6.630   1.310  -4.622  0.00  0.00    +0.292 HD
ENDBRANCH  11  14
ENDBRANCH   5   7
BRANCH   4  16
ATOM     16  C   UNL     1       0.795  -1.935  -4.530  0.00  0.00    +0.005 A 
ATOM     17  C   UNL     1       1.585  -1.606  -5.637  0.00  0.00    +0.030 A 
ATOM     18  C   UNL     1       1.312  -2.196  -6.853  0.00  0.00    +0.111 A 
ATOM     19  N   UNL     1       0.321  -3.058  -6.980  0.00  0.00    -0.263 NA
ATOM     20  C   UNL     1      -0.448  -3.396  -5.962  0.00  0.00    +0.111 A 
ATOM     21  C   UNL     1      -0.241  -2.860  -4.709  0.00  0.00    +0.030 A 
ENDBRANCH   4  16
BRANCH   1  23
ATOM     22  C   UNL     1      -0.019   1.526   0.010  0.00  0.00    +0.018 C 
ATOM     23  C   UNL     1       0.002  -0.004   0.002  0.00  0.00    +0.020 C 
ATOM     24  C   UNL     1       0.742  -0.511   1.242  0.00  0.00    +0.018 C 
ATOM     25  C   UNL     1      -1.433  -0.534   0.013  0.00  0.00    +0.018 C 
ENDBRANCH   1  23
TORSDOF 4
