REMARK  Name = CHEMBL165327
REMARK  9 active torsions:
REMARK  status: ('A' for Active; 'I' for Inactive)
REMARK    1  A    between atoms: C_3  and  O_22
REMARK    2  A    between atoms: C_6  and  N_7
REMARK    3  A    between atoms: N_10  and  C_11
REMARK    4  A    between atoms: C_15  and  C_17
REMARK    5  A    between atoms: O_22  and  C_23
REMARK    6  A    between atoms: C_27  and  C_29
REMARK    7  A    between atoms: N_31  and  C_32
REMARK    8  A    between atoms: C_32  and  C_33
REMARK    9  A    between atoms: C_33  and  N_34
REMARK                            x       y       z     vdW  Elec       q    Type
REMARK                         _______ _______ _______ _____ _____    ______ ____
ROOT
ATOM      1  C   UNL     1       0.852  -0.185   1.245  0.00  0.00    +0.027 A 
ATOM      2  C   UNL     1       2.013   0.557   1.336  0.00  0.00    +0.048 A 
ATOM      3  C   UNL     1       2.417   1.347   0.269  0.00  0.00    +0.129 A 
ATOM      4  C   UNL     1       1.654   1.393  -0.889  0.00  0.00    +0.048 A 
ATOM      5  C   UNL     1       0.493   0.651  -0.981  0.00  0.00    +0.027 A 
ATOM      6  C   UNL     1       0.089  -0.140   0.086  0.00  0.00    +0.035 A 
ENDROOT
BRANCH   6   7
ATOM      7  N   UNL     1      -1.089  -0.893  -0.007  0.00  0.00    -0.269 N 
ATOM      8  C   UNL     1      -1.857  -1.081   1.085  0.00  0.00    +0.308 C 
ATOM      9  O   UNL     1      -1.584  -0.514   2.125  0.00  0.00    -0.252 OA
ATOM     10  N   UNL     1      -2.927  -1.898   1.024  0.00  0.00    -0.269 N 
ATOM     11  H   UNL     1      -1.352  -1.280  -0.857  0.00  0.00    +0.156 HD
ATOM     12  H   UNL     1      -3.182  -2.302   0.179  0.00  0.00    +0.156 HD
BRANCH  10  13
ATOM     13  C   UNL     1      -3.671  -2.165   2.179  0.00  0.00    +0.035 A 
ATOM     14  C   UNL     1      -3.852  -1.173   3.134  0.00  0.00    +0.025 A 
ATOM     15  C   UNL     1      -4.587  -1.439   4.273  0.00  0.00    +0.022 A 
ATOM     16  C   UNL     1      -5.142  -2.692   4.463  0.00  0.00    +0.053 A 
ATOM     17  C   UNL     1      -4.962  -3.682   3.514  0.00  0.00    +0.075 A 
ATOM     18  C   UNL     1      -4.234  -3.420   2.369  0.00  0.00    +0.037 A 
ATOM     19 CL   UNL     1      -6.064  -3.023   5.896  0.00  0.00    -0.083 Cl
BRANCH  17  20
ATOM     20  C   UNL     1      -5.568  -5.046   3.724  0.00  0.00    +0.419 C 
ATOM     21  F   UNL     1      -5.252  -5.869   2.638  0.00  0.00    -0.166 F 
ATOM     22  F   UNL     1      -5.056  -5.607   4.899  0.00  0.00    -0.166 F 
ATOM     23  F   UNL     1      -6.957  -4.928   3.831  0.00  0.00    -0.166 F 
ENDBRANCH  17  20
ENDBRANCH  10  13
ENDBRANCH   6   7
BRANCH   3  24
ATOM     24  O   UNL     1       3.560   2.078   0.359  0.00  0.00    -0.456 OA
BRANCH  24  25
ATOM     25  C   UNL     1       4.738   1.409   0.441  0.00  0.00    +0.132 A 
ATOM     26  C   UNL     1       4.783   0.024   0.313  0.00  0.00    +0.066 A 
ATOM     27  C   UNL     1       6.001  -0.625   0.402  0.00  0.00    +0.115 A 
ATOM     28  N   UNL     1       7.114   0.048   0.605  0.00  0.00    -0.250 NA
ATOM     29  C   UNL     1       7.118   1.369   0.734  0.00  0.00    +0.129 A 
ATOM     30  C   UNL     1       5.933   2.093   0.650  0.00  0.00    +0.079 A 
BRANCH  29  31
ATOM     31  C   UNL     1       8.398   2.080   0.962  0.00  0.00    +0.263 C 
ATOM     32  O   UNL     1       8.409   3.290   1.080  0.00  0.00    -0.269 OA
ATOM     33  N   UNL     1       9.551   1.385   1.038  0.00  0.00    -0.309 N 
ATOM     34  H   UNL     1       9.542   0.420   0.944  0.00  0.00    +0.149 HD
BRANCH  33  35
ATOM     35  C   UNL     1      10.816   2.088   1.264  0.00  0.00    +0.120 C 
BRANCH  35  36
ATOM     36  C   UNL     1      11.961   1.075   1.309  0.00  0.00    +0.103 C 
BRANCH  36  37
ATOM     37  N   UNL     1      13.230   1.780   1.535  0.00  0.00    -0.297 NA
ATOM     38  C   UNL     1      13.571   2.632   0.387  0.00  0.00    +0.112 C 
ATOM     39  C   UNL     1      14.866   3.392   0.689  0.00  0.00    +0.175 C 
ATOM     40  O   UNL     1      15.902   2.455   0.994  0.00  0.00    -0.377 OA
ATOM     41  C   UNL     1      15.604   1.608   2.108  0.00  0.00    +0.175 C 
ATOM     42  C   UNL     1      14.316   0.831   1.820  0.00  0.00    +0.112 C 
ENDBRANCH  36  37
ENDBRANCH  35  36
ENDBRANCH  33  35
ENDBRANCH  29  31
ENDBRANCH  24  25
ENDBRANCH   3  24
TORSDOF 9
