REMARK  Name = CHEMBL200783
REMARK  5 active torsions:
REMARK  status: ('A' for Active; 'I' for Inactive)
REMARK    1  A    between atoms: C_4  and  C_7
REMARK    2  A    between atoms: C_10  and  C_19
REMARK    3  A    between atoms: C_11  and  C_13
REMARK    4  A    between atoms: C_22  and  C_25
REMARK    5  A    between atoms: N_26  and  O_27
REMARK                            x       y       z     vdW  Elec       q    Type
REMARK                         _______ _______ _______ _____ _____    ______ ____
ROOT
ATOM      1  C   UNL     1       3.702  -0.689   0.082  0.00  0.00    +0.139 A 
ATOM      2  N   UNL     1       3.856  -2.045   0.057  0.00  0.00    -0.337 N 
ATOM      3  H   UNL     1       3.152  -2.706   0.147  0.00  0.00    +0.167 HD
ATOM      4  C   UNL     1       5.196  -2.298  -0.122  0.00  0.00    +0.074 A 
ATOM      5  C   UNL     1       5.821  -1.062  -0.200  0.00  0.00    +0.097 A 
ATOM      6  N   UNL     1       4.874  -0.118  -0.077  0.00  0.00    -0.227 NA
ENDROOT
BRANCH   1  10
ATOM      7  C   UNL     1       0.014   1.360   0.577  0.00  0.00    +0.000 A 
ATOM      8  C   UNL     1       1.185   2.079   0.419  0.00  0.00    +0.001 A 
ATOM      9  C   UNL     1       2.387   1.420   0.258  0.00  0.00    +0.011 A 
ATOM     10  C   UNL     1       2.418   0.024   0.255  0.00  0.00    +0.017 A 
ATOM     11  C   UNL     1       1.233  -0.695   0.415  0.00  0.00    +0.011 A 
ATOM     12  C   UNL     1       0.038  -0.024   0.575  0.00  0.00    +0.001 A 
ENDBRANCH   1  10
BRANCH   5  13
ATOM     13  C   UNL     1       7.270  -0.826  -0.390  0.00  0.00    +0.005 A 
ATOM     14  C   UNL     1       8.008  -1.587  -1.303  0.00  0.00    +0.030 A 
ATOM     15  C   UNL     1       9.356  -1.334  -1.450  0.00  0.00    +0.111 A 
ATOM     16  N   UNL     1       9.948  -0.390  -0.743  0.00  0.00    -0.263 NA
ATOM     17  C   UNL     1       9.289   0.350   0.128  0.00  0.00    +0.111 A 
ATOM     18  C   UNL     1       7.938   0.168   0.334  0.00  0.00    +0.030 A 
ENDBRANCH   5  13
BRANCH   4  19
ATOM     19  C   UNL     1       5.841  -3.621  -0.212  0.00  0.00    +0.000 A 
ATOM     20  C   UNL     1       6.991  -3.890   0.538  0.00  0.00    +0.010 A 
ATOM     21  C   UNL     1       7.588  -5.116   0.455  0.00  0.00    +0.010 A 
ATOM     22  C   UNL     1       7.050  -6.101  -0.379  0.00  0.00    -0.004 A 
ATOM     23  C   UNL     1       5.900  -5.832  -1.128  0.00  0.00    +0.010 A 
ATOM     24  C   UNL     1       5.300  -4.608  -1.042  0.00  0.00    +0.010 A 
BRANCH  22  25
ATOM     25  C   UNL     1       7.694  -7.424  -0.469  0.00  0.00    +0.160 C 
ATOM     26  N   UNL     1       7.196  -8.336  -1.241  0.00  0.00    -0.095 NA
BRANCH  26  27
ATOM     27  O   UNL     1       7.816  -9.606  -1.327  0.00  0.00    -0.409 OA
ATOM     28  H   UNL     1       7.372 -10.220  -1.928  0.00  0.00    +0.328 HD
ENDBRANCH  26  27
ENDBRANCH  22  25
ENDBRANCH   4  19
TORSDOF 5
