REMARK  Name = CHEMBL602123
REMARK  6 active torsions:
REMARK  status: ('A' for Active; 'I' for Inactive)
REMARK    1  A    between atoms: C_3  and  C_12
REMARK    2  A    between atoms: C_5  and  O_7
REMARK    3  A    between atoms: O_7  and  C_8
REMARK    4  A    between atoms: N_14  and  C_15
REMARK    5  A    between atoms: C_17  and  O_24
REMARK    6  A    between atoms: O_24  and  C_25
REMARK                            x       y       z     vdW  Elec       q    Type
REMARK                         _______ _______ _______ _____ _____    ______ ____
ROOT
ATOM      1  C   UNL     1       4.810   4.281  -0.002  0.00  0.00    +0.076 A 
ATOM      2  C   UNL     1       6.050   3.657  -0.028  0.00  0.00    +0.075 A 
ATOM      3  C   UNL     1       7.205   4.406   0.123  0.00  0.00    +0.168 A 
ATOM      4  C   UNL     1       7.123   5.781   0.302  0.00  0.00    +0.203 A 
ATOM      5  C   UNL     1       5.886   6.404   0.329  0.00  0.00    +0.199 A 
ATOM      6  C   UNL     1       4.730   5.657   0.172  0.00  0.00    +0.183 A 
ATOM      7  F   UNL     1       3.524   6.266   0.193  0.00  0.00    -0.200 F 
ATOM      8  F   UNL     1       5.807   7.742   0.504  0.00  0.00    -0.199 F 
ATOM      9  F   UNL     1       8.250   6.512   0.450  0.00  0.00    -0.198 F 
ENDROOT
BRANCH   1  12
ATOM     10  C   UNL     1       3.579   2.272   0.340  0.00  0.00    +0.248 C 
ATOM     11  O   UNL     1       4.560   1.774   0.857  0.00  0.00    -0.270 OA
ATOM     12  N   UNL     1       3.641   3.525  -0.155  0.00  0.00    -0.279 N 
ATOM     13  H   UNL     1       2.877   3.902  -0.617  0.00  0.00    +0.155 HD
BRANCH  10  16
ATOM     14  C   UNL     1       0.015   1.358  -0.416  0.00  0.00    +0.004 A 
ATOM     15  C   UNL     1       1.190   2.076  -0.338  0.00  0.00    +0.013 A 
ATOM     16  C   UNL     1       2.318   1.506   0.255  0.00  0.00    +0.040 A 
ATOM     17  C   UNL     1       2.251   0.209   0.766  0.00  0.00    +0.059 A 
ATOM     18  C   UNL     1       1.066  -0.503   0.682  0.00  0.00    +0.131 A 
ATOM     19  C   UNL     1      -0.051   0.073   0.090  0.00  0.00    +0.046 A 
BRANCH  18  20
ATOM     20  O   UNL     1       0.996  -1.766   1.178  0.00  0.00    -0.406 OA
BRANCH  20  21
ATOM     21  C   UNL     1      -0.257  -2.442   1.058  0.00  0.00    +0.575 C 
ATOM     22  F   UNL     1      -0.600  -2.550  -0.294  0.00  0.00    -0.133 F 
ATOM     23  F   UNL     1      -0.152  -3.721   1.616  0.00  0.00    -0.133 F 
ATOM     24  F   UNL     1      -1.245  -1.718   1.733  0.00  0.00    -0.133 F 
ENDBRANCH  20  21
ENDBRANCH  18  20
ENDBRANCH  10  16
ENDBRANCH   1  12
BRANCH   3  25
ATOM     25  O   UNL     1       8.420   3.796   0.097  0.00  0.00    -0.451 OA
BRANCH  25  26
ATOM     26  C   UNL     1       8.967   3.413   1.281  0.00  0.00    +0.154 A 
ATOM     27  C   UNL     1       8.340   3.735   2.474  0.00  0.00    +0.048 A 
ATOM     28  C   UNL     1       8.896   3.347   3.680  0.00  0.00    +0.006 A 
ATOM     29  C   UNL     1      10.079   2.635   3.706  0.00  0.00    +0.028 A 
ATOM     30  C   UNL     1      10.716   2.307   2.518  0.00  0.00    +0.070 A 
ATOM     31  C   UNL     1      10.156   2.691   1.300  0.00  0.00    +0.110 A 
ATOM     32  N   UNL     1      11.005   2.220   0.299  0.00  0.00    -0.303 N 
ATOM     33  H   UNL     1      10.879   2.337  -0.656  0.00  0.00    +0.171 HD
ATOM     34  C   UNL     1      12.031   1.573   0.884  0.00  0.00    +0.325 A 
ATOM     35  O   UNL     1      12.952   1.040   0.294  0.00  0.00    -0.247 OA
ATOM     36  N   UNL     1      11.889   1.617   2.222  0.00  0.00    -0.306 N 
ATOM     37  H   UNL     1      12.495   1.224   2.870  0.00  0.00    +0.170 HD
ENDBRANCH  25  26
ENDBRANCH   3  25
TORSDOF 6
