REMARK  Name = CHEMBL399571
REMARK  6 active torsions:
REMARK  status: ('A' for Active; 'I' for Inactive)
REMARK    1  A    between atoms: C_4  and  N_21
REMARK    2  A    between atoms: C_5  and  C_7
REMARK    3  A    between atoms: N_9  and  C_10
REMARK    4  A    between atoms: N_21  and  C_22
REMARK    5  A    between atoms: C_22  and  C_23
REMARK    6  A    between atoms: N_32  and  C_33
REMARK                            x       y       z     vdW  Elec       q    Type
REMARK                         _______ _______ _______ _____ _____    ______ ____
ROOT
ATOM      1  N   UNL     1       3.716  -0.411   0.007  0.00  0.00    -0.339 N 
ATOM      2  H   UNL     1       3.864  -1.368  -0.039  0.00  0.00    +0.146 HD
ENDROOT
BRANCH   1   6
ATOM      3  C   UNL     1      -0.163   1.096   0.212  0.00  0.00    +0.001 A 
ATOM      4  C   UNL     1       0.925   1.949   0.317  0.00  0.00    +0.002 A 
ATOM      5  C   UNL     1       2.211   1.453   0.249  0.00  0.00    +0.024 A 
ATOM      6  C   UNL     1       2.423   0.091   0.075  0.00  0.00    +0.040 A 
ATOM      7  C   UNL     1       1.324  -0.775  -0.031  0.00  0.00    +0.058 A 
ATOM      8  C   UNL     1       0.028  -0.257   0.040  0.00  0.00    +0.015 A 
BRANCH   7   9
ATOM      9  C   UNL     1       1.535  -2.222  -0.215  0.00  0.00    +0.250 C 
ATOM     10  O   UNL     1       2.661  -2.682  -0.180  0.00  0.00    -0.270 OA
ATOM     11  N   UNL     1       0.481  -3.036  -0.424  0.00  0.00    -0.281 N 
ATOM     12  H   UNL     1      -0.406  -2.661  -0.538  0.00  0.00    +0.155 HD
BRANCH  11  13
ATOM     13  C   UNL     1       0.667  -4.423  -0.477  0.00  0.00    +0.037 A 
ATOM     14  C   UNL     1      -0.217  -5.215  -1.198  0.00  0.00    +0.027 A 
ATOM     15  C   UNL     1      -0.035  -6.583  -1.252  0.00  0.00    +0.051 A 
ATOM     16  C   UNL     1       1.030  -7.170  -0.585  0.00  0.00    +0.173 A 
ATOM     17  C   UNL     1       1.917  -6.378   0.139  0.00  0.00    +0.174 A 
ATOM     18  C   UNL     1       1.738  -5.006   0.187  0.00  0.00    +0.073 A 
ATOM     19  O   UNL     1       2.867  -7.185   0.696  0.00  0.00    -0.395 OA
ATOM     20  C   UNL     1       2.319  -8.516   0.645  0.00  0.00    +0.589 C 
ATOM     21  O   UNL     1       1.423  -8.473  -0.482  0.00  0.00    -0.395 OA
ATOM     22  F   UNL     1       3.333  -9.456   0.432  0.00  0.00    -0.125 F 
ATOM     23  F   UNL     1       1.618  -8.804   1.820  0.00  0.00    -0.125 F 
ENDBRANCH  11  13
ENDBRANCH   7   9
ENDBRANCH   1   6
BRANCH   1  24
ATOM     24  C   UNL     1       4.859   0.507   0.003  0.00  0.00    +0.137 C 
BRANCH  24  25
ATOM     25  C   UNL     1       6.139  -0.285  -0.077  0.00  0.00    -0.026 A 
ATOM     26  C   UNL     1       6.782  -0.713   1.077  0.00  0.00    +0.025 A 
ATOM     27  C   UNL     1       7.953  -1.437   0.968  0.00  0.00    +0.113 A 
ATOM     28  N   UNL     1       8.464  -1.724  -0.214  0.00  0.00    -0.240 NA
ATOM     29  C   UNL     1       7.880  -1.334  -1.336  0.00  0.00    +0.126 A 
ATOM     30  C   UNL     1       6.696  -0.607  -1.302  0.00  0.00    +0.049 A 
ATOM     31  N   UNL     1       8.456  -1.660  -2.563  0.00  0.00    -0.254 N 
ATOM     32  C   UNL     1       9.546  -2.451  -2.607  0.00  0.00    +0.309 C 
ATOM     33  O   UNL     1       9.972  -2.956  -1.587  0.00  0.00    -0.252 OA
ATOM     34  N   UNL     1      10.163  -2.683  -3.782  0.00  0.00    -0.269 N 
ATOM     35  H   UNL     1       8.071  -1.317  -3.385  0.00  0.00    +0.158 HD
ATOM     36  H   UNL     1       9.871  -2.220  -4.583  0.00  0.00    +0.156 HD
BRANCH  34  37
ATOM     37  C   UNL     1      11.225  -3.591  -3.848  0.00  0.00    +0.035 A 
ATOM     38  C   UNL     1      11.220  -4.728  -3.049  0.00  0.00    +0.023 A 
ATOM     39  C   UNL     1      12.271  -5.620  -3.117  0.00  0.00    +0.006 A 
ATOM     40  C   UNL     1      13.330  -5.388  -3.979  0.00  0.00    -0.044 A 
ATOM     41  C   UNL     1      13.338  -4.258  -4.776  0.00  0.00    -0.042 A 
ATOM     42  C   UNL     1      12.284  -3.363  -4.715  0.00  0.00    +0.027 A 
ATOM     43  C   UNL     1      14.594  -4.236  -5.621  0.00  0.00    +0.036 C 
ATOM     44  C   UNL     1      15.554  -5.236  -4.943  0.00  0.00    +0.009 C 
ATOM     45  C   UNL     1      14.581  -6.202  -4.235  0.00  0.00    +0.036 C 
ENDBRANCH  34  37
ENDBRANCH  24  25
ENDBRANCH   1  24
TORSDOF 6
