REMARK  Name = CHEMBL472620
REMARK  9 active torsions:
REMARK  status: ('A' for Active; 'I' for Inactive)
REMARK    1  A    between atoms: C_1  and  C_2
REMARK    2  A    between atoms: C_2  and  C_3
REMARK    3  A    between atoms: C_2  and  C_4
REMARK    4  A    between atoms: C_2  and  C_5
REMARK    5  A    between atoms: C_7  and  N_11
REMARK    6  A    between atoms: N_8  and  C_10
REMARK    7  A    between atoms: N_14  and  C_15
REMARK    8  A    between atoms: C_18  and  O_21
REMARK    9  A    between atoms: O_21  and  C_22
REMARK                            x       y       z     vdW  Elec       q    Type
REMARK                         _______ _______ _______ _____ _____    ______ ____
ROOT
ATOM      1  N   UNL     1       3.206   0.019  -2.982  0.00  0.00    -0.254 N 
ATOM      2  C   UNL     1       4.395   0.317  -2.421  0.00  0.00    +0.309 C 
ATOM      3  O   UNL     1       4.504   1.301  -1.714  0.00  0.00    -0.252 OA
ATOM      4  N   UNL     1       5.462  -0.475  -2.642  0.00  0.00    -0.269 N 
ATOM      5  H   UNL     1       3.119  -0.765  -3.545  0.00  0.00    +0.158 HD
ATOM      6  H   UNL     1       5.358  -1.302  -3.138  0.00  0.00    +0.156 HD
ENDROOT
BRANCH   1   9
ATOM      7  C   UNL     1       0.783   2.483  -2.024  0.00  0.00    +0.070 A 
ATOM      8  C   UNL     1       2.080   1.965  -1.988  0.00  0.00    +0.069 A 
ATOM      9  C   UNL     1       2.101   0.839  -2.752  0.00  0.00    +0.124 A 
ATOM     10  N   UNL     1       0.856   0.660  -3.249  0.00  0.00    -0.253 N 
ATOM     11  N   UNL     1       0.049   1.700  -2.773  0.00  0.00    -0.174 NA
ATOM     12  C   UNL     1       0.427  -0.433  -4.126  0.00  0.00    +0.174 C 
BRANCH   7  14
ATOM     13  C   UNL     1       0.820   4.962  -2.058  0.00  0.00    +0.017 C 
ATOM     14  C   UNL     1       0.308   3.726  -1.316  0.00  0.00    +0.006 C 
ATOM     15  C   UNL     1       0.845   3.732   0.117  0.00  0.00    +0.017 C 
ATOM     16  C   UNL     1      -1.221   3.745  -1.289  0.00  0.00    +0.017 C 
ENDBRANCH   7  14
ENDBRANCH   1   9
BRANCH   4  17
ATOM     17  C   UNL     1       6.723  -0.103  -2.157  0.00  0.00    +0.035 A 
ATOM     18  C   UNL     1       7.863  -0.388  -2.896  0.00  0.00    +0.027 A 
ATOM     19  C   UNL     1       9.106  -0.022  -2.418  0.00  0.00    +0.048 A 
ATOM     20  C   UNL     1       9.215   0.630  -1.198  0.00  0.00    +0.129 A 
ATOM     21  C   UNL     1       8.076   0.915  -0.459  0.00  0.00    +0.048 A 
ATOM     22  C   UNL     1       6.832   0.555  -0.939  0.00  0.00    +0.027 A 
BRANCH  20  23
ATOM     23  O   UNL     1      10.438   0.990  -0.727  0.00  0.00    -0.456 OA
BRANCH  23  24
ATOM     24  C   UNL     1      10.983   0.245   0.268  0.00  0.00    +0.131 A 
ATOM     25  C   UNL     1      12.181   0.623   0.870  0.00  0.00    +0.064 A 
ATOM     26  C   UNL     1      12.701  -0.161   1.879  0.00  0.00    +0.086 A 
ATOM     27  N   UNL     1      12.079  -1.256   2.273  0.00  0.00    -0.367 N 
ATOM     28  C   UNL     1      10.943  -1.647   1.727  0.00  0.00    +0.086 A 
ATOM     29  C   UNL     1      10.355  -0.915   0.717  0.00  0.00    +0.064 A 
ATOM     30  H   UNL     1      12.468  -1.789   2.984  0.00  0.00    +0.165 HD
ENDBRANCH  23  24
ENDBRANCH  20  23
ENDBRANCH   4  17
TORSDOF 5
