REMARK  Name = CHEMBL471756
REMARK  7 active torsions:
REMARK  status: ('A' for Active; 'I' for Inactive)
REMARK    1  A    between atoms: C_1  and  C_2
REMARK    2  A    between atoms: C_2  and  C_3
REMARK    3  A    between atoms: C_2  and  C_4
REMARK    4  A    between atoms: C_2  and  C_5
REMARK    5  A    between atoms: N_13  and  C_14
REMARK    6  A    between atoms: C_17  and  C_20
REMARK    7  A    between atoms: C_20  and  C_21
REMARK                            x       y       z     vdW  Elec       q    Type
REMARK                         _______ _______ _______ _____ _____    ______ ____
ROOT
ATOM      1  C   UNL     1       0.706  -0.487  -1.240  0.00  0.00    +0.144 A 
ATOM      2  C   UNL     1       1.980  -0.221  -1.579  0.00  0.00    +0.092 A 
ATOM      3  C   UNL     1       2.253  -0.869  -2.804  0.00  0.00    +0.169 A 
ATOM      4  N   UNL     1       1.168  -1.499  -3.175  0.00  0.00    -0.063 NA
ATOM      5  O   UNL     1       0.176  -1.272  -2.191  0.00  0.00    -0.357 OA
ATOM      6  N   UNL     1       3.464  -0.842  -3.495  0.00  0.00    -0.251 N 
ATOM      7  C   UNL     1       4.508  -0.150  -2.998  0.00  0.00    +0.309 C 
ATOM      8  O   UNL     1       4.394   0.451  -1.947  0.00  0.00    -0.252 OA
ATOM      9  N   UNL     1       5.679  -0.123  -3.666  0.00  0.00    -0.269 N 
ATOM     10  H   UNL     1       3.555  -1.321  -4.333  0.00  0.00    +0.158 HD
ATOM     11  H   UNL     1       5.791  -0.656  -4.468  0.00  0.00    +0.156 HD
ENDROOT
BRANCH   9  12
ATOM     12  C   UNL     1       6.732   0.672  -3.201  0.00  0.00    +0.035 A 
ATOM     13  C   UNL     1       7.581   1.300  -4.103  0.00  0.00    +0.023 A 
ATOM     14  C   UNL     1       8.619   2.084  -3.641  0.00  0.00    +0.006 A 
ATOM     15  C   UNL     1       8.814   2.246  -2.282  0.00  0.00    -0.043 A 
ATOM     16  C   UNL     1       7.971   1.623  -1.381  0.00  0.00    +0.006 A 
ATOM     17  C   UNL     1       6.927   0.842  -1.836  0.00  0.00    +0.023 A 
BRANCH  15  18
ATOM     18  C   UNL     1       9.949   3.102  -1.781  0.00  0.00    +0.070 C 
BRANCH  18  19
ATOM     19  C   UNL     1       9.475   4.524  -1.627  0.00  0.00    -0.040 A 
ATOM     20  C   UNL     1       9.569   5.421  -2.680  0.00  0.00    +0.023 A 
ATOM     21  C   UNL     1       9.124   6.718  -2.501  0.00  0.00    +0.111 A 
ATOM     22  N   UNL     1       8.616   7.104  -1.347  0.00  0.00    -0.263 NA
ATOM     23  C   UNL     1       8.511   6.277  -0.325  0.00  0.00    +0.111 A 
ATOM     24  C   UNL     1       8.929   4.965  -0.431  0.00  0.00    +0.023 A 
ENDBRANCH  18  19
ENDBRANCH  15  18
ENDBRANCH   9  12
BRANCH   1  26
ATOM     25  C   UNL     1      -0.027   1.535  -0.007  0.00  0.00    +0.019 C 
ATOM     26  C   UNL     1      -0.002   0.006  -0.005  0.00  0.00    +0.023 C 
ATOM     27  C   UNL     1       0.738  -0.491   1.239  0.00  0.00    +0.019 C 
ATOM     28  C   UNL     1      -1.436  -0.528   0.008  0.00  0.00    +0.019 C 
ENDBRANCH   1  26
TORSDOF 4
