REMARK  Name = CHEMBL1090804
REMARK  5 active torsions:
REMARK  status: ('A' for Active; 'I' for Inactive)
REMARK    1  A    between atoms: C_3  and  C_20
REMARK    2  A    between atoms: C_5  and  N_7
REMARK    3  A    between atoms: C_8  and  C_10
REMARK    4  A    between atoms: C_14  and  C_16
REMARK    5  A    between atoms: C_24  and  C_26
REMARK                            x       y       z     vdW  Elec       q    Type
REMARK                         _______ _______ _______ _____ _____    ______ ____
ROOT
ATOM      1  C   UNL     1       0.004   1.380   0.175  0.00  0.00    +0.002 A 
ATOM      2  C   UNL     1       1.174   2.089  -0.012  0.00  0.00    +0.010 A 
ATOM      3  C   UNL     1       2.378   1.411  -0.204  0.00  0.00    +0.003 A 
ATOM      4  C   UNL     1       2.395   0.017  -0.207  0.00  0.00    +0.033 A 
ATOM      5  C   UNL     1       1.215  -0.687  -0.019  0.00  0.00    +0.034 A 
ATOM      6  C   UNL     1       0.021  -0.002   0.172  0.00  0.00    +0.023 A 
ENDROOT
BRANCH   3   7
ATOM      7  C   UNL     1       3.635   2.170  -0.405  0.00  0.00    +0.089 A 
ATOM      8  C   UNL     1       3.637   3.373  -1.091  0.00  0.00    +0.064 A 
ATOM      9  C   UNL     1       4.835   4.101  -1.285  0.00  0.00    +0.082 A 
ATOM     10  C   UNL     1       4.702   5.303  -1.996  0.00  0.00    +0.044 A 
ATOM     11  C   UNL     1       3.479   5.694  -2.445  0.00  0.00    +0.022 A 
ATOM     12  S   UNL     1       2.411   4.375  -1.889  0.00  0.00    -0.085 S 
ATOM     13  N   UNL     1       5.951   3.541  -0.760  0.00  0.00    -0.235 NA
ATOM     14  C   UNL     1       5.905   2.401  -0.119  0.00  0.00    +0.222 A 
ATOM     15  N   UNL     1       4.795   1.715   0.075  0.00  0.00    -0.234 NA
BRANCH  11  16
ATOM     16  C   UNL     1       3.122   6.911  -3.205  0.00  0.00    -0.008 A 
ATOM     17  C   UNL     1       4.098   7.847  -3.565  0.00  0.00    +0.029 A 
ATOM     18  C   UNL     1       3.720   8.968  -4.274  0.00  0.00    +0.111 A 
ATOM     19  N   UNL     1       2.460   9.163  -4.612  0.00  0.00    -0.263 NA
ATOM     20  C   UNL     1       1.509   8.307  -4.293  0.00  0.00    +0.111 A 
ATOM     21  C   UNL     1       1.798   7.156  -3.589  0.00  0.00    +0.029 A 
ENDBRANCH  11  16
ENDBRANCH   3   7
BRANCH   5  22
ATOM     22  N   UNL     1       1.227  -2.085  -0.021  0.00  0.00    -0.281 N 
ATOM     23  C   UNL     1       2.297  -2.751   0.458  0.00  0.00    +0.248 C 
ATOM     24  O   UNL     1       3.209  -2.140   0.980  0.00  0.00    -0.270 OA
ATOM     25  H   UNL     1       0.466  -2.576  -0.368  0.00  0.00    +0.155 HD
BRANCH  23  26
ATOM     26  C   UNL     1       2.361  -4.224   0.349  0.00  0.00    +0.038 A 
ATOM     27  C   UNL     1       1.317  -4.928  -0.255  0.00  0.00    +0.013 A 
ATOM     28  C   UNL     1       1.383  -6.302  -0.354  0.00  0.00    +0.001 A 
ATOM     29  C   UNL     1       2.479  -6.983   0.145  0.00  0.00    +0.012 A 
ATOM     30  C   UNL     1       3.517  -6.291   0.744  0.00  0.00    +0.056 A 
ATOM     31  C   UNL     1       3.467  -4.916   0.844  0.00  0.00    +0.025 A 
BRANCH  30  32
ATOM     32  C   UNL     1       4.707  -7.041   1.285  0.00  0.00    +0.417 C 
ATOM     33  F   UNL     1       4.534  -8.412   1.065  0.00  0.00    -0.166 F 
ATOM     34  F   UNL     1       5.867  -6.607   0.633  0.00  0.00    -0.166 F 
ATOM     35  F   UNL     1       4.825  -6.801   2.658  0.00  0.00    -0.166 F 
ENDBRANCH  30  32
ENDBRANCH  23  26
ENDBRANCH   5  22
TORSDOF 5
