REMARK  Name = CHEMBL403854
REMARK  7 active torsions:
REMARK  status: ('A' for Active; 'I' for Inactive)
REMARK    1  A    between atoms: C_1  and  N_2
REMARK    2  A    between atoms: C_7  and  C_9
REMARK    3  A    between atoms: C_10  and  C_18
REMARK    4  A    between atoms: C_12  and  C_15
REMARK    5  A    between atoms: C_22  and  N_24
REMARK    6  A    between atoms: C_25  and  C_27
REMARK    7  A    between atoms: C_27  and  C_28
REMARK                            x       y       z     vdW  Elec       q    Type
REMARK                         _______ _______ _______ _____ _____    ______ ____
ROOT
ATOM      1  C   UNL     1       0.964  -3.808  -2.015  0.00  0.00    +0.091 A 
ATOM      2  C   UNL     1       0.857  -4.730  -0.988  0.00  0.00    +0.073 A 
ATOM      3  N   UNL     1       0.752  -5.947  -1.550  0.00  0.00    -0.343 N 
ATOM      4  C   UNL     1       0.788  -5.833  -2.849  0.00  0.00    +0.088 A 
ATOM      5  N   UNL     1       0.912  -4.532  -3.186  0.00  0.00    -0.341 N 
ATOM      6  H   UNL     1       0.958  -4.174  -4.086  0.00  0.00    +0.167 HD
ATOM      7  H   UNL     1       0.664  -6.782  -1.064  0.00  0.00    +0.167 HD
ENDROOT
BRANCH   1  14
ATOM      8  C   UNL     1       0.427   1.665   0.620  0.00  0.00    +0.128 C 
ATOM      9  N   UNL     1       0.307   0.212   0.471  0.00  0.00    -0.317 N 
ATOM     10  C   UNL     1       0.778  -0.407  -0.674  0.00  0.00    +0.215 A 
ATOM     11  N   UNL     1       1.339   0.329  -1.622  0.00  0.00    -0.223 NA
ATOM     12  C   UNL     1       1.803  -0.225  -2.733  0.00  0.00    +0.116 A 
ATOM     13  C   UNL     1       1.698  -1.592  -2.902  0.00  0.00    +0.050 A 
ATOM     14  C   UNL     1       1.100  -2.346  -1.883  0.00  0.00    +0.094 A 
ATOM     15  N   UNL     1       0.660  -1.720  -0.790  0.00  0.00    -0.213 NA
ATOM     16  H   UNL     1      -0.102  -0.315   1.175  0.00  0.00    +0.149 HD
ENDBRANCH   1  14
BRANCH   2  17
ATOM     17  C   UNL     1       0.858  -4.430   0.463  0.00  0.00    +0.002 A 
ATOM     18  C   UNL     1       1.786  -3.533   0.992  0.00  0.00    +0.010 A 
ATOM     19  C   UNL     1       1.785  -3.256   2.344  0.00  0.00    +0.002 A 
ATOM     20  C   UNL     1       0.866  -3.864   3.178  0.00  0.00    +0.023 A 
ATOM     21  C   UNL     1      -0.062  -4.760   2.661  0.00  0.00    +0.034 A 
ATOM     22  C   UNL     1      -0.072  -5.040   1.303  0.00  0.00    +0.033 A 
BRANCH  21  23
ATOM     23  N   UNL     1      -0.990  -5.374   3.509  0.00  0.00    -0.285 N 
ATOM     24  C   UNL     1      -1.469  -4.709   4.579  0.00  0.00    +0.222 C 
ATOM     25  O   UNL     1      -1.171  -3.546   4.753  0.00  0.00    -0.275 OA
ATOM     26  H   UNL     1      -1.288  -6.279   3.327  0.00  0.00    +0.155 HD
BRANCH  24  27
ATOM     27  C   UNL     1      -2.375  -5.409   5.558  0.00  0.00    +0.131 C 
BRANCH  27  28
ATOM     28  C   UNL     1      -2.767  -4.452   6.653  0.00  0.00    -0.039 A 
ATOM     29  C   UNL     1      -1.990  -4.349   7.792  0.00  0.00    +0.005 A 
ATOM     30  C   UNL     1      -2.349  -3.471   8.797  0.00  0.00    +0.020 A 
ATOM     31  C   UNL     1      -3.486  -2.694   8.663  0.00  0.00    +0.041 A 
ATOM     32  C   UNL     1      -4.264  -2.797   7.524  0.00  0.00    +0.020 A 
ATOM     33  C   UNL     1      -3.901  -3.672   6.517  0.00  0.00    +0.005 A 
ATOM     34 CL   UNL     1      -3.938  -1.591   9.926  0.00  0.00    -0.084 Cl
ENDBRANCH  27  28
ENDBRANCH  24  27
ENDBRANCH  21  23
ENDBRANCH   2  17
BRANCH   4  35
ATOM     35  C   UNL     1       0.699  -6.978  -3.825  0.00  0.00    +0.053 C 
ATOM     36  C   UNL     1       1.490  -6.859  -5.129  0.00  0.00    +0.012 C 
ATOM     37  C   UNL     1      -0.035  -6.727  -5.144  0.00  0.00    +0.012 C 
ENDBRANCH   4  35
TORSDOF 6
