REMARK  Name = CHEMBL477989
REMARK  10 active torsions:
REMARK  status: ('A' for Active; 'I' for Inactive)
REMARK    1  A    between atoms: C_1  and  N_2
REMARK    2  A    between atoms: N_2  and  C_3
REMARK    3  A    between atoms: N_2  and  C_4
REMARK    4  A    between atoms: C_4  and  C_5
REMARK    5  A    between atoms: C_5  and  O_6
REMARK    6  A    between atoms: O_6  and  C_7
REMARK    7  A    between atoms: C_10  and  C_13
REMARK    8  A    between atoms: C_16  and  C_30
REMARK    9  A    between atoms: C_17  and  C_19
REMARK   10  A    between atoms: N_28  and  O_29
REMARK                            x       y       z     vdW  Elec       q    Type
REMARK                         _______ _______ _______ _____ _____    ______ ____
ROOT
ATOM      1  C   UNL     1      -0.461  -8.086   1.794  0.00  0.00    +0.139 A 
ATOM      2  N   UNL     1      -0.011  -8.580   2.984  0.00  0.00    -0.337 N 
ATOM      3  H   UNL     1       0.351  -8.064   3.722  0.00  0.00    +0.167 HD
ATOM      4  C   UNL     1      -0.168  -9.947   2.942  0.00  0.00    +0.074 A 
ATOM      5  C   UNL     1      -0.718 -10.240   1.704  0.00  0.00    +0.097 A 
ATOM      6  N   UNL     1      -0.883  -9.081   1.046  0.00  0.00    -0.227 NA
ENDROOT
BRANCH   5   7
ATOM      7  C   UNL     1      -1.066 -11.587   1.200  0.00  0.00    +0.003 A 
ATOM      8  C   UNL     1      -1.687 -12.511   2.044  0.00  0.00    +0.011 A 
ATOM      9  C   UNL     1      -2.010 -13.761   1.575  0.00  0.00    +0.011 A 
ATOM     10  C   UNL     1      -1.718 -14.116   0.249  0.00  0.00    +0.003 A 
ATOM     11  C   UNL     1      -1.098 -13.192  -0.591  0.00  0.00    -0.037 A 
ATOM     12  C   UNL     1      -0.780 -11.935  -0.120  0.00  0.00    +0.014 A 
ATOM     13  C   UNL     1      -0.892 -13.805  -1.956  0.00  0.00    +0.042 C 
ATOM     14  C   UNL     1      -1.457 -15.229  -1.880  0.00  0.00    +0.064 C 
ATOM     15  C   UNL     1      -1.968 -15.382  -0.468  0.00  0.00    +0.088 C 
ATOM     16  N   UNL     1      -2.527 -16.439   0.028  0.00  0.00    -0.092 NA
BRANCH  16  17
ATOM     17  O   UNL     1      -2.705 -17.590  -0.777  0.00  0.00    -0.409 OA
ATOM     18  H   UNL     1      -3.131 -18.327  -0.320  0.00  0.00    +0.328 HD
ENDBRANCH  16  17
ENDBRANCH   5   7
BRANCH   1  22
ATOM     19  C   UNL     1      -0.509  -3.984   0.691  0.00  0.00    +0.120 A 
ATOM     20  C   UNL     1      -0.985  -4.944  -0.193  0.00  0.00    +0.046 A 
ATOM     21  C   UNL     1      -0.971  -6.276   0.162  0.00  0.00    +0.015 A 
ATOM     22  C   UNL     1      -0.478  -6.659   1.411  0.00  0.00    +0.018 A 
ATOM     23  C   UNL     1      -0.001  -5.691   2.296  0.00  0.00    +0.015 A 
ATOM     24  C   UNL     1      -0.014  -4.361   1.933  0.00  0.00    +0.046 A 
BRANCH  19  25
ATOM     25  O   UNL     1      -0.524  -2.672   0.338  0.00  0.00    -0.494 OA
BRANCH  25  26
ATOM     26  C   UNL     1      -1.048  -2.354  -0.953  0.00  0.00    +0.210 C 
BRANCH  26  27
ATOM     27  C   UNL     1      -0.984  -0.841  -1.170  0.00  0.00    -0.038 C 
BRANCH  27  29
ATOM     28  C   UNL     1       1.094  -0.977  -2.361  0.00  0.00    -0.096 C 
ATOM     29  N   UNL     1       0.420  -0.407  -1.186  0.00  0.00    +0.378 N 
ATOM     30  C   UNL     1       0.479   1.059  -1.251  0.00  0.00    -0.096 C 
ATOM     31  H   UNL     1       0.880  -0.726  -0.347  0.00  0.00    -0.082 HD
ENDBRANCH  27  29
ENDBRANCH  26  27
ENDBRANCH  25  26
ENDBRANCH  19  25
ENDBRANCH   1  22
BRANCH   4  32
ATOM     32  C   UNL     1       0.182 -10.909   4.004  0.00  0.00    +0.003 A 
ATOM     33  C   UNL     1       0.915 -12.068   3.714  0.00  0.00    +0.030 A 
ATOM     34  C   UNL     1       1.219 -12.940   4.737  0.00  0.00    +0.111 A 
ATOM     35  N   UNL     1       0.829 -12.695   5.974  0.00  0.00    -0.263 NA
ATOM     36  C   UNL     1       0.137 -11.617   6.292  0.00  0.00    +0.111 A 
ATOM     37  C   UNL     1      -0.206 -10.688   5.333  0.00  0.00    +0.030 A 
ENDBRANCH   4  32
TORSDOF 8
