REMARK  Name = CHEMBL1076204
REMARK  6 active torsions:
REMARK  status: ('A' for Active; 'I' for Inactive)
REMARK    1  A    between atoms: C_1  and  N_2
REMARK    2  A    between atoms: C_11  and  C_14
REMARK    3  A    between atoms: C_22  and  C_23
REMARK    4  A    between atoms: C_25  and  N_30
REMARK    5  A    between atoms: C_31  and  C_33
REMARK    6  A    between atoms: C_37  and  C_39
REMARK                            x       y       z     vdW  Elec       q    Type
REMARK                         _______ _______ _______ _____ _____    ______ ____
ROOT
ATOM      1  C   UNL     1      -2.240  -6.716   4.299  0.00  0.00    +0.047 A 
ATOM      2  C   UNL     1      -3.404  -6.734   5.074  0.00  0.00    +0.145 A 
ATOM      3  N   UNL     1      -3.451  -7.861   5.743  0.00  0.00    -0.172 NA
ATOM      4  N   UNL     1      -2.322  -8.627   5.433  0.00  0.00    -0.213 N 
ATOM      5  C   UNL     1      -1.568  -7.923   4.531  0.00  0.00    +0.164 A 
ATOM      6  N   UNL     1      -0.425  -8.425   4.054  0.00  0.00    -0.236 NA
ATOM      7  C   UNL     1       0.010  -9.607   4.430  0.00  0.00    +0.115 A 
ATOM      8  C   UNL     1      -0.719 -10.371   5.344  0.00  0.00    +0.048 A 
ATOM      9  C   UNL     1      -1.898  -9.865   5.854  0.00  0.00    +0.079 A 
ENDROOT
BRANCH   1  20
ATOM     10  C   UNL     1       0.026   1.445  -0.006  0.00  0.00    -0.096 C 
ATOM     11  N   UNL     1       0.051  -0.024  -0.008  0.00  0.00    +0.380 N 
ATOM     12  C   UNL     1      -1.325  -0.535  -0.020  0.00  0.00    -0.060 C 
ATOM     13  C   UNL     1      -1.300  -2.063  -0.138  0.00  0.00    +0.088 C 
ATOM     14  N   UNL     1      -0.462  -2.600   0.944  0.00  0.00    -0.320 N 
ATOM     15  C   UNL     1       0.880  -2.027   1.132  0.00  0.00    +0.088 C 
ATOM     16  C   UNL     1       0.752  -0.501   1.190  0.00  0.00    -0.060 C 
ATOM     17  C   UNL     1      -0.925  -3.622   1.767  0.00  0.00    +0.099 A 
ATOM     18  C   UNL     1      -2.235  -4.072   1.633  0.00  0.00    +0.042 A 
ATOM     19  C   UNL     1      -2.688  -5.086   2.453  0.00  0.00    +0.013 A 
ATOM     20  C   UNL     1      -1.803  -5.626   3.395  0.00  0.00    +0.003 A 
ATOM     21  C   UNL     1      -0.506  -5.124   3.470  0.00  0.00    +0.092 A 
ATOM     22  N   UNL     1      -0.111  -4.158   2.664  0.00  0.00    -0.349 N 
ATOM     23  H   UNL     1       0.798  -3.828   2.733  0.00  0.00    +0.167 HD
ATOM     24  H   UNL     1       0.536  -0.349  -0.832  0.00  0.00    -0.082 HD
ENDBRANCH   1  20
BRANCH   9  25
ATOM     25  C   UNL     1      -2.696 -10.646   6.820  0.00  0.00    +0.037 A 
ATOM     26  C   UNL     1      -2.286 -10.743   8.151  0.00  0.00    +0.036 A 
ATOM     27  C   UNL     1      -3.040 -11.476   9.052  0.00  0.00    +0.034 A 
ATOM     28  C   UNL     1      -4.202 -12.115   8.631  0.00  0.00    +0.026 A 
ATOM     29  C   UNL     1      -4.609 -12.021   7.314  0.00  0.00    +0.041 A 
ATOM     30  C   UNL     1      -3.869 -11.286   6.407  0.00  0.00    +0.133 A 
ATOM     31  F   UNL     1      -4.274 -11.192   5.122  0.00  0.00    -0.205 F 
BRANCH  27  32
ATOM     32  N   UNL     1      -2.632 -11.576  10.387  0.00  0.00    -0.281 N 
ATOM     33  C   UNL     1      -2.025 -10.533  10.986  0.00  0.00    +0.248 C 
ATOM     34  O   UNL     1      -1.919  -9.473  10.400  0.00  0.00    -0.270 OA
ATOM     35  H   UNL     1      -2.787 -12.396  10.882  0.00  0.00    +0.155 HD
BRANCH  33  36
ATOM     36  C   UNL     1      -1.487 -10.677  12.355  0.00  0.00    +0.038 A 
ATOM     37  C   UNL     1      -1.602 -11.894  13.029  0.00  0.00    +0.013 A 
ATOM     38  C   UNL     1      -1.098 -12.022  14.307  0.00  0.00    +0.001 A 
ATOM     39  C   UNL     1      -0.479 -10.947  14.921  0.00  0.00    +0.012 A 
ATOM     40  C   UNL     1      -0.363  -9.737  14.259  0.00  0.00    +0.056 A 
ATOM     41  C   UNL     1      -0.858  -9.598  12.978  0.00  0.00    +0.025 A 
BRANCH  40  42
ATOM     42  C   UNL     1       0.311  -8.572  14.935  0.00  0.00    +0.417 C 
ATOM     43  F   UNL     1       0.731  -8.954  16.214  0.00  0.00    -0.166 F 
ATOM     44  F   UNL     1       1.419  -8.171  14.181  0.00  0.00    -0.166 F 
ATOM     45  F   UNL     1      -0.591  -7.508  15.040  0.00  0.00    -0.166 F 
ENDBRANCH  40  42
ENDBRANCH  33  36
ENDBRANCH  27  32
ENDBRANCH   9  25
TORSDOF 5
