REMARK  Name = CHEMBL477987
REMARK  5 active torsions:
REMARK  status: ('A' for Active; 'I' for Inactive)
REMARK    1  A    between atoms: C_6  and  C_7
REMARK    2  A    between atoms: C_8  and  C_20
REMARK    3  A    between atoms: C_11  and  C_13
REMARK    4  A    between atoms: C_13  and  N_14
REMARK    5  A    between atoms: N_29  and  O_30
REMARK                            x       y       z     vdW  Elec       q    Type
REMARK                         _______ _______ _______ _____ _____    ______ ____
ROOT
ATOM      1  C   UNL     1      -1.246  -0.794  -0.037  0.00  0.00    +0.074 A 
ATOM      2  C   UNL     1      -2.419  -0.456  -0.690  0.00  0.00    +0.097 A 
ATOM      3  N   UNL     1      -3.347  -1.371  -0.353  0.00  0.00    -0.231 NA
ATOM      4  H   UNL     1      -0.901  -2.423   1.244  0.00  0.00    +0.167 HD
ATOM      5  C   UNL     1      -2.823  -2.245   0.459  0.00  0.00    +0.122 A 
ATOM      6  N   UNL     1      -1.522  -1.934   0.681  0.00  0.00    -0.340 N 
ENDROOT
BRANCH   1  12
ATOM      7  C   UNL     1       0.083   1.309   0.046  0.00  0.00    +0.010 A 
ATOM      8  C   UNL     1       1.276   1.967  -0.017  0.00  0.00    +0.011 A 
ATOM      9  C   UNL     1       2.467   1.256  -0.233  0.00  0.00    +0.003 A 
ATOM     10  C   UNL     1       2.424  -0.130  -0.384  0.00  0.00    -0.037 A 
ATOM     11  C   UNL     1       1.227  -0.790  -0.321  0.00  0.00    +0.014 A 
ATOM     12  C   UNL     1       0.043  -0.080  -0.105  0.00  0.00    +0.001 A 
ATOM     13  C   UNL     1       3.822  -0.659  -0.602  0.00  0.00    +0.042 C 
ATOM     14  C   UNL     1       4.755   0.558  -0.572  0.00  0.00    +0.064 C 
ATOM     15  C   UNL     1       3.855   1.747  -0.336  0.00  0.00    +0.088 C 
ATOM     16  N   UNL     1       4.234   2.981  -0.241  0.00  0.00    -0.092 NA
BRANCH  16  17
ATOM     17  O   UNL     1       5.606   3.311  -0.361  0.00  0.00    -0.409 OA
ATOM     18  H   UNL     1       5.792   4.256  -0.276  0.00  0.00    +0.328 HD
ENDBRANCH  16  17
ENDBRANCH   1  12
BRANCH   2  19
ATOM     19  C   UNL     1      -2.617   0.702  -1.591  0.00  0.00    +0.005 A 
ATOM     20  C   UNL     1      -1.646   1.051  -2.537  0.00  0.00    +0.030 A 
ATOM     21  C   UNL     1      -1.872   2.137  -3.357  0.00  0.00    +0.111 A 
ATOM     22  N   UNL     1      -2.983   2.841  -3.258  0.00  0.00    -0.263 NA
ATOM     23  C   UNL     1      -3.924   2.546  -2.381  0.00  0.00    +0.111 A 
ATOM     24  C   UNL     1      -3.783   1.473  -1.526  0.00  0.00    +0.030 A 
ENDBRANCH   2  19
BRANCH   5  25
ATOM     25  C   UNL     1      -3.550  -3.423   1.056  0.00  0.00    +0.158 C 
BRANCH  25  26
ATOM     26  N   UNL     1      -4.261  -2.996   2.269  0.00  0.00    -0.291 NA
ATOM     27  C   UNL     1      -3.315  -2.606   3.324  0.00  0.00    +0.113 C 
ATOM     28  C   UNL     1      -4.096  -2.113   4.545  0.00  0.00    +0.175 C 
ATOM     29  O   UNL     1      -4.995  -3.139   4.976  0.00  0.00    -0.377 OA
ATOM     30  C   UNL     1      -5.931  -3.543   3.973  0.00  0.00    +0.175 C 
ATOM     31  C   UNL     1      -5.168  -4.050   2.746  0.00  0.00    +0.113 C 
ENDBRANCH  25  26
ENDBRANCH   5  25
TORSDOF 5
