REMARK  Name = CHEMBL521731
REMARK  4 active torsions:
REMARK  status: ('A' for Active; 'I' for Inactive)
REMARK    1  A    between atoms: C_1  and  N_2
REMARK    2  A    between atoms: C_4  and  C_13
REMARK    3  A    between atoms: C_5  and  C_7
REMARK    4  A    between atoms: N_22  and  O_23
REMARK                            x       y       z     vdW  Elec       q    Type
REMARK                         _______ _______ _______ _____ _____    ______ ____
ROOT
ATOM      1  C   UNL     1      -0.018   1.461   0.010  0.00  0.00    +0.172 C 
ATOM      2  N   UNL     1       0.002  -0.004   0.002  0.00  0.00    -0.273 N 
ATOM      3  C   UNL     1       0.008  -0.786  -1.096  0.00  0.00    +0.117 A 
ATOM      4  C   UNL     1       0.027  -2.086  -0.683  0.00  0.00    +0.027 A 
ATOM      5  C   UNL     1       0.034  -2.081   0.735  0.00  0.00    +0.102 A 
ATOM      6  N   UNL     1       0.025  -0.828   1.133  0.00  0.00    -0.171 NA
ENDROOT
BRANCH   4   7
ATOM      7  C   UNL     1       0.040  -3.283  -1.557  0.00  0.00    -0.014 A 
ATOM      8  C   UNL     1       0.976  -4.296  -1.341  0.00  0.00    +0.009 A 
ATOM      9  C   UNL     1       0.986  -5.405  -2.152  0.00  0.00    +0.010 A 
ATOM     10  C   UNL     1       0.058  -5.527  -3.197  0.00  0.00    +0.003 A 
ATOM     11  C   UNL     1      -0.876  -4.514  -3.409  0.00  0.00    -0.037 A 
ATOM     12  C   UNL     1      -0.887  -3.403  -2.591  0.00  0.00    +0.013 A 
ATOM     13  C   UNL     1      -1.757  -4.873  -4.582  0.00  0.00    +0.042 C 
ATOM     14  C   UNL     1      -1.268  -6.237  -5.088  0.00  0.00    +0.064 C 
ATOM     15  C   UNL     1      -0.120  -6.611  -4.183  0.00  0.00    +0.088 C 
ATOM     16  N   UNL     1       0.585  -7.694  -4.258  0.00  0.00    -0.092 NA
BRANCH  16  17
ATOM     17  O   UNL     1       0.303  -8.654  -5.259  0.00  0.00    -0.409 OA
ATOM     18  H   UNL     1       0.883  -9.428  -5.235  0.00  0.00    +0.328 HD
ENDBRANCH  16  17
ENDBRANCH   4   7
BRANCH   5  19
ATOM     19  C   UNL     1       0.054  -3.277   1.612  0.00  0.00    +0.021 A 
ATOM     20  C   UNL     1       0.745  -3.255   2.827  0.00  0.00    +0.013 A 
ATOM     21  C   UNL     1       0.733  -4.396   3.610  0.00  0.00    +0.020 A 
ATOM     22  C   UNL     1       0.045  -5.512   3.169  0.00  0.00    +0.111 A 
ATOM     23  N   UNL     1      -0.598  -5.503   2.018  0.00  0.00    -0.263 NA
ATOM     24  C   UNL     1      -0.621  -4.439   1.242  0.00  0.00    +0.120 A 
ENDBRANCH   5  19
TORSDOF 3
