REMARK  Name = CHEMBL478190
REMARK  11 active torsions:
REMARK  status: ('A' for Active; 'I' for Inactive)
REMARK    1  A    between atoms: C_1  and  C_2
REMARK    2  A    between atoms: C_2  and  C_3
REMARK    3  A    between atoms: C_2  and  N_34
REMARK    4  A    between atoms: C_3  and  O_4
REMARK    5  A    between atoms: O_4  and  C_5
REMARK    6  A    between atoms: C_9  and  C_11
REMARK    7  A    between atoms: C_14  and  C_28
REMARK    8  A    between atoms: C_15  and  C_17
REMARK    9  A    between atoms: N_26  and  O_27
REMARK   10  A    between atoms: N_34  and  C_35
REMARK   11  A    between atoms: N_34  and  C_36
REMARK                            x       y       z     vdW  Elec       q    Type
REMARK                         _______ _______ _______ _____ _____    ______ ____
ROOT
ATOM      1  C   UNL     1      -6.196   0.292  -3.568  0.00  0.00    +0.136 A 
ATOM      2  N   UNL     1      -7.510   0.016  -3.811  0.00  0.00    -0.338 N 
ATOM      3  H   UNL     1      -8.056  -0.638  -3.347  0.00  0.00    +0.167 HD
ATOM      4  C   UNL     1      -7.916   0.838  -4.833  0.00  0.00    +0.072 A 
ATOM      5  C   UNL     1      -6.810   1.600  -5.184  0.00  0.00    +0.072 A 
ATOM      6  N   UNL     1      -5.795   1.237  -4.387  0.00  0.00    -0.338 N 
ATOM      7  H   UNL     1      -4.902   1.613  -4.413  0.00  0.00    +0.167 HD
ENDROOT
BRANCH   5   8
ATOM      8  C   UNL     1      -6.763   2.633  -6.244  0.00  0.00    +0.001 A 
ATOM      9  C   UNL     1      -7.767   3.600  -6.324  0.00  0.00    +0.010 A 
ATOM     10  C   UNL     1      -7.721   4.558  -7.308  0.00  0.00    +0.011 A 
ATOM     11  C   UNL     1      -6.667   4.570  -8.235  0.00  0.00    +0.003 A 
ATOM     12  C   UNL     1      -5.666   3.603  -8.152  0.00  0.00    -0.037 A 
ATOM     13  C   UNL     1      -5.711   2.645  -7.160  0.00  0.00    +0.014 A 
ATOM     14  C   UNL     1      -4.654   3.825  -9.251  0.00  0.00    +0.042 C 
ATOM     15  C   UNL     1      -5.134   5.050 -10.040  0.00  0.00    +0.064 C 
ATOM     16  C   UNL     1      -6.410   5.487  -9.363  0.00  0.00    +0.088 C 
ATOM     17  N   UNL     1      -7.150   6.491  -9.710  0.00  0.00    -0.092 NA
BRANCH  17  18
ATOM     18  O   UNL     1      -6.782   7.292 -10.818  0.00  0.00    -0.409 OA
ATOM     19  H   UNL     1      -7.396   8.017 -11.000  0.00  0.00    +0.328 HD
ENDBRANCH  17  18
ENDBRANCH   5   8
BRANCH   1  24
ATOM     20  C   UNL     1      -3.331  -0.600  -1.468  0.00  0.00    +0.318 A 
ATOM     21  N   UNL     1      -3.809  -1.549  -0.678  0.00  0.00    -0.203 NA
ATOM     22  C   UNL     1      -5.067  -1.949  -0.776  0.00  0.00    +0.118 A 
ATOM     23  C   UNL     1      -5.891  -1.364  -1.722  0.00  0.00    +0.051 A 
ATOM     24  C   UNL     1      -5.358  -0.365  -2.542  0.00  0.00    +0.111 A 
ATOM     25  N   UNL     1      -4.083  -0.011  -2.381  0.00  0.00    -0.192 NA
BRANCH  20  26
ATOM     26  O   UNL     1      -2.038  -0.220  -1.333  0.00  0.00    -0.464 OA
BRANCH  26  27
ATOM     27  C   UNL     1      -1.266  -0.887  -0.333  0.00  0.00    +0.217 C 
BRANCH  27  29
ATOM     28  C   UNL     1       0.109   1.191  -0.150  0.00  0.00    -0.010 C 
ATOM     29  C   UNL     1       0.158  -0.328  -0.330  0.00  0.00    -0.034 C 
BRANCH  29  30
ATOM     30  N   UNL     1       0.813  -0.650  -1.604  0.00  0.00    +0.380 N 
ATOM     31  C   UNL     1       2.180  -0.113  -1.601  0.00  0.00    -0.096 C 
ATOM     32  C   UNL     1       0.860  -2.108  -1.776  0.00  0.00    -0.096 C 
ATOM     33  H   UNL     1       0.292  -0.238  -2.364  0.00  0.00    -0.082 HD
ENDBRANCH  29  30
ENDBRANCH  27  29
ENDBRANCH  26  27
ENDBRANCH  20  26
ENDBRANCH   1  24
BRANCH   4  34
ATOM     34  C   UNL     1      -9.259   0.897  -5.439  0.00  0.00    +0.003 A 
ATOM     35  C   UNL     1      -9.423   0.897  -6.831  0.00  0.00    +0.030 A 
ATOM     36  C   UNL     1     -10.697   0.953  -7.354  0.00  0.00    +0.111 A 
ATOM     37  N   UNL     1     -11.753   1.007  -6.564  0.00  0.00    -0.263 NA
ATOM     38  C   UNL     1     -11.644   1.010  -5.249  0.00  0.00    +0.111 A 
ATOM     39  C   UNL     1     -10.409   0.950  -4.639  0.00  0.00    +0.030 A 
ENDBRANCH   4  34
TORSDOF 8
