REMARK  Name = CHEMBL254966
REMARK  8 active torsions:
REMARK  status: ('A' for Active; 'I' for Inactive)
REMARK    1  A    between atoms: C_3  and  C_18
REMARK    2  A    between atoms: C_5  and  N_7
REMARK    3  A    between atoms: C_8  and  C_10
REMARK    4  A    between atoms: C_10  and  C_11
REMARK    5  A    between atoms: C_19  and  C_27
REMARK    6  A    between atoms: C_22  and  C_24
REMARK    7  A    between atoms: N_33  and  C_34
REMARK    8  A    between atoms: C_38  and  C_40
REMARK                            x       y       z     vdW  Elec       q    Type
REMARK                         _______ _______ _______ _____ _____    ______ ____
ROOT
ATOM      1  C   UNL     1       2.969   0.930  -0.237  0.00  0.00    +0.098 A 
ATOM      2  C   UNL     1       3.425   2.229  -0.379  0.00  0.00    +0.093 A 
ATOM      3  N   UNL     1       4.783   2.185  -0.150  0.00  0.00    -0.340 N 
ATOM      4  H   UNL     1       5.394   2.938  -0.176  0.00  0.00    +0.167 HD
ATOM      5  C   UNL     1       5.105   0.903   0.115  0.00  0.00    +0.111 A 
ATOM      6  N   UNL     1       4.031   0.164   0.070  0.00  0.00    -0.232 NA
ENDROOT
BRANCH   2   7
ATOM      7  C   UNL     1       2.621   3.420  -0.708  0.00  0.00    +0.094 A 
ATOM      8  C   UNL     1       3.054   4.699  -0.332  0.00  0.00    +0.050 A 
ATOM      9  C   UNL     1       2.265   5.784  -0.663  0.00  0.00    +0.116 A 
ATOM     10  N   UNL     1       1.132   5.586  -1.320  0.00  0.00    -0.223 NA
ATOM     11  C   UNL     1       0.745   4.366  -1.664  0.00  0.00    +0.220 A 
ATOM     12  N   UNL     1       1.471   3.298  -1.374  0.00  0.00    -0.213 NA
ATOM     13  N   UNL     1      -0.447   4.205  -2.351  0.00  0.00    -0.284 N 
ATOM     14  H   UNL     1      -0.783   3.314  -2.538  0.00  0.00    +0.155 HD
BRANCH  13  15
ATOM     15  C   UNL     1      -1.167   5.327  -2.775  0.00  0.00    +0.034 A 
ATOM     16  C   UNL     1      -0.493   6.476  -3.171  0.00  0.00    +0.023 A 
ATOM     17  C   UNL     1      -1.200   7.587  -3.590  0.00  0.00    +0.003 A 
ATOM     18  C   UNL     1      -2.579   7.563  -3.620  0.00  0.00    +0.013 A 
ATOM     19  C   UNL     1      -3.265   6.413  -3.224  0.00  0.00    +0.038 A 
ATOM     20  C   UNL     1      -2.552   5.290  -2.806  0.00  0.00    +0.036 A 
BRANCH  19  21
ATOM     21  C   UNL     1      -4.744   6.385  -3.255  0.00  0.00    +0.242 C 
ATOM     22  O   UNL     1      -5.339   5.383  -2.910  0.00  0.00    -0.270 OA
ATOM     23  N   UNL     1      -5.430   7.470  -3.664  0.00  0.00    -0.325 N 
ATOM     24  H   UNL     1      -4.955   8.270  -3.939  0.00  0.00    +0.145 HD
ATOM     25  H   UNL     1      -6.400   7.451  -3.684  0.00  0.00    +0.145 HD
ENDBRANCH  19  21
ENDBRANCH  13  15
ENDBRANCH   2   7
BRANCH   1  28
ATOM     26  C   UNL     1      -0.789   0.863  -0.134  0.00  0.00    +0.002 A 
ATOM     27  C   UNL     1       0.515   1.293   0.009  0.00  0.00    +0.010 A 
ATOM     28  C   UNL     1       1.569   0.470  -0.388  0.00  0.00    +0.004 A 
ATOM     29  C   UNL     1       1.300  -0.786  -0.928  0.00  0.00    +0.033 A 
ATOM     30  C   UNL     1      -0.012  -1.210  -1.067  0.00  0.00    +0.034 A 
ATOM     31  C   UNL     1      -1.055  -0.383  -0.669  0.00  0.00    +0.023 A 
BRANCH  30  32
ATOM     32  N   UNL     1      -0.286  -2.471  -1.609  0.00  0.00    -0.285 N 
ATOM     33  C   UNL     1       0.556  -3.499  -1.385  0.00  0.00    +0.222 C 
ATOM     34  O   UNL     1       1.505  -3.354  -0.643  0.00  0.00    -0.275 OA
ATOM     35  H   UNL     1      -1.083  -2.605  -2.147  0.00  0.00    +0.155 HD
BRANCH  33  36
ATOM     36  C   UNL     1       0.318  -4.828  -2.054  0.00  0.00    +0.131 C 
BRANCH  36  37
ATOM     37  C   UNL     1       1.393  -5.799  -1.640  0.00  0.00    -0.039 A 
ATOM     38  C   UNL     1       2.561  -5.893  -2.374  0.00  0.00    +0.005 A 
ATOM     39  C   UNL     1       3.547  -6.783  -1.994  0.00  0.00    +0.020 A 
ATOM     40  C   UNL     1       3.366  -7.580  -0.878  0.00  0.00    +0.041 A 
ATOM     41  C   UNL     1       2.198  -7.486  -0.144  0.00  0.00    +0.020 A 
ATOM     42  C   UNL     1       1.214  -6.592  -0.521  0.00  0.00    +0.005 A 
ATOM     43 CL   UNL     1       4.604  -8.700  -0.401  0.00  0.00    -0.084 Cl
ENDBRANCH  36  37
ENDBRANCH  33  36
ENDBRANCH  30  32
ENDBRANCH   1  28
BRANCH   5  44
ATOM     44  C   UNL     1       6.492   0.401   0.424  0.00  0.00    +0.055 C 
ATOM     45  C   UNL     1       7.668   1.313   0.070  0.00  0.00    +0.012 C 
ATOM     46  C   UNL     1       7.398   0.057  -0.759  0.00  0.00    +0.012 C 
ENDBRANCH   5  44
TORSDOF 8
