REMARK  Name = CHEMBL1076482
REMARK  8 active torsions:
REMARK  status: ('A' for Active; 'I' for Inactive)
REMARK    1  A    between atoms: C_1  and  N_2
REMARK    2  A    between atoms: N_5  and  C_8
REMARK    3  A    between atoms: C_8  and  C_9
REMARK    4  A    between atoms: C_12  and  C_15
REMARK    5  A    between atoms: C_23  and  C_24
REMARK    6  A    between atoms: C_28  and  N_30
REMARK    7  A    between atoms: C_31  and  C_33
REMARK    8  A    between atoms: C_37  and  C_39
REMARK                            x       y       z     vdW  Elec       q    Type
REMARK                         _______ _______ _______ _____ _____    ______ ____
ROOT
ATOM      1  C   UNL     1       1.415  -5.513   6.215  0.00  0.00    +0.046 A 
ATOM      2  C   UNL     1       2.220  -6.657   6.183  0.00  0.00    +0.145 A 
ATOM      3  N   UNL     1       2.592  -6.949   7.406  0.00  0.00    -0.172 NA
ATOM      4  N   UNL     1       2.047  -6.010   8.289  0.00  0.00    -0.213 N 
ATOM      5  C   UNL     1       1.319  -5.112   7.554  0.00  0.00    +0.164 A 
ATOM      6  N   UNL     1       0.687  -4.095   8.148  0.00  0.00    -0.236 NA
ATOM      7  C   UNL     1       0.746  -3.921   9.449  0.00  0.00    +0.115 A 
ATOM      8  C   UNL     1       1.477  -4.804  10.248  0.00  0.00    +0.048 A 
ATOM      9  C   UNL     1       2.129  -5.865   9.653  0.00  0.00    +0.076 A 
ENDROOT
BRANCH   1  13
ATOM     10  C   UNL     1      -0.389  -3.604   2.874  0.00  0.00    -0.064 A 
ATOM     11  C   UNL     1       0.958  -3.919   2.843  0.00  0.00    +0.002 A 
ATOM     12  C   UNL     1       1.550  -4.538   3.925  0.00  0.00    +0.009 A 
ATOM     13  C   UNL     1       0.786  -4.848   5.051  0.00  0.00    -0.013 A 
ATOM     14  C   UNL     1      -0.571  -4.527   5.076  0.00  0.00    +0.009 A 
ATOM     15  C   UNL     1      -1.150  -3.903   3.990  0.00  0.00    +0.002 A 
BRANCH  10  16
ATOM     16  C   UNL     1      -1.028  -2.927   1.689  0.00  0.00    -0.043 C 
BRANCH  16  21
ATOM     17  C   UNL     1      -0.033   2.579   1.023  0.00  0.00    +0.104 C 
ATOM     18  N   UNL     1      -0.157   1.119   0.916  0.00  0.00    -0.309 NA
ATOM     19  C   UNL     1      -1.568   0.708   0.925  0.00  0.00    +0.065 C 
ATOM     20  C   UNL     1      -1.655  -0.810   0.752  0.00  0.00    -0.063 C 
ATOM     21  N   UNL     1      -0.929  -1.470   1.845  0.00  0.00    +0.384 N 
ATOM     22  C   UNL     1       0.484  -1.069   1.808  0.00  0.00    -0.063 C 
ATOM     23  C   UNL     1       0.589   0.447   1.990  0.00  0.00    +0.065 C 
ATOM     24  H   UNL     1      -1.332  -1.198   2.729  0.00  0.00    -0.081 HD
ENDBRANCH  16  21
ENDBRANCH  10  16
ENDBRANCH   1  13
BRANCH   9  25
ATOM     25  C   UNL     1       2.913  -6.818  10.466  0.00  0.00    +0.002 A 
ATOM     26  C   UNL     1       4.299  -6.894  10.313  0.00  0.00    +0.010 A 
ATOM     27  C   UNL     1       5.029  -7.785  11.073  0.00  0.00    +0.002 A 
ATOM     28  C   UNL     1       4.393  -8.603  11.988  0.00  0.00    +0.023 A 
ATOM     29  C   UNL     1       3.014  -8.536  12.147  0.00  0.00    +0.034 A 
ATOM     30  C   UNL     1       2.272  -7.640  11.393  0.00  0.00    +0.033 A 
BRANCH  29  31
ATOM     31  N   UNL     1       2.376  -9.367  13.074  0.00  0.00    -0.281 N 
ATOM     32  C   UNL     1       1.133  -9.825  12.824  0.00  0.00    +0.248 C 
ATOM     33  O   UNL     1       0.604  -9.595  11.754  0.00  0.00    -0.270 OA
ATOM     34  H   UNL     1       2.828  -9.614  13.896  0.00  0.00    +0.155 HD
BRANCH  32  35
ATOM     35  C   UNL     1       0.413 -10.605  13.852  0.00  0.00    +0.038 A 
ATOM     36  C   UNL     1       1.015 -10.866  15.084  0.00  0.00    +0.013 A 
ATOM     37  C   UNL     1       0.337 -11.595  16.039  0.00  0.00    +0.001 A 
ATOM     38  C   UNL     1      -0.937 -12.068  15.778  0.00  0.00    +0.012 A 
ATOM     39  C   UNL     1      -1.539 -11.813  14.559  0.00  0.00    +0.056 A 
ATOM     40  C   UNL     1      -0.875 -11.081  13.597  0.00  0.00    +0.025 A 
BRANCH  39  41
ATOM     41  C   UNL     1      -2.927 -12.333  14.283  0.00  0.00    +0.417 C 
ATOM     42  F   UNL     1      -3.392 -13.035  15.399  0.00  0.00    -0.166 F 
ATOM     43  F   UNL     1      -3.783 -11.258  14.017  0.00  0.00    -0.166 F 
ATOM     44  F   UNL     1      -2.893 -13.187  13.175  0.00  0.00    -0.166 F 
ENDBRANCH  39  41
ENDBRANCH  32  35
ENDBRANCH  29  31
ENDBRANCH   9  25
TORSDOF 7
