REMARK  Name = CHEMBL1213973
REMARK  11 active torsions:
REMARK  status: ('A' for Active; 'I' for Inactive)
REMARK    1  A    between atoms: C_1  and  C_2
REMARK    2  A    between atoms: C_5  and  N_8
REMARK    3  A    between atoms: C_9  and  N_17
REMARK    4  A    between atoms: C_11  and  C_13
REMARK    5  A    between atoms: C_13  and  C_14
REMARK    6  A    between atoms: C_13  and  C_15
REMARK    7  A    between atoms: C_13  and  C_16
REMARK    8  A    between atoms: N_20  and  C_21
REMARK    9  A    between atoms: C_24  and  C_40
REMARK   10  A    between atoms: C_25  and  N_27
REMARK   11  A    between atoms: C_32  and  C_34
REMARK                            x       y       z     vdW  Elec       q    Type
REMARK                         _______ _______ _______ _____ _____    ______ ____
ROOT
ATOM      1  N   UNL     1       1.546  -4.441   1.957  0.00  0.00    -0.254 N 
ATOM      2  C   UNL     1       2.101  -5.361   2.771  0.00  0.00    +0.309 C 
ATOM      3  O   UNL     1       1.946  -6.545   2.544  0.00  0.00    -0.252 OA
ATOM      4  N   UNL     1       2.827  -4.968   3.836  0.00  0.00    -0.269 N 
ATOM      5  H   UNL     1       1.670  -3.496   2.138  0.00  0.00    +0.158 HD
ATOM      6  H   UNL     1       3.000  -4.025   3.984  0.00  0.00    +0.156 HD
ENDROOT
BRANCH   4   7
ATOM      7  C   UNL     1       3.331  -5.920   4.729  0.00  0.00    +0.037 A 
ATOM      8  C   UNL     1       3.760  -7.155   4.258  0.00  0.00    +0.024 A 
ATOM      9  C   UNL     1       4.258  -8.096   5.139  0.00  0.00    +0.007 A 
ATOM     10  C   UNL     1       4.331  -7.813   6.489  0.00  0.00    -0.029 A 
ATOM     11  C   UNL     1       3.904  -6.579   6.966  0.00  0.00    +0.038 A 
ATOM     12  C   UNL     1       3.409  -5.630   6.083  0.00  0.00    +0.047 A 
ATOM     13  C   UNL     1       4.874  -8.842   7.446  0.00  0.00    +0.045 C 
BRANCH  11  14
ATOM     14  N   UNL     1       3.979  -6.293   8.332  0.00  0.00    -0.283 N 
ATOM     15  C   UNL     1       3.009  -5.504   8.928  0.00  0.00    +0.220 A 
ATOM     16  N   UNL     1       2.058  -4.971   8.175  0.00  0.00    -0.223 NA
ATOM     17  C   UNL     1       1.113  -4.211   8.707  0.00  0.00    +0.116 A 
ATOM     18  C   UNL     1       1.123  -3.974  10.070  0.00  0.00    +0.048 A 
ATOM     19  C   UNL     1       2.138  -4.549  10.838  0.00  0.00    +0.077 A 
ATOM     20  N   UNL     1       3.053  -5.306  10.236  0.00  0.00    -0.214 NA
ATOM     21  H   UNL     1       4.710  -6.647   8.863  0.00  0.00    +0.155 HD
BRANCH  19  22
ATOM     22  C   UNL     1       2.193  -4.325  12.303  0.00  0.00    +0.019 A 
ATOM     23  C   UNL     1       3.267  -4.808  13.057  0.00  0.00    +0.013 A 
ATOM     24  C   UNL     1       3.272  -4.572  14.420  0.00  0.00    +0.020 A 
ATOM     25  C   UNL     1       2.223  -3.872  14.989  0.00  0.00    +0.111 A 
ATOM     26  N   UNL     1       1.222  -3.428  14.253  0.00  0.00    -0.263 NA
ATOM     27  C   UNL     1       1.177  -3.624  12.951  0.00  0.00    +0.120 A 
ENDBRANCH  19  22
ENDBRANCH  11  14
ENDBRANCH   4   7
BRANCH   1  29
ATOM     28  N   UNL     1       0.181  -4.032  -0.047  0.00  0.00    -0.218 N 
ATOM     29  C   UNL     1       0.795  -4.847   0.854  0.00  0.00    +0.130 A 
ATOM     30  C   UNL     1       0.541  -6.131   0.482  0.00  0.00    +0.069 A 
ATOM     31  C   UNL     1      -0.245  -6.096  -0.673  0.00  0.00    +0.071 A 
ATOM     32  N   UNL     1      -0.466  -4.845  -0.987  0.00  0.00    -0.169 NA
BRANCH  28  37
ATOM     33  C   UNL     1       0.215   1.643   0.009  0.00  0.00    +0.044 C 
ATOM     34  C   UNL     1       0.206   0.136  -0.006  0.00  0.00    -0.050 A 
ATOM     35  C   UNL     1       0.213  -0.543  -1.211  0.00  0.00    +0.005 A 
ATOM     36  C   UNL     1       0.204  -1.924  -1.228  0.00  0.00    +0.028 A 
ATOM     37  C   UNL     1       0.190  -2.631  -0.033  0.00  0.00    +0.067 A 
ATOM     38  C   UNL     1       0.184  -1.947   1.175  0.00  0.00    +0.028 A 
ATOM     39  C   UNL     1       0.198  -0.566   1.185  0.00  0.00    +0.005 A 
ENDBRANCH  28  37
BRANCH  31  40
ATOM     40  C   UNL     1      -0.758  -7.296  -1.427  0.00  0.00    +0.006 C 
ATOM     41  C   UNL     1      -1.915  -7.929  -0.651  0.00  0.00    +0.017 C 
ATOM     42  C   UNL     1      -1.248  -6.859  -2.809  0.00  0.00    +0.017 C 
ATOM     43  C   UNL     1       0.369  -8.319  -1.585  0.00  0.00    +0.017 C 
ENDBRANCH  31  40
ENDBRANCH   1  29
TORSDOF 6
