REMARK  Name = CHEMBL478190
REMARK  11 active torsions:
REMARK  status: ('A' for Active; 'I' for Inactive)
REMARK    1  A    between atoms: C_1  and  C_2
REMARK    2  A    between atoms: C_2  and  C_3
REMARK    3  A    between atoms: C_2  and  N_34
REMARK    4  A    between atoms: C_3  and  O_4
REMARK    5  A    between atoms: O_4  and  C_5
REMARK    6  A    between atoms: C_9  and  C_11
REMARK    7  A    between atoms: C_14  and  C_28
REMARK    8  A    between atoms: C_15  and  C_17
REMARK    9  A    between atoms: N_26  and  O_27
REMARK   10  A    between atoms: N_34  and  C_35
REMARK   11  A    between atoms: N_34  and  C_36
REMARK                            x       y       z     vdW  Elec       q    Type
REMARK                         _______ _______ _______ _____ _____    ______ ____
ROOT
ATOM      1  C   UNL     1       0.079   0.397   7.149  0.00  0.00    +0.158 A 
ATOM      2  N   UNL     1       0.501   0.141   8.366  0.00  0.00    -0.226 NA
ATOM      3  H   UNL     1      -1.487   1.602   6.462  0.00  0.00    +0.167 HD
ATOM      4  C   UNL     1      -0.260   0.799   9.252  0.00  0.00    +0.097 A 
ATOM      5  C   UNL     1      -1.218   1.509   8.541  0.00  0.00    +0.074 A 
ATOM      6  N   UNL     1      -0.986   1.249   7.213  0.00  0.00    -0.336 N 
ENDROOT
BRANCH   5   7
ATOM      7  C   UNL     1      -2.271   2.376   9.100  0.00  0.00    +0.001 A 
ATOM      8  C   UNL     1      -3.018   1.949  10.203  0.00  0.00    +0.010 A 
ATOM      9  C   UNL     1      -3.991   2.752  10.720  0.00  0.00    +0.011 A 
ATOM     10  C   UNL     1      -4.249   4.009  10.149  0.00  0.00    +0.003 A 
ATOM     11  C   UNL     1      -3.503   4.433   9.049  0.00  0.00    -0.037 A 
ATOM     12  C   UNL     1      -2.522   3.628   8.534  0.00  0.00    +0.014 A 
ATOM     13  C   UNL     1      -3.965   5.806   8.622  0.00  0.00    +0.042 C 
ATOM     14  C   UNL     1      -5.094   6.201   9.584  0.00  0.00    +0.064 C 
ATOM     15  C   UNL     1      -5.238   5.035  10.531  0.00  0.00    +0.088 C 
ATOM     16  N   UNL     1      -6.083   4.950  11.508  0.00  0.00    -0.092 NA
BRANCH  16  17
ATOM     17  O   UNL     1      -6.980   6.015  11.764  0.00  0.00    -0.409 OA
ATOM     18  H   UNL     1      -7.572   5.860  12.513  0.00  0.00    +0.328 HD
ENDBRANCH  16  17
ENDBRANCH   5   7
BRANCH   1  23
ATOM     19  C   UNL     1       0.683  -0.307   3.606  0.00  0.00    +0.318 A 
ATOM     20  N   UNL     1       1.723  -1.126   3.625  0.00  0.00    -0.203 NA
ATOM     21  C   UNL     1       2.281  -1.494   4.768  0.00  0.00    +0.118 A 
ATOM     22  C   UNL     1       1.766  -1.011   5.958  0.00  0.00    +0.051 A 
ATOM     23  C   UNL     1       0.667  -0.147   5.906  0.00  0.00    +0.113 A 
ATOM     24  N   UNL     1       0.162   0.183   4.717  0.00  0.00    -0.192 NA
BRANCH  19  25
ATOM     25  O   UNL     1       0.143   0.044   2.414  0.00  0.00    -0.464 OA
BRANCH  25  26
ATOM     26  C   UNL     1       0.742  -0.511   1.242  0.00  0.00    +0.217 C 
BRANCH  26  28
ATOM     27  C   UNL     1      -0.019   1.526   0.010  0.00  0.00    -0.010 C 
ATOM     28  C   UNL     1       0.002  -0.004   0.002  0.00  0.00    -0.034 C 
BRANCH  28  29
ATOM     29  N   UNL     1      -1.376  -0.512   0.012  0.00  0.00    +0.380 N 
ATOM     30  C   UNL     1      -2.087  -0.026  -1.178  0.00  0.00    -0.096 C 
ATOM     31  C   UNL     1      -1.356  -1.981   0.004  0.00  0.00    -0.096 C 
ATOM     32  H   UNL     1      -1.848  -0.187   0.843  0.00  0.00    -0.082 HD
ENDBRANCH  28  29
ENDBRANCH  26  28
ENDBRANCH  25  26
ENDBRANCH  19  25
ENDBRANCH   1  23
BRANCH   4  33
ATOM     33  C   UNL     1      -0.107   0.771  10.725  0.00  0.00    +0.005 A 
ATOM     34  C   UNL     1      -0.378   1.907  11.496  0.00  0.00    +0.030 A 
ATOM     35  C   UNL     1      -0.223   1.837  12.865  0.00  0.00    +0.111 A 
ATOM     36  N   UNL     1       0.175   0.721  13.446  0.00  0.00    -0.263 NA
ATOM     37  C   UNL     1       0.442  -0.371  12.755  0.00  0.00    +0.111 A 
ATOM     38  C   UNL     1       0.307  -0.392  11.383  0.00  0.00    +0.030 A 
ENDBRANCH   4  33
TORSDOF 8
