REMARK  Name = CHEMBL541201
REMARK  8 active torsions:
REMARK  status: ('A' for Active; 'I' for Inactive)
REMARK    1  A    between atoms: C_3  and  C_22
REMARK    2  A    between atoms: C_5  and  N_7
REMARK    3  A    between atoms: N_10  and  C_11
REMARK    4  A    between atoms: C_15  and  C_17
REMARK    5  A    between atoms: C_30  and  C_31
REMARK    6  A    between atoms: N_33  and  C_34
REMARK    7  A    between atoms: C_34  and  C_35
REMARK    8  A    between atoms: C_35  and  N_36
REMARK                            x       y       z     vdW  Elec       q    Type
REMARK                         _______ _______ _______ _____ _____    ______ ____
ROOT
ATOM      1  C   UNL     1      -0.308   1.300  -0.411  0.00  0.00    +0.002 A 
ATOM      2  C   UNL     1       0.824   2.073  -0.562  0.00  0.00    +0.010 A 
ATOM      3  C   UNL     1       2.084   1.470  -0.584  0.00  0.00    +0.002 A 
ATOM      4  C   UNL     1       2.191   0.085  -0.452  0.00  0.00    +0.033 A 
ATOM      5  C   UNL     1       1.047  -0.682  -0.301  0.00  0.00    +0.035 A 
ATOM      6  C   UNL     1      -0.202  -0.072  -0.281  0.00  0.00    +0.023 A 
ENDROOT
BRANCH   3   7
ATOM      7  C   UNL     1       3.298   2.295  -0.746  0.00  0.00    +0.076 A 
ATOM      8  C   UNL     1       4.233   2.378   0.268  0.00  0.00    +0.048 A 
ATOM      9  C   UNL     1       5.369   3.167   0.081  0.00  0.00    +0.115 A 
ATOM     10  N   UNL     1       5.542   3.822  -1.048  0.00  0.00    -0.235 NA
ATOM     11  C   UNL     1       4.648   3.751  -2.034  0.00  0.00    +0.168 A 
ATOM     12  N   UNL     1       3.521   2.990  -1.908  0.00  0.00    -0.213 N 
ATOM     13  N   UNL     1       2.784   3.103  -3.091  0.00  0.00    -0.172 NA
ATOM     14  C   UNL     1       3.412   3.890  -3.924  0.00  0.00    +0.150 A 
ATOM     15  C   UNL     1       4.596   4.341  -3.312  0.00  0.00    +0.100 A 
BRANCH  15  16
ATOM     16  C   UNL     1       5.593   5.241  -3.899  0.00  0.00    +0.249 C 
ATOM     17  O   UNL     1       6.587   5.545  -3.265  0.00  0.00    -0.270 OA
ATOM     18  N   UNL     1       5.410   5.732  -5.141  0.00  0.00    -0.310 N 
ATOM     19  H   UNL     1       4.617   5.491  -5.646  0.00  0.00    +0.149 HD
BRANCH  18  20
ATOM     20  C   UNL     1       6.406   6.632  -5.727  0.00  0.00    +0.120 C 
BRANCH  20  21
ATOM     21  C   UNL     1       5.960   7.041  -7.132  0.00  0.00    +0.103 C 
BRANCH  21  22
ATOM     22  N   UNL     1       6.959   7.942  -7.721  0.00  0.00    -0.297 NA
ATOM     23  C   UNL     1       7.011   9.218  -6.992  0.00  0.00    +0.112 C 
ATOM     24  C   UNL     1       8.104  10.102  -7.599  0.00  0.00    +0.175 C 
ATOM     25  O   UNL     1       7.843  10.285  -8.993  0.00  0.00    -0.377 OA
ATOM     26  C   UNL     1       7.786   9.062  -9.734  0.00  0.00    +0.175 C 
ATOM     27  C   UNL     1       6.690   8.168  -9.148  0.00  0.00    +0.112 C 
ENDBRANCH  21  22
ENDBRANCH  20  21
ENDBRANCH  18  20
ENDBRANCH  15  16
ENDBRANCH   3   7
BRANCH   5  28
ATOM     28  N   UNL     1       1.149  -2.072  -0.168  0.00  0.00    -0.269 N 
ATOM     29  C   UNL     1       2.097  -2.746  -0.849  0.00  0.00    +0.308 C 
ATOM     30  O   UNL     1       2.916  -2.140  -1.512  0.00  0.00    -0.252 OA
ATOM     31  N   UNL     1       2.137  -4.092  -0.795  0.00  0.00    -0.269 N 
ATOM     32  H   UNL     1       0.537  -2.550   0.414  0.00  0.00    +0.156 HD
ATOM     33  H   UNL     1       1.440  -4.580  -0.328  0.00  0.00    +0.156 HD
BRANCH  31  34
ATOM     34  C   UNL     1       3.183  -4.787  -1.412  0.00  0.00    +0.035 A 
ATOM     35  C   UNL     1       4.455  -4.231  -1.460  0.00  0.00    +0.025 A 
ATOM     36  C   UNL     1       5.486  -4.918  -2.070  0.00  0.00    +0.022 A 
ATOM     37  C   UNL     1       5.252  -6.160  -2.634  0.00  0.00    +0.053 A 
ATOM     38  C   UNL     1       3.986  -6.716  -2.588  0.00  0.00    +0.075 A 
ATOM     39  C   UNL     1       2.953  -6.036  -1.974  0.00  0.00    +0.037 A 
ATOM     40 CL   UNL     1       6.550  -7.021  -3.401  0.00  0.00    -0.083 Cl
BRANCH  38  41
ATOM     41  C   UNL     1       3.735  -8.069  -3.204  0.00  0.00    +0.419 C 
ATOM     42  F   UNL     1       2.391  -8.417  -3.033  0.00  0.00    -0.166 F 
ATOM     43  F   UNL     1       4.035  -8.023  -4.570  0.00  0.00    -0.166 F 
ATOM     44  F   UNL     1       4.547  -9.023  -2.580  0.00  0.00    -0.166 F 
ENDBRANCH  38  41
ENDBRANCH  31  34
ENDBRANCH   5  28
TORSDOF 8
