REMARK  Name = CHEMBL569882
REMARK  10 active torsions:
REMARK  status: ('A' for Active; 'I' for Inactive)
REMARK    1  A    between atoms: C_1  and  C_2
REMARK    2  A    between atoms: C_7  and  C_8
REMARK    3  A    between atoms: N_18  and  C_19
REMARK    4  A    between atoms: C_23  and  N_24
REMARK    5  A    between atoms: N_24  and  C_25
REMARK    6  A    between atoms: C_27  and  C_31
REMARK    7  A    between atoms: N_29  and  C_30
REMARK    8  A    between atoms: C_31  and  C_32
REMARK    9  A    between atoms: C_31  and  C_33
REMARK   10  A    between atoms: C_31  and  C_34
REMARK                            x       y       z     vdW  Elec       q    Type
REMARK                         _______ _______ _______ _____ _____    ______ ____
ROOT
ATOM      1  C   UNL     1      -0.018   1.503   0.010  0.00  0.00    +0.044 C 
ATOM      2  C   UNL     1       0.002  -0.004   0.002  0.00  0.00    -0.042 A 
ATOM      3  C   UNL     1       0.006  -0.685  -1.209  0.00  0.00    +0.004 A 
ATOM      4  C   UNL     1       0.024  -2.048  -1.253  0.00  0.00    +0.012 A 
ATOM      5  C   UNL     1       0.041  -2.787  -0.062  0.00  0.00    +0.023 A 
ATOM      6  C   UNL     1       0.037  -2.108   1.181  0.00  0.00    -0.005 A 
ATOM      7  C   UNL     1       0.023  -0.696   1.202  0.00  0.00    -0.007 A 
ATOM      8  C   UNL     1       0.054  -2.874   2.360  0.00  0.00    +0.029 A 
ATOM      9  C   UNL     1       0.073  -4.232   2.261  0.00  0.00    +0.113 A 
ATOM     10  N   UNL     1       0.076  -4.851   1.089  0.00  0.00    -0.240 NA
ATOM     11  C   UNL     1       0.061  -4.199  -0.059  0.00  0.00    +0.132 A 
ENDROOT
BRANCH   7  12
ATOM     12  C   UNL     1       0.025   0.035   2.490  0.00  0.00    -0.016 A 
ATOM     13  C   UNL     1       1.143  -0.050   3.337  0.00  0.00    +0.010 A 
ATOM     14  C   UNL     1       1.171   0.612   4.524  0.00  0.00    +0.029 A 
ATOM     15  C   UNL     1       0.072   1.393   4.918  0.00  0.00    +0.076 A 
ATOM     16  C   UNL     1      -1.062   1.485   4.069  0.00  0.00    +0.019 A 
ATOM     17  C   UNL     1      -1.072   0.801   2.847  0.00  0.00    +0.020 A 
ATOM     18  C   UNL     1      -2.149   2.276   4.489  0.00  0.00    +0.124 A 
ATOM     19  N   UNL     1      -2.065   2.894   5.648  0.00  0.00    -0.222 NA
ATOM     20  C   UNL     1      -0.985   2.785   6.419  0.00  0.00    +0.215 A 
ATOM     21  N   UNL     1       0.062   2.059   6.079  0.00  0.00    -0.215 NA
ATOM     22  N   UNL     1      -0.961   3.460   7.626  0.00  0.00    -0.317 N 
ATOM     23  C   UNL     1      -2.109   4.274   8.033  0.00  0.00    +0.128 C 
ATOM     24  H   UNL     1      -0.184   3.394   8.203  0.00  0.00    +0.149 HD
ENDBRANCH   7  12
BRANCH  11  25
ATOM     25  N   UNL     1       0.064  -4.898  -1.255  0.00  0.00    -0.284 N 
ATOM     26  H   UNL     1       0.053  -4.417  -2.098  0.00  0.00    +0.155 HD
BRANCH  25  27
ATOM     27  C   UNL     1       0.084  -6.291  -1.248  0.00  0.00    +0.122 A 
ATOM     28  C   UNL     1       0.096  -7.091  -0.146  0.00  0.00    +0.069 A 
ATOM     29  C   UNL     1       0.114  -8.418  -0.581  0.00  0.00    +0.070 A 
ATOM     30  N   UNL     1       0.114  -8.426  -1.890  0.00  0.00    -0.174 NA
ATOM     31  N   UNL     1       0.090  -7.099  -2.340  0.00  0.00    -0.253 N 
ATOM     32  C   UNL     1       0.076  -6.662  -3.738  0.00  0.00    +0.174 C 
BRANCH  29  33
ATOM     33  C   UNL     1       0.132  -9.636   0.306  0.00  0.00    +0.006 C 
ATOM     34  C   UNL     1      -1.258  -9.848   0.909  0.00  0.00    +0.017 C 
ATOM     35  C   UNL     1       0.522 -10.864  -0.519  0.00  0.00    +0.017 C 
ATOM     36  C   UNL     1       1.150  -9.433   1.430  0.00  0.00    +0.017 C 
ENDBRANCH  29  33
ENDBRANCH  25  27
ENDBRANCH  11  25
TORSDOF 4
