REMARK  Name = CHEMBL477988
REMARK  9 active torsions:
REMARK  status: ('A' for Active; 'I' for Inactive)
REMARK    1  A    between atoms: C_1  and  N_2
REMARK    2  A    between atoms: N_2  and  C_3
REMARK    3  A    between atoms: N_2  and  C_4
REMARK    4  A    between atoms: C_4  and  C_5
REMARK    5  A    between atoms: C_5  and  O_6
REMARK    6  A    between atoms: O_6  and  C_7
REMARK    7  A    between atoms: C_9  and  C_23
REMARK    8  A    between atoms: C_10  and  C_12
REMARK    9  A    between atoms: N_21  and  O_22
REMARK                            x       y       z     vdW  Elec       q    Type
REMARK                         _______ _______ _______ _____ _____    ______ ____
ROOT
ATOM      1  C   UNL     1      -0.749  -3.905   1.305  0.00  0.00    +0.287 A 
ATOM      2  C   UNL     1      -0.479  -4.426   2.523  0.00  0.00    +0.099 A 
ATOM      3  C   UNL     1      -0.578  -5.836   2.401  0.00  0.00    +0.032 A 
ATOM      4  C   UNL     1      -0.909  -6.089   1.082  0.00  0.00    +0.147 A 
ATOM      5  O   UNL     1      -1.012  -4.904   0.447  0.00  0.00    -0.424 OA
ENDROOT
BRANCH   4   6
ATOM      6  C   UNL     1      -1.120  -7.416   0.480  0.00  0.00    +0.018 A 
ATOM      7  C   UNL     1      -2.233  -7.649  -0.336  0.00  0.00    +0.012 A 
ATOM      8  C   UNL     1      -2.424  -8.878  -0.892  0.00  0.00    +0.011 A 
ATOM      9  C   UNL     1      -1.510  -9.916  -0.651  0.00  0.00    +0.003 A 
ATOM     10  C   UNL     1      -0.401  -9.683   0.164  0.00  0.00    -0.037 A 
ATOM     11  C   UNL     1      -0.205  -8.447   0.718  0.00  0.00    +0.015 A 
ATOM     12  C   UNL     1       0.425 -10.943   0.269  0.00  0.00    +0.042 C 
ATOM     13  C   UNL     1      -0.293 -12.003  -0.577  0.00  0.00    +0.064 C 
ATOM     14  C   UNL     1      -1.510 -11.309  -1.138  0.00  0.00    +0.088 C 
ATOM     15  N   UNL     1      -2.400 -11.842  -1.913  0.00  0.00    -0.092 NA
BRANCH  15  16
ATOM     16  O   UNL     1      -2.276 -13.197  -2.305  0.00  0.00    -0.409 OA
ATOM     17  H   UNL     1      -2.988 -13.506  -2.883  0.00  0.00    +0.328 HD
ENDBRANCH  15  16
ENDBRANCH   4   6
BRANCH   3  18
ATOM     18  C   UNL     1      -0.367  -6.837   3.473  0.00  0.00    -0.011 A 
ATOM     19  C   UNL     1      -1.352  -7.783   3.776  0.00  0.00    +0.028 A 
ATOM     20  C   UNL     1      -1.114  -8.697   4.781  0.00  0.00    +0.111 A 
ATOM     21  N   UNL     1       0.023  -8.686   5.452  0.00  0.00    -0.263 NA
ATOM     22  C   UNL     1       0.978  -7.811   5.197  0.00  0.00    +0.111 A 
ATOM     23  C   UNL     1       0.825  -6.866   4.205  0.00  0.00    +0.028 A 
ENDBRANCH   3  18
BRANCH   1  24
ATOM     24  O   UNL     1      -0.759  -2.583   1.000  0.00  0.00    -0.466 OA
BRANCH  24  25
ATOM     25  C   UNL     1      -1.075  -2.232  -0.349  0.00  0.00    +0.214 C 
BRANCH  25  26
ATOM     26  C   UNL     1      -1.036  -0.710  -0.501  0.00  0.00    -0.038 C 
BRANCH  26  28
ATOM     27  C   UNL     1       1.218  -0.718  -1.320  0.00  0.00    -0.096 C 
ATOM     28  N   UNL     1       0.330  -0.227  -0.258  0.00  0.00    +0.378 N 
ATOM     29  C   UNL     1       0.337   1.242  -0.254  0.00  0.00    -0.096 C 
ATOM     30  H   UNL     1       0.653  -0.568   0.635  0.00  0.00    -0.082 HD
ENDBRANCH  26  28
ENDBRANCH  25  26
ENDBRANCH  24  25
ENDBRANCH   1  24
TORSDOF 7
