REMARK  Name = CHEMBL497866
REMARK  5 active torsions:
REMARK  status: ('A' for Active; 'I' for Inactive)
REMARK    1  A    between atoms: C_1  and  N_2
REMARK    2  A    between atoms: C_4  and  C_13
REMARK    3  A    between atoms: C_5  and  C_7
REMARK    4  A    between atoms: C_16  and  C_19
REMARK    5  A    between atoms: N_20  and  O_21
REMARK                            x       y       z     vdW  Elec       q    Type
REMARK                         _______ _______ _______ _____ _____    ______ ____
ROOT
ATOM      1  C   UNL     1       0.124  -3.259  -1.591  0.00  0.00    -0.014 A 
ATOM      2  C   UNL     1       1.087  -4.253  -1.419  0.00  0.00    +0.009 A 
ATOM      3  C   UNL     1       1.071  -5.374  -2.219  0.00  0.00    +0.012 A 
ATOM      4  C   UNL     1       0.091  -5.514  -3.203  0.00  0.00    +0.018 A 
ATOM      5  C   UNL     1      -0.873  -4.519  -3.374  0.00  0.00    +0.012 A 
ATOM      6  C   UNL     1      -0.860  -3.402  -2.570  0.00  0.00    +0.009 A 
ENDROOT
BRANCH   1  10
ATOM      7  C   UNL     1       0.077   1.498  -0.065  0.00  0.00    +0.172 C 
ATOM      8  N   UNL     1       0.120   0.034  -0.061  0.00  0.00    -0.273 N 
ATOM      9  C   UNL     1       0.077  -0.759  -1.151  0.00  0.00    +0.117 A 
ATOM     10  C   UNL     1       0.141  -2.054  -0.729  0.00  0.00    +0.027 A 
ATOM     11  C   UNL     1       0.227  -2.035   0.687  0.00  0.00    +0.100 A 
ATOM     12  N   UNL     1       0.220  -0.778   1.074  0.00  0.00    -0.171 NA
BRANCH  11  13
ATOM     13  C   UNL     1       0.316  -3.221   1.572  0.00  0.00    +0.006 A 
ATOM     14  C   UNL     1      -0.353  -4.407   1.254  0.00  0.00    +0.030 A 
ATOM     15  C   UNL     1      -0.243  -5.487   2.105  0.00  0.00    +0.111 A 
ATOM     16  N   UNL     1       0.481  -5.411   3.205  0.00  0.00    -0.263 NA
ATOM     17  C   UNL     1       1.128  -4.312   3.542  0.00  0.00    +0.111 A 
ATOM     18  C   UNL     1       1.077  -3.187   2.745  0.00  0.00    +0.030 A 
ENDBRANCH  11  13
ENDBRANCH   1  10
BRANCH   4  19
ATOM     19  C   UNL     1       0.073  -6.717  -4.063  0.00  0.00    +0.162 C 
ATOM     20  N   UNL     1       0.562  -7.840  -3.622  0.00  0.00    -0.072 NA
ATOM     21  N   UNL     1      -0.463  -6.649  -5.338  0.00  0.00    -0.340 N 
ATOM     22  H   UNL     1      -0.827  -5.812  -5.667  0.00  0.00    +0.144 HD
ATOM     23  H   UNL     1      -0.474  -7.438  -5.903  0.00  0.00    +0.144 HD
BRANCH  20  24
ATOM     24  O   UNL     1       0.985  -7.947  -2.275  0.00  0.00    -0.408 OA
ATOM     25  H   UNL     1       1.333  -8.819  -2.040  0.00  0.00    +0.328 HD
ENDBRANCH  20  24
ENDBRANCH   4  19
TORSDOF 4
