REMARK  Name = CHEMBL521732
REMARK  3 active torsions:
REMARK  status: ('A' for Active; 'I' for Inactive)
REMARK    1  A    between atoms: C_1  and  N_2
REMARK    2  A    between atoms: C_4  and  C_13
REMARK    3  A    between atoms: C_5  and  C_7
REMARK                            x       y       z     vdW  Elec       q    Type
REMARK                         _______ _______ _______ _____ _____    ______ ____
ROOT
ATOM      1  C   UNL     1      -0.018   1.461   0.010  0.00  0.00    +0.172 C 
ATOM      2  N   UNL     1       0.002  -0.004   0.002  0.00  0.00    -0.273 N 
ATOM      3  C   UNL     1       0.008  -0.787  -1.097  0.00  0.00    +0.117 A 
ATOM      4  C   UNL     1       0.028  -2.086  -0.684  0.00  0.00    +0.028 A 
ATOM      5  C   UNL     1       0.035  -2.082   0.734  0.00  0.00    +0.100 A 
ATOM      6  N   UNL     1       0.025  -0.829   1.133  0.00  0.00    -0.171 NA
ENDROOT
BRANCH   4   7
ATOM      7  C   UNL     1       0.040  -3.284  -1.558  0.00  0.00    -0.012 A 
ATOM      8  C   UNL     1       0.982  -4.297  -1.339  0.00  0.00    +0.009 A 
ATOM      9  C   UNL     1       1.006  -5.403  -2.133  0.00  0.00    +0.012 A 
ATOM     10  C   UNL     1       0.083  -5.535  -3.180  0.00  0.00    +0.020 A 
ATOM     11  C   UNL     1      -0.145  -6.536  -4.155  0.00  0.00    +0.142 A 
ATOM     12  N   UNL     1      -1.142  -6.166  -4.906  0.00  0.00    -0.181 NA
ATOM     13  N   UNL     1      -1.622  -4.922  -4.479  0.00  0.00    -0.277 N 
ATOM     14  H   UNL     1      -2.359  -4.431  -4.873  0.00  0.00    +0.189 HD
ATOM     15  C   UNL     1      -0.867  -4.520  -3.406  0.00  0.00    +0.066 A 
ATOM     16  C   UNL     1      -0.886  -3.398  -2.585  0.00  0.00    +0.036 A 
ENDBRANCH   4   7
BRANCH   5  17
ATOM     17  C   UNL     1       0.056  -3.277   1.610  0.00  0.00    +0.006 A 
ATOM     18  C   UNL     1      -0.612  -4.449   1.243  0.00  0.00    +0.030 A 
ATOM     19  C   UNL     1      -0.567  -5.539   2.088  0.00  0.00    +0.111 A 
ATOM     20  N   UNL     1       0.096  -5.485   3.227  0.00  0.00    -0.263 NA
ATOM     21  C   UNL     1       0.740  -4.399   3.611  0.00  0.00    +0.111 A 
ATOM     22  C   UNL     1       0.750  -3.266   2.824  0.00  0.00    +0.030 A 
ENDBRANCH   5  17
TORSDOF 2
