REMARK  Name = CHEMBL478823
REMARK  8 active torsions:
REMARK  status: ('A' for Active; 'I' for Inactive)
REMARK    1  A    between atoms: C_1  and  C_2
REMARK    2  A    between atoms: C_2  and  C_3
REMARK    3  A    between atoms: C_2  and  C_4
REMARK    4  A    between atoms: C_2  and  C_6
REMARK    5  A    between atoms: C_4  and  N_5
REMARK    6  A    between atoms: C_9  and  C_23
REMARK    7  A    between atoms: C_10  and  C_12
REMARK    8  A    between atoms: N_21  and  O_22
REMARK                            x       y       z     vdW  Elec       q    Type
REMARK                         _______ _______ _______ _____ _____    ______ ____
ROOT
ATOM      1  C   UNL     1       0.707  -0.490  -1.238  0.00  0.00    +0.112 A 
ATOM      2  N   UNL     1       0.290  -1.452  -2.013  0.00  0.00    -0.231 NA
ATOM      3  H   UNL     1       2.391   0.733  -1.339  0.00  0.00    +0.167 HD
ATOM      4  C   UNL     1       1.160  -1.624  -3.026  0.00  0.00    +0.097 A 
ATOM      5  C   UNL     1       2.180  -0.702  -2.859  0.00  0.00    +0.074 A 
ATOM      6  N   UNL     1       1.871   0.009  -1.723  0.00  0.00    -0.341 N 
ENDROOT
BRANCH   5   7
ATOM      7  C   UNL     1       3.358  -0.518  -3.727  0.00  0.00    +0.001 A 
ATOM      8  C   UNL     1       4.074  -1.629  -4.183  0.00  0.00    +0.010 A 
ATOM      9  C   UNL     1       5.163  -1.456  -4.985  0.00  0.00    +0.011 A 
ATOM     10  C   UNL     1       5.570  -0.165  -5.359  0.00  0.00    +0.003 A 
ATOM     11  C   UNL     1       4.854   0.942  -4.903  0.00  0.00    -0.037 A 
ATOM     12  C   UNL     1       3.757   0.768  -4.102  0.00  0.00    +0.014 A 
ATOM     13  C   UNL     1       5.482   2.207  -5.437  0.00  0.00    +0.042 C 
ATOM     14  C   UNL     1       6.683   1.769  -6.285  0.00  0.00    +0.064 C 
ATOM     15  C   UNL     1       6.699   0.262  -6.207  0.00  0.00    +0.088 C 
ATOM     16  N   UNL     1       7.555  -0.520  -6.783  0.00  0.00    -0.092 NA
BRANCH  16  17
ATOM     17  O   UNL     1       8.595   0.028  -7.573  0.00  0.00    -0.409 OA
ATOM     18  H   UNL     1       9.184  -0.634  -7.961  0.00  0.00    +0.328 HD
ENDBRANCH  16  17
ENDBRANCH   5   7
BRANCH   4  19
ATOM     19  C   UNL     1       1.046  -2.616  -4.119  0.00  0.00    +0.005 A 
ATOM     20  C   UNL     1       1.490  -2.316  -5.412  0.00  0.00    +0.030 A 
ATOM     21  C   UNL     1       1.365  -3.270  -6.399  0.00  0.00    +0.111 A 
ATOM     22  N   UNL     1       0.837  -4.451  -6.138  0.00  0.00    -0.263 NA
ATOM     23  C   UNL     1       0.407  -4.774  -4.933  0.00  0.00    +0.111 A 
ATOM     24  C   UNL     1       0.498  -3.883  -3.886  0.00  0.00    +0.030 A 
ENDBRANCH   4  19
BRANCH   1  26
ATOM     25  C   UNL     1      -0.019   1.526   0.010  0.00  0.00    +0.017 C 
ATOM     26  C   UNL     1       0.002  -0.004   0.002  0.00  0.00    +0.007 C 
ATOM     27  C   UNL     1       0.742  -0.511   1.242  0.00  0.00    +0.017 C 
BRANCH  26  28
ATOM     28  C   UNL     1      -1.433  -0.534   0.013  0.00  0.00    -0.072 C 
BRANCH  28  29
ATOM     29  N   UNL     1      -2.121  -0.060   1.222  0.00  0.00    +0.379 N 
ATOM     30  H   UNL     1      -3.067  -0.409   1.229  0.00  0.00    -0.090 HD
ATOM     31  H   UNL     1      -1.633  -0.394   2.039  0.00  0.00    -0.090 HD
ATOM     32  H   UNL     1      -2.135   0.949   1.227  0.00  0.00    -0.090 HD
ENDBRANCH  28  29
ENDBRANCH  26  28
ENDBRANCH   1  26
TORSDOF 6
