REMARK  Name = CHEMBL570421
REMARK  8 active torsions:
REMARK  status: ('A' for Active; 'I' for Inactive)
REMARK    1  A    between atoms: C_1  and  C_2
REMARK    2  A    between atoms: C_2  and  O_3
REMARK    3  A    between atoms: O_3  and  C_4
REMARK    4  A    between atoms: C_12  and  C_14
REMARK    5  A    between atoms: C_21  and  C_31
REMARK    6  A    between atoms: C_22  and  C_23
REMARK    7  A    between atoms: C_26  and  C_30
REMARK    8  A    between atoms: C_27  and  O_29
REMARK                            x       y       z     vdW  Elec       q    Type
REMARK                         _______ _______ _______ _____ _____    ______ ____
ROOT
ATOM      1  C   UNL     1       3.603  -3.493  -4.886  0.00  0.00    +0.050 A 
ATOM      2  C   UNL     1       4.651  -3.935  -5.624  0.00  0.00    +0.043 A 
ATOM      3  C   UNL     1       4.418  -4.479  -6.894  0.00  0.00    +0.115 A 
ATOM      4  N   UNL     1       3.195  -4.560  -7.365  0.00  0.00    -0.236 NA
ATOM      5  C   UNL     1       2.153  -4.127  -6.646  0.00  0.00    +0.164 A 
ATOM      6  N   UNL     1       2.340  -3.593  -5.397  0.00  0.00    -0.217 N 
ATOM      7  N   UNL     1       1.088  -3.237  -4.885  0.00  0.00    -0.164 NA
ATOM      8  C   UNL     1       0.156  -3.538  -5.769  0.00  0.00    +0.103 A 
ATOM      9  C   UNL     1       0.778  -4.095  -6.903  0.00  0.00    +0.054 A 
ENDROOT
BRANCH   1  18
ATOM     10  C   UNL     1       4.299   1.146  -3.260  0.00  0.00    +0.403 C 
ATOM     11  O   UNL     1       3.351   1.792  -2.861  0.00  0.00    -0.226 OA
ATOM     12  N   UNL     1       4.098  -0.037  -3.875  0.00  0.00    -0.261 N 
ATOM     13  C   UNL     1       5.112  -0.970  -4.422  0.00  0.00    +0.080 C 
ATOM     14  C   UNL     1       4.511  -1.441  -5.766  0.00  0.00    +0.024 C 
ATOM     15  C   UNL     1       2.986  -1.270  -5.595  0.00  0.00    +0.024 C 
ATOM     16  C   UNL     1       2.811  -0.716  -4.158  0.00  0.00    +0.080 C 
ATOM     17  C   UNL     1       2.704  -1.912  -3.199  0.00  0.00    +0.032 C 
ATOM     18  C   UNL     1       3.827  -2.904  -3.517  0.00  0.00    +0.041 C 
ATOM     19  C   UNL     1       5.170  -2.184  -3.481  0.00  0.00    +0.032 C 
BRANCH  10  20
ATOM     20  O   UNL     1       5.551   1.611  -3.088  0.00  0.00    -0.451 OA
BRANCH  20  22
ATOM     21  C   UNL     1       7.173   3.231  -2.325  0.00  0.00    +0.048 C 
ATOM     22  C   UNL     1       5.690   2.871  -2.428  0.00  0.00    +0.230 C 
ENDBRANCH  20  22
ENDBRANCH  10  20
ENDBRANCH   1  18
BRANCH   9  23
ATOM     23  C   UNL     1       0.103  -4.572  -8.131  0.00  0.00    -0.009 A 
ATOM     24  C   UNL     1      -0.504  -3.660  -8.996  0.00  0.00    +0.009 A 
ATOM     25  C   UNL     1      -1.132  -4.109 -10.140  0.00  0.00    +0.007 A 
ATOM     26  C   UNL     1      -1.164  -5.460 -10.432  0.00  0.00    -0.009 A 
ATOM     27  C   UNL     1      -0.564  -6.374  -9.577  0.00  0.00    +0.120 A 
ATOM     28  C   UNL     1       0.075  -5.934  -8.429  0.00  0.00    +0.054 A 
ATOM     29  C   UNL     1      -1.854  -5.941 -11.682  0.00  0.00    +0.047 C 
BRANCH  27  30
ATOM     30  O   UNL     1      -0.598  -7.701  -9.869  0.00  0.00    -0.506 OA
ATOM     31  H   UNL     1       0.149  -8.006 -10.401  0.00  0.00    +0.292 HD
ENDBRANCH  27  30
ENDBRANCH   9  23
BRANCH   8  32
ATOM     32  C   UNL     1      -1.300  -3.315  -5.603  0.00  0.00    +0.006 A 
ATOM     33  C   UNL     1      -2.227  -4.267  -6.039  0.00  0.00    +0.030 A 
ATOM     34  C   UNL     1      -3.573  -4.020  -5.864  0.00  0.00    +0.111 A 
ATOM     35  N   UNL     1      -3.988  -2.905  -5.295  0.00  0.00    -0.263 NA
ATOM     36  C   UNL     1      -3.147  -1.981  -4.869  0.00  0.00    +0.111 A 
ATOM     37  C   UNL     1      -1.784  -2.151  -4.999  0.00  0.00    +0.030 A 
ENDBRANCH   8  32
TORSDOF 6
