REMARK  Name = CHEMBL498468
REMARK  5 active torsions:
REMARK  status: ('A' for Active; 'I' for Inactive)
REMARK    1  A    between atoms: C_1  and  C_2
REMARK    2  A    between atoms: C_7  and  C_8
REMARK    3  A    between atoms: C_11  and  C_14
REMARK    4  A    between atoms: N_16  and  C_25
REMARK    5  A    between atoms: C_18  and  C_19
REMARK                            x       y       z     vdW  Elec       q    Type
REMARK                         _______ _______ _______ _____ _____    ______ ____
ROOT
ATOM      1  C   UNL     1       1.252   1.752  -2.777  0.00  0.00    +0.000 A 
ATOM      2  C   UNL     1       2.230   2.221  -1.898  0.00  0.00    +0.010 A 
ATOM      3  C   UNL     1       3.563   2.108  -2.227  0.00  0.00    +0.009 A 
ATOM      4  C   UNL     1       3.935   1.526  -3.438  0.00  0.00    -0.014 A 
ATOM      5  C   UNL     1       2.959   1.057  -4.317  0.00  0.00    +0.009 A 
ATOM      6  C   UNL     1       1.626   1.163  -3.987  0.00  0.00    +0.010 A 
ENDROOT
BRANCH   1  13
ATOM      7  C   UNL     1      -0.013   1.086   0.008  0.00  0.00    +0.047 C 
ATOM      8  C   UNL     1      -0.742   1.585  -1.213  0.00  0.00    -0.005 A 
ATOM      9  C   UNL     1      -2.110   1.841  -1.305  0.00  0.00    +0.138 A 
ATOM     10  N   UNL     1      -2.375   2.261  -2.516  0.00  0.00    -0.182 NA
ATOM     11  H   UNL     1      -1.085   2.561  -4.175  0.00  0.00    +0.189 HD
ATOM     12  N   UNL     1      -1.181   2.290  -3.249  0.00  0.00    -0.277 N 
ATOM     13  C   UNL     1      -0.179   1.873  -2.425  0.00  0.00    +0.069 A 
ENDBRANCH   1  13
BRANCH   4  14
ATOM     14  C   UNL     1       5.370   1.405  -3.792  0.00  0.00    +0.027 A 
ATOM     15  C   UNL     1       6.300   2.400  -3.740  0.00  0.00    +0.117 A 
ATOM     16  N   UNL     1       7.481   1.885  -4.140  0.00  0.00    -0.273 N 
ATOM     17  N   UNL     1       7.290   0.533  -4.452  0.00  0.00    -0.171 NA
ATOM     18  C   UNL     1       6.028   0.231  -4.241  0.00  0.00    +0.100 A 
ATOM     19  C   UNL     1       8.747   2.615  -4.233  0.00  0.00    +0.172 C 
BRANCH  18  20
ATOM     20  C   UNL     1       5.402  -1.098  -4.441  0.00  0.00    +0.006 A 
ATOM     21  C   UNL     1       4.376  -1.542  -3.602  0.00  0.00    +0.030 A 
ATOM     22  C   UNL     1       3.822  -2.786  -3.823  0.00  0.00    +0.111 A 
ATOM     23  N   UNL     1       4.248  -3.551  -4.810  0.00  0.00    -0.263 NA
ATOM     24  C   UNL     1       5.213  -3.170  -5.625  0.00  0.00    +0.111 A 
ATOM     25  C   UNL     1       5.818  -1.939  -5.478  0.00  0.00    +0.030 A 
ENDBRANCH  18  20
ENDBRANCH   4  14
TORSDOF 3
