REMARK  Name = CHEMBL1091689
REMARK  9 active torsions:
REMARK  status: ('A' for Active; 'I' for Inactive)
REMARK    1  A    between atoms: C_3  and  C_20
REMARK    2  A    between atoms: C_5  and  N_7
REMARK    3  A    between atoms: C_8  and  C_10
REMARK    4  A    between atoms: C_14  and  C_16
REMARK    5  A    between atoms: C_27  and  C_29
REMARK    6  A    between atoms: N_35  and  C_36
REMARK    7  A    between atoms: C_36  and  C_37
REMARK    8  A    between atoms: C_37  and  C_38
REMARK    9  A    between atoms: C_38  and  C_39
REMARK                            x       y       z     vdW  Elec       q    Type
REMARK                         _______ _______ _______ _____ _____    ______ ____
ROOT
ATOM      1  C   UNL     1       3.669   2.162   0.011  0.00  0.00    +0.076 A 
ATOM      2  C   UNL     1       4.537   2.075   1.079  0.00  0.00    +0.048 A 
ATOM      3  C   UNL     1       5.731   2.801   1.049  0.00  0.00    +0.115 A 
ATOM      4  N   UNL     1       6.023   3.558   0.017  0.00  0.00    -0.236 NA
ATOM      5  C   UNL     1       5.193   3.656  -1.031  0.00  0.00    +0.157 A 
ATOM      6  N   UNL     1       4.011   2.960  -1.055  0.00  0.00    -0.213 N 
ATOM      7  N   UNL     1       3.365   3.249  -2.262  0.00  0.00    -0.164 NA
ATOM      8  C   UNL     1       4.118   4.085  -2.957  0.00  0.00    +0.095 A 
ATOM      9  C   UNL     1       5.268   4.372  -2.217  0.00  0.00    +0.078 A 
ENDROOT
BRANCH   8  10
ATOM     10  C   UNL     1       3.791   4.636  -4.295  0.00  0.00    +0.007 A 
ATOM     11  C   UNL     1       4.668   5.512  -4.945  0.00  0.00    +0.030 A 
ATOM     12  C   UNL     1       4.329   6.003  -6.187  0.00  0.00    +0.113 A 
ATOM     13  N   UNL     1       3.194   5.660  -6.768  0.00  0.00    -0.240 NA
ATOM     14  C   UNL     1       2.334   4.834  -6.190  0.00  0.00    +0.119 A 
ATOM     15  C   UNL     1       2.604   4.290  -4.940  0.00  0.00    +0.053 A 
ATOM     16  N   UNL     1       1.152   4.504  -6.843  0.00  0.00    -0.329 N 
ATOM     17  H   UNL     1       0.961   4.878  -7.718  0.00  0.00    +0.147 HD
BRANCH  16  18
ATOM     18  C   UNL     1       0.196   3.591  -6.211  0.00  0.00    +0.103 C 
BRANCH  18  19
ATOM     19  C   UNL     1      -1.009   3.397  -7.133  0.00  0.00    +0.026 C 
BRANCH  19  20
ATOM     20  C   UNL     1      -2.008   2.444  -6.473  0.00  0.00    +0.074 C 
BRANCH  20  21
ATOM     21  C   UNL     1      -3.195   2.252  -7.382  0.00  0.00    +0.084 A 
ATOM     22  N   UNL     1      -4.290   2.995  -7.384  0.00  0.00    -0.350 N 
ATOM     23  H   UNL     1      -4.465   3.752  -6.804  0.00  0.00    +0.166 HD
ATOM     24  C   UNL     1      -5.122   2.518  -8.334  0.00  0.00    +0.101 A 
ATOM     25  C   UNL     1      -4.510   1.465  -8.912  0.00  0.00    +0.101 A 
ATOM     26  N   UNL     1      -3.310   1.318  -8.311  0.00  0.00    -0.350 N 
ATOM     27  H   UNL     1      -2.648   0.641  -8.523  0.00  0.00    +0.166 HD
ENDBRANCH  20  21
ENDBRANCH  19  20
ENDBRANCH  18  19
ENDBRANCH  16  18
ENDBRANCH   8  10
BRANCH   1  30
ATOM     28  C   UNL     1      -0.005   1.382   0.019  0.00  0.00    +0.002 A 
ATOM     29  C   UNL     1       1.180   2.089   0.021  0.00  0.00    +0.010 A 
ATOM     30  C   UNL     1       2.399   1.408   0.009  0.00  0.00    +0.002 A 
ATOM     31  C   UNL     1       2.413   0.013  -0.005  0.00  0.00    +0.033 A 
ATOM     32  C   UNL     1       1.217  -0.688  -0.007  0.00  0.00    +0.034 A 
ATOM     33  C   UNL     1       0.009  -0.000   0.005  0.00  0.00    +0.023 A 
BRANCH  32  34
ATOM     34  N   UNL     1       1.226  -2.086  -0.021  0.00  0.00    -0.281 N 
ATOM     35  C   UNL     1       2.182  -2.747  -0.704  0.00  0.00    +0.248 C 
ATOM     36  O   UNL     1       3.084  -2.131  -1.237  0.00  0.00    -0.270 OA
ATOM     37  H   UNL     1       0.544  -2.580   0.460  0.00  0.00    +0.155 HD
BRANCH  35  38
ATOM     38  C   UNL     1       2.133  -4.221  -0.805  0.00  0.00    +0.038 A 
ATOM     39  C   UNL     1       1.095  -4.931  -0.199  0.00  0.00    +0.013 A 
ATOM     40  C   UNL     1       1.055  -6.306  -0.297  0.00  0.00    +0.001 A 
ATOM     41  C   UNL     1       2.041  -6.982  -0.994  0.00  0.00    +0.012 A 
ATOM     42  C   UNL     1       3.072  -6.285  -1.597  0.00  0.00    +0.056 A 
ATOM     43  C   UNL     1       3.121  -4.909  -1.511  0.00  0.00    +0.025 A 
BRANCH  42  44
ATOM     44  C   UNL     1       4.142  -7.029  -2.353  0.00  0.00    +0.417 C 
ATOM     45  F   UNL     1       3.877  -8.402  -2.306  0.00  0.00    -0.166 F 
ATOM     46  F   UNL     1       4.154  -6.602  -3.686  0.00  0.00    -0.166 F 
ATOM     47  F   UNL     1       5.388  -6.775  -1.771  0.00  0.00    -0.166 F 
ENDBRANCH  42  44
ENDBRANCH  35  38
ENDBRANCH  32  34
ENDBRANCH   1  30
TORSDOF 9
