REMARK  Name = CHEMBL571278
REMARK  8 active torsions:
REMARK  status: ('A' for Active; 'I' for Inactive)
REMARK    1  A    between atoms: C_1  and  C_2
REMARK    2  A    between atoms: C_7  and  N_8
REMARK    3  A    between atoms: C_10  and  C_15
REMARK    4  A    between atoms: C_17  and  N_21
REMARK    5  A    between atoms: N_21  and  C_22
REMARK    6  A    between atoms: C_26  and  N_27
REMARK    7  A    between atoms: N_27  and  C_28
REMARK    8  A    between atoms: C_32  and  C_34
REMARK                            x       y       z     vdW  Elec       q    Type
REMARK                         _______ _______ _______ _____ _____    ______ ____
ROOT
ATOM      1  C   UNL     1      -2.170  -0.654   0.879  0.00  0.00    +0.045 C 
ATOM      2  C   UNL     1      -0.948  -1.385   0.386  0.00  0.00    -0.029 A 
ATOM      3  C   UNL     1      -0.796  -1.631  -0.975  0.00  0.00    +0.006 A 
ATOM      4  C   UNL     1       0.296  -2.290  -1.454  0.00  0.00    +0.012 A 
ATOM      5  C   UNL     1       1.288  -2.732  -0.569  0.00  0.00    +0.022 A 
ATOM      6  C   UNL     1       1.145  -2.488   0.820  0.00  0.00    +0.008 A 
ATOM      7  C   UNL     1       0.009  -1.800   1.289  0.00  0.00    +0.043 A 
ATOM      8  C   UNL     1       2.156  -2.942   1.686  0.00  0.00    +0.028 A 
ATOM      9  C   UNL     1       3.228  -3.595   1.159  0.00  0.00    +0.085 A 
ATOM     10  N   UNL     1       3.346  -3.815  -0.144  0.00  0.00    -0.349 N 
ATOM     11  C   UNL     1       2.439  -3.419  -1.016  0.00  0.00    +0.108 A 
ATOM     12  H   UNL     1       4.130  -4.285  -0.468  0.00  0.00    +0.167 HD
ENDROOT
BRANCH   7  13
ATOM     13  N   UNL     1      -0.148  -1.544   2.651  0.00  0.00    -0.298 N 
ATOM     14  C   UNL     1       0.082  -0.271   3.149  0.00  0.00    +0.132 A 
ATOM     15  C   UNL     1       0.059  -0.049   4.535  0.00  0.00    +0.041 A 
ATOM     16  C   UNL     1       0.293   1.241   5.014  0.00  0.00    +0.015 A 
ATOM     17  C   UNL     1       0.539   2.250   4.097  0.00  0.00    +0.020 A 
ATOM     18  C   UNL     1       0.546   1.955   2.746  0.00  0.00    +0.113 A 
ATOM     19  N   UNL     1       0.327   0.727   2.315  0.00  0.00    -0.240 NA
ATOM     20  H   UNL     1      -0.418  -2.258   3.251  0.00  0.00    +0.154 HD
BRANCH  15  21
ATOM     21  C   UNL     1      -0.210  -1.164   5.472  0.00  0.00    +0.079 A 
ATOM     22  C   UNL     1      -0.073  -0.981   6.847  0.00  0.00    +0.072 A 
ATOM     23  C   UNL     1      -0.338  -2.062   7.685  0.00  0.00    +0.122 A 
ATOM     24  N   UNL     1      -0.709  -3.221   7.146  0.00  0.00    -0.221 NA
ATOM     25  C   UNL     1      -0.827  -3.354   5.840  0.00  0.00    +0.223 A 
ATOM     26  N   UNL     1      -0.591  -2.357   5.014  0.00  0.00    -0.235 NA
BRANCH  23  27
ATOM     27  N   UNL     1      -0.217  -1.933   9.060  0.00  0.00    -0.332 N 
ATOM     28  C   UNL     1       0.193  -0.652   9.641  0.00  0.00    +0.127 C 
ATOM     29  H   UNL     1      -0.403  -2.690   9.636  0.00  0.00    +0.147 HD
ENDBRANCH  23  27
ENDBRANCH  15  21
ENDBRANCH   7  13
BRANCH  11  30
ATOM     30  N   UNL     1       2.614  -3.677  -2.367  0.00  0.00    -0.300 N 
ATOM     31  H   UNL     1       1.990  -3.313  -3.015  0.00  0.00    +0.154 HD
BRANCH  30  32
ATOM     32  C   UNL     1       3.689  -4.460  -2.795  0.00  0.00    +0.034 A 
ATOM     33  C   UNL     1       4.032  -5.612  -2.096  0.00  0.00    +0.023 A 
ATOM     34  C   UNL     1       5.094  -6.390  -2.516  0.00  0.00    +0.003 A 
ATOM     35  C   UNL     1       5.822  -6.028  -3.632  0.00  0.00    +0.017 A 
ATOM     36  C   UNL     1       5.485  -4.874  -4.341  0.00  0.00    +0.026 A 
ATOM     37  C   UNL     1       4.410  -4.092  -3.921  0.00  0.00    +0.040 A 
BRANCH  36  38
ATOM     38  C   UNL     1       6.238  -4.497  -5.499  0.00  0.00    -0.070 C 
ATOM     39  C   UNL     1       6.856  -4.188  -6.449  0.00  0.00    +0.009 C 
ENDBRANCH  36  38
ENDBRANCH  30  32
ENDBRANCH  11  30
TORSDOF 6
