REMARK  Name = CHEMBL1213976
REMARK  7 active torsions:
REMARK  status: ('A' for Active; 'I' for Inactive)
REMARK    1  A    between atoms: C_3  and  O_22
REMARK    2  A    between atoms: C_6  and  N_7
REMARK    3  A    between atoms: N_10  and  C_11
REMARK    4  A    between atoms: C_15  and  C_17
REMARK    5  A    between atoms: O_22  and  C_23
REMARK    6  A    between atoms: C_23  and  C_24
REMARK    7  A    between atoms: C_24  and  N_25
REMARK                            x       y       z     vdW  Elec       q    Type
REMARK                         _______ _______ _______ _____ _____    ______ ____
ROOT
ATOM      1  N   UNL     1      -0.558  -1.237  -0.478  0.00  0.00    -0.269 N 
ATOM      2  C   UNL     1      -1.770  -0.843  -0.918  0.00  0.00    +0.308 C 
ATOM      3  O   UNL     1      -1.940   0.304  -1.284  0.00  0.00    -0.252 OA
ATOM      4  N   UNL     1      -2.792  -1.721  -0.953  0.00  0.00    -0.269 N 
ATOM      5  H   UNL     1      -0.402  -2.168  -0.256  0.00  0.00    +0.156 HD
ATOM      6  H   UNL     1      -2.678  -2.613  -0.591  0.00  0.00    +0.156 HD
ENDROOT
BRANCH   4   7
ATOM      7  C   UNL     1      -4.019  -1.344  -1.512  0.00  0.00    +0.035 A 
ATOM      8  C   UNL     1      -4.054  -0.458  -2.580  0.00  0.00    +0.025 A 
ATOM      9  C   UNL     1      -5.266  -0.087  -3.129  0.00  0.00    +0.022 A 
ATOM     10  C   UNL     1      -6.445  -0.598  -2.615  0.00  0.00    +0.053 A 
ATOM     11  C   UNL     1      -6.413  -1.480  -1.550  0.00  0.00    +0.075 A 
ATOM     12  C   UNL     1      -5.203  -1.859  -1.001  0.00  0.00    +0.037 A 
ATOM     13 CL   UNL     1      -7.967  -0.130  -3.307  0.00  0.00    -0.083 Cl
BRANCH  11  14
ATOM     14  C   UNL     1      -7.699  -2.034  -0.992  0.00  0.00    +0.419 C 
ATOM     15  F   UNL     1      -7.412  -2.897   0.071  0.00  0.00    -0.166 F 
ATOM     16  F   UNL     1      -8.500  -0.982  -0.536  0.00  0.00    -0.166 F 
ATOM     17  F   UNL     1      -8.377  -2.737  -1.994  0.00  0.00    -0.166 F 
ENDBRANCH  11  14
ENDBRANCH   4   7
BRANCH   1  23
ATOM     18  C   UNL     1       0.185   1.007   0.022  0.00  0.00    +0.027 A 
ATOM     19  C   UNL     1       1.205   1.928   0.158  0.00  0.00    +0.047 A 
ATOM     20  C   UNL     1       2.519   1.547  -0.070  0.00  0.00    +0.121 A 
ATOM     21  C   UNL     1       2.810   0.241  -0.433  0.00  0.00    +0.047 A 
ATOM     22  C   UNL     1       1.792  -0.682  -0.568  0.00  0.00    +0.027 A 
ATOM     23  C   UNL     1       0.476  -0.301  -0.341  0.00  0.00    +0.035 A 
BRANCH  20  24
ATOM     24  O   UNL     1       3.523   2.455   0.063  0.00  0.00    -0.494 OA
BRANCH  24  25
ATOM     25  C   UNL     1       4.852   1.994  -0.186  0.00  0.00    +0.210 C 
BRANCH  25  26
ATOM     26  C   UNL     1       5.837   3.148   0.012  0.00  0.00    -0.037 C 
BRANCH  26  27
ATOM     27  N   UNL     1       5.825   3.567   1.420  0.00  0.00    +0.385 N 
ATOM     28  C   UNL     1       6.655   4.768   1.581  0.00  0.00    -0.050 C 
ATOM     29  C   UNL     1       6.641   5.203   3.049  0.00  0.00    +0.141 C 
ATOM     30  O   UNL     1       7.111   4.126   3.864  0.00  0.00    -0.383 OA
ATOM     31  C   UNL     1       6.348   2.924   3.724  0.00  0.00    +0.141 C 
ATOM     32  C   UNL     1       6.362   2.485   2.257  0.00  0.00    -0.050 C 
ATOM     33  H   UNL     1       4.878   3.772   1.702  0.00  0.00    -0.081 HD
ENDBRANCH  26  27
ENDBRANCH  25  26
ENDBRANCH  24  25
ENDBRANCH  20  24
ENDBRANCH   1  23
TORSDOF 7
