REMARK  Name = CHEMBL585921
REMARK  5 active torsions:
REMARK  status: ('A' for Active; 'I' for Inactive)
REMARK    1  A    between atoms: C_1  and  C_2
REMARK    2  A    between atoms: C_7  and  N_8
REMARK    3  A    between atoms: C_10  and  C_15
REMARK    4  A    between atoms: C_28  and  N_29
REMARK    5  A    between atoms: N_29  and  C_30
REMARK                            x       y       z     vdW  Elec       q    Type
REMARK                         _______ _______ _______ _____ _____    ______ ____
ROOT
ATOM      1  C   UNL     1      -0.875  -5.523   1.421  0.00  0.00    +0.045 C 
ATOM      2  C   UNL     1       0.422  -5.729   2.160  0.00  0.00    -0.029 A 
ATOM      3  C   UNL     1       1.200  -6.849   1.886  0.00  0.00    +0.006 A 
ATOM      4  C   UNL     1       2.378  -7.066   2.537  0.00  0.00    +0.012 A 
ATOM      5  C   UNL     1       2.821  -6.150   3.500  0.00  0.00    +0.024 A 
ATOM      6  C   UNL     1       2.038  -5.005   3.788  0.00  0.00    +0.008 A 
ATOM      7  C   UNL     1       0.828  -4.801   3.098  0.00  0.00    +0.043 A 
ATOM      8  C   UNL     1       2.508  -4.101   4.759  0.00  0.00    +0.030 A 
ATOM      9  C   UNL     1       3.691  -4.361   5.381  0.00  0.00    +0.113 A 
ATOM     10  N   UNL     1       4.411  -5.439   5.098  0.00  0.00    -0.240 NA
ATOM     11  C   UNL     1       4.035  -6.330   4.200  0.00  0.00    +0.131 A 
ENDROOT
BRANCH   7  12
ATOM     12  N   UNL     1       0.045  -3.677   3.363  0.00  0.00    -0.298 N 
ATOM     13  C   UNL     1       0.599  -2.584   4.012  0.00  0.00    +0.132 A 
ATOM     14  C   UNL     1       1.643  -1.868   3.405  0.00  0.00    +0.043 A 
ATOM     15  C   UNL     1       2.186  -0.770   4.076  0.00  0.00    +0.015 A 
ATOM     16  C   UNL     1       1.667  -0.434   5.316  0.00  0.00    +0.020 A 
ATOM     17  C   UNL     1       0.637  -1.187   5.849  0.00  0.00    +0.113 A 
ATOM     18  N   UNL     1       0.136  -2.217   5.196  0.00  0.00    -0.240 NA
ATOM     19  H   UNL     1      -0.887  -3.660   3.094  0.00  0.00    +0.154 HD
BRANCH  14  20
ATOM     20  C   UNL     1       2.161  -2.271   2.079  0.00  0.00    +0.103 A 
ATOM     21  C   UNL     1       2.353  -1.324   1.068  0.00  0.00    +0.111 A 
ATOM     22  C   UNL     1       2.848  -1.758  -0.176  0.00  0.00    +0.181 A 
ATOM     23  N   UNL     1       2.939  -0.667  -0.960  0.00  0.00    -0.216 NA
ATOM     24  H   UNL     1       1.842   0.632   1.643  0.00  0.00    +0.167 HD
ATOM     25  C   UNL     1       2.544   0.385  -0.299  0.00  0.00    +0.199 A 
ATOM     26  N   UNL     1       2.173   0.036   0.954  0.00  0.00    -0.341 N 
ATOM     27  N   UNL     1       3.113  -3.056  -0.342  0.00  0.00    -0.215 NA
ATOM     28  C   UNL     1       2.916  -3.911   0.638  0.00  0.00    +0.224 A 
ATOM     29  N   UNL     1       2.460  -3.545   1.821  0.00  0.00    -0.233 NA
ENDBRANCH  14  20
ENDBRANCH   7  12
BRANCH  11  30
ATOM     30  N   UNL     1       4.827  -7.438   3.946  0.00  0.00    -0.299 N 
ATOM     31  H   UNL     1       4.592  -8.048   3.230  0.00  0.00    +0.154 HD
BRANCH  30  32
ATOM     32  C   UNL     1       5.966  -7.676   4.722  0.00  0.00    +0.032 A 
ATOM     33  C   UNL     1       5.978  -7.327   6.066  0.00  0.00    +0.025 A 
ATOM     34  C   UNL     1       7.104  -7.563   6.830  0.00  0.00    +0.022 A 
ATOM     35  C   UNL     1       8.220  -8.147   6.257  0.00  0.00    +0.041 A 
ATOM     36  C   UNL     1       8.211  -8.495   4.918  0.00  0.00    +0.022 A 
ATOM     37  C   UNL     1       7.086  -8.267   4.151  0.00  0.00    +0.025 A 
ATOM     38 CL   UNL     1       9.633  -8.443   7.220  0.00  0.00    -0.084 Cl
ENDBRANCH  30  32
ENDBRANCH  11  30
TORSDOF 4
