REMARK  Name = CHEMBL477987
REMARK  5 active torsions:
REMARK  status: ('A' for Active; 'I' for Inactive)
REMARK    1  A    between atoms: C_6  and  C_7
REMARK    2  A    between atoms: C_8  and  C_20
REMARK    3  A    between atoms: C_11  and  C_13
REMARK    4  A    between atoms: C_13  and  N_14
REMARK    5  A    between atoms: N_29  and  O_30
REMARK                            x       y       z     vdW  Elec       q    Type
REMARK                         _______ _______ _______ _____ _____    ______ ____
ROOT
ATOM      1  C   UNL     1      -1.268  -0.763   0.010  0.00  0.00    +0.097 A 
ATOM      2  C   UNL     1      -2.437  -0.400   0.658  0.00  0.00    +0.074 A 
ATOM      3  N   UNL     1      -3.348  -1.395   0.391  0.00  0.00    -0.340 N 
ATOM      4  H   UNL     1      -4.265  -1.433   0.705  0.00  0.00    +0.167 HD
ATOM      5  C   UNL     1      -2.731  -2.309  -0.388  0.00  0.00    +0.122 A 
ATOM      6  N   UNL     1      -1.504  -1.931  -0.616  0.00  0.00    -0.231 NA
ENDROOT
BRANCH   1  12
ATOM      7  C   UNL     1      -0.017   1.392   0.010  0.00  0.00    +0.011 A 
ATOM      8  C   UNL     1       1.164   2.095   0.002  0.00  0.00    +0.011 A 
ATOM      9  C   UNL     1       2.392   1.416  -0.014  0.00  0.00    +0.003 A 
ATOM     10  C   UNL     1       2.407   0.022  -0.021  0.00  0.00    -0.037 A 
ATOM     11  C   UNL     1       1.221  -0.682  -0.013  0.00  0.00    +0.014 A 
ATOM     12  C   UNL     1       0.002  -0.004   0.002  0.00  0.00    +0.003 A 
ATOM     13  C   UNL     1       3.835  -0.469  -0.038  0.00  0.00    +0.042 C 
ATOM     14  C   UNL     1       4.723   0.782  -0.040  0.00  0.00    +0.064 C 
ATOM     15  C   UNL     1       3.768   1.950  -0.024  0.00  0.00    +0.088 C 
ATOM     16  N   UNL     1       4.097   3.202  -0.021  0.00  0.00    -0.092 NA
BRANCH  16  17
ATOM     17  O   UNL     1       5.463   3.575  -0.032  0.00  0.00    -0.409 OA
ATOM     18  H   UNL     1       5.610   4.530  -0.028  0.00  0.00    +0.328 HD
ENDBRANCH  16  17
ENDBRANCH   1  12
BRANCH   2  19
ATOM     19  C   UNL     1      -2.659   0.811   1.472  0.00  0.00    +0.003 A 
ATOM     20  C   UNL     1      -1.710   1.231   2.414  0.00  0.00    +0.030 A 
ATOM     21  C   UNL     1      -1.960   2.368   3.152  0.00  0.00    +0.111 A 
ATOM     22  N   UNL     1      -3.073   3.056   2.982  0.00  0.00    -0.263 NA
ATOM     23  C   UNL     1      -3.993   2.696   2.107  0.00  0.00    +0.111 A 
ATOM     24  C   UNL     1      -3.824   1.576   1.321  0.00  0.00    +0.030 A 
ENDBRANCH   2  19
BRANCH   5  25
ATOM     25  C   UNL     1      -3.364  -3.569  -0.918  0.00  0.00    +0.158 C 
BRANCH  25  26
ATOM     26  N   UNL     1      -3.880  -3.327  -2.271  0.00  0.00    -0.291 NA
ATOM     27  C   UNL     1      -4.994  -2.367  -2.247  0.00  0.00    +0.113 C 
ATOM     28  C   UNL     1      -5.461  -2.098  -3.680  0.00  0.00    +0.175 C 
ATOM     29  O   UNL     1      -5.826  -3.336  -4.297  0.00  0.00    -0.377 OA
ATOM     30  C   UNL     1      -4.764  -4.293  -4.339  0.00  0.00    +0.175 C 
ATOM     31  C   UNL     1      -4.291  -4.585  -2.912  0.00  0.00    +0.113 C 
ENDBRANCH  25  26
ENDBRANCH   5  25
TORSDOF 5
