REMARK  Name = CHEMBL570873
REMARK  6 active torsions:
REMARK  status: ('A' for Active; 'I' for Inactive)
REMARK    1  A    between atoms: C_1  and  N_2
REMARK    2  A    between atoms: C_9  and  C_25
REMARK    3  A    between atoms: C_10  and  C_19
REMARK    4  A    between atoms: C_16  and  C_17
REMARK    5  A    between atoms: C_17  and  O_18
REMARK    6  A    between atoms: C_29  and  O_31
REMARK                            x       y       z     vdW  Elec       q    Type
REMARK                         _______ _______ _______ _____ _____    ______ ____
ROOT
ATOM      1  C   UNL     1      -0.203   1.402  -0.189  0.00  0.00    +0.105 C 
ATOM      2  N   UNL     1      -0.152  -0.065  -0.129  0.00  0.00    -0.293 NA
ATOM      3  C   UNL     1      -1.464  -0.628   0.284  0.00  0.00    +0.067 C 
ATOM      4  C   UNL     1      -1.463  -2.120  -0.042  0.00  0.00    +0.057 C 
ATOM      5  C   UNL     1      -0.167  -2.765   0.377  0.00  0.00    -0.005 A 
ATOM      6  C   UNL     1      -0.047  -4.164   0.298  0.00  0.00    +0.118 A 
ATOM      7  N   UNL     1       1.062  -4.789   0.642  0.00  0.00    -0.235 NA
ATOM      8  C   UNL     1       2.096  -4.055   1.071  0.00  0.00    +0.164 A 
ATOM      9  C   UNL     1       3.366  -4.422   1.488  0.00  0.00    +0.054 A 
ATOM     10  C   UNL     1       4.049  -3.234   1.831  0.00  0.00    +0.103 A 
ATOM     11  N   UNL     1       3.237  -2.208   1.634  0.00  0.00    -0.164 NA
ATOM     12  N   UNL     1       2.019  -2.677   1.166  0.00  0.00    -0.216 N 
ATOM     13  C   UNL     1       0.875  -2.023   0.824  0.00  0.00    +0.067 A 
ATOM     14  C   UNL     1       0.762  -0.523   0.954  0.00  0.00    +0.106 C 
ATOM     15  C   UNL     1      -0.051  -0.266   2.250  0.00  0.00    +0.032 C 
ATOM     16  C   UNL     1      -1.522  -0.415   1.809  0.00  0.00    +0.034 C 
ENDROOT
BRANCH   9  17
ATOM     17  C   UNL     1       3.905  -5.798   1.561  0.00  0.00    -0.009 A 
ATOM     18  C   UNL     1       3.349  -6.722   2.447  0.00  0.00    +0.010 A 
ATOM     19  C   UNL     1       3.853  -8.005   2.513  0.00  0.00    +0.024 A 
ATOM     20  C   UNL     1       4.910  -8.379   1.701  0.00  0.00    +0.082 A 
ATOM     21  C   UNL     1       5.470  -7.466   0.817  0.00  0.00    +0.136 A 
ATOM     22  C   UNL     1       4.966  -6.178   0.740  0.00  0.00    +0.055 A 
ATOM     23 CL   UNL     1       5.539  -9.995   1.790  0.00  0.00    -0.080 Cl
BRANCH  21  24
ATOM     24  O   UNL     1       6.508  -7.838   0.022  0.00  0.00    -0.505 OA
ATOM     25  H   UNL     1       6.238  -8.202  -0.832  0.00  0.00    +0.292 HD
ENDBRANCH  21  24
ENDBRANCH   9  17
BRANCH  10  26
ATOM     26  C   UNL     1       5.443  -3.151   2.330  0.00  0.00    +0.006 A 
ATOM     27  C   UNL     1       5.971  -4.148   3.157  0.00  0.00    +0.030 A 
ATOM     28  C   UNL     1       7.272  -4.031   3.599  0.00  0.00    +0.111 A 
ATOM     29  N   UNL     1       8.016  -2.998   3.251  0.00  0.00    -0.263 NA
ATOM     30  C   UNL     1       7.557  -2.037   2.473  0.00  0.00    +0.111 A 
ATOM     31  C   UNL     1       6.268  -2.078   1.982  0.00  0.00    +0.030 A 
ENDBRANCH  10  26
BRANCH  16  32
ATOM     32  C   UNL     1      -2.307   0.856   2.138  0.00  0.00    +0.161 C 
BRANCH  32  33
ATOM     33  O   UNL     1      -2.458   0.970   3.554  0.00  0.00    -0.395 OA
ATOM     34  H   UNL     1      -2.947   1.755   3.837  0.00  0.00    +0.209 HD
ENDBRANCH  32  33
ENDBRANCH  16  32
TORSDOF 5
