REMARK  Name = CHEMBL381421
REMARK  4 active torsions:
REMARK  status: ('A' for Active; 'I' for Inactive)
REMARK    1  A    between atoms: C_4  and  C_7
REMARK    2  A    between atoms: C_10  and  C_19
REMARK    3  A    between atoms: C_11  and  C_13
REMARK    4  A    between atoms: C_23  and  O_25
REMARK                            x       y       z     vdW  Elec       q    Type
REMARK                         _______ _______ _______ _____ _____    ______ ____
ROOT
ATOM      1  C   UNL     1       3.702  -0.689   0.081  0.00  0.00    +0.139 A 
ATOM      2  N   UNL     1       3.857  -2.045   0.055  0.00  0.00    -0.337 N 
ATOM      3  H   UNL     1       3.153  -2.707   0.145  0.00  0.00    +0.167 HD
ATOM      4  C   UNL     1       5.196  -2.298  -0.124  0.00  0.00    +0.074 A 
ATOM      5  C   UNL     1       5.820  -1.064  -0.201  0.00  0.00    +0.099 A 
ATOM      6  N   UNL     1       4.874  -0.119  -0.077  0.00  0.00    -0.227 NA
ENDROOT
BRANCH   4   7
ATOM      7  C   UNL     1       5.841  -3.623  -0.215  0.00  0.00    +0.004 A 
ATOM      8  C   UNL     1       6.990  -3.895   0.531  0.00  0.00    +0.011 A 
ATOM      9  C   UNL     1       7.590  -5.134   0.444  0.00  0.00    +0.024 A 
ATOM     10  C   UNL     1       7.058  -6.109  -0.382  0.00  0.00    +0.082 A 
ATOM     11  C   UNL     1       5.916  -5.847  -1.128  0.00  0.00    +0.136 A 
ATOM     12  C   UNL     1       5.302  -4.609  -1.043  0.00  0.00    +0.057 A 
ATOM     13 CL   UNL     1       7.822  -7.665  -0.486  0.00  0.00    -0.080 Cl
BRANCH  11  14
ATOM     14  O   UNL     1       5.398  -6.808  -1.938  0.00  0.00    -0.505 OA
ATOM     15  H   UNL     1       4.746  -7.377  -1.505  0.00  0.00    +0.292 HD
ENDBRANCH  11  14
ENDBRANCH   4   7
BRANCH   1  19
ATOM     16  C   UNL     1       0.015   1.360   0.579  0.00  0.00    +0.000 A 
ATOM     17  C   UNL     1       1.186   2.079   0.422  0.00  0.00    +0.001 A 
ATOM     18  C   UNL     1       2.387   1.420   0.260  0.00  0.00    +0.011 A 
ATOM     19  C   UNL     1       2.419   0.024   0.255  0.00  0.00    +0.017 A 
ATOM     20  C   UNL     1       1.233  -0.695   0.414  0.00  0.00    +0.011 A 
ATOM     21  C   UNL     1       0.039  -0.023   0.575  0.00  0.00    +0.001 A 
ENDBRANCH   1  19
BRANCH   5  22
ATOM     22  C   UNL     1       7.270  -0.829  -0.393  0.00  0.00    +0.024 A 
ATOM     23  C   UNL     1       8.013  -1.589  -1.307  0.00  0.00    +0.033 A 
ATOM     24  C   UNL     1       9.362  -1.311  -1.430  0.00  0.00    +0.135 A 
ATOM     25  N   UNL     1       9.909  -0.356  -0.700  0.00  0.00    -0.158 NA
ATOM     26  N   UNL     1       9.234   0.343   0.138  0.00  0.00    -0.157 NA
ATOM     27  C   UNL     1       7.943   0.163   0.328  0.00  0.00    +0.145 A 
ENDBRANCH   5  22
TORSDOF 4
