REMARK  Name = CHEMBL1076204
REMARK  6 active torsions:
REMARK  status: ('A' for Active; 'I' for Inactive)
REMARK    1  A    between atoms: C_1  and  N_2
REMARK    2  A    between atoms: C_11  and  C_14
REMARK    3  A    between atoms: C_22  and  C_23
REMARK    4  A    between atoms: C_25  and  N_30
REMARK    5  A    between atoms: C_31  and  C_33
REMARK    6  A    between atoms: C_37  and  C_39
REMARK                            x       y       z     vdW  Elec       q    Type
REMARK                         _______ _______ _______ _____ _____    ______ ____
ROOT
ATOM      1  C   UNL     1      -2.209  -6.921   3.938  0.00  0.00    +0.047 A 
ATOM      2  C   UNL     1      -3.397  -6.991   4.673  0.00  0.00    +0.145 A 
ATOM      3  N   UNL     1      -3.442  -8.143   5.298  0.00  0.00    -0.172 NA
ATOM      4  N   UNL     1      -2.288  -8.874   5.000  0.00  0.00    -0.213 N 
ATOM      5  C   UNL     1      -1.519  -8.122   4.149  0.00  0.00    +0.164 A 
ATOM      6  N   UNL     1      -0.351  -8.583   3.694  0.00  0.00    -0.236 NA
ATOM      7  C   UNL     1       0.098  -9.768   4.042  0.00  0.00    +0.115 A 
ATOM      8  C   UNL     1      -0.645 -10.580   4.903  0.00  0.00    +0.048 A 
ATOM      9  C   UNL     1      -1.851 -10.118   5.390  0.00  0.00    +0.079 A 
ENDROOT
BRANCH   1  20
ATOM     10  C   UNL     1       0.027   1.446  -0.006  0.00  0.00    +0.105 C 
ATOM     11  N   UNL     1       0.052  -0.023  -0.008  0.00  0.00    -0.302 NA
ATOM     12  C   UNL     1      -1.306  -0.572  -0.113  0.00  0.00    +0.103 C 
ATOM     13  C   UNL     1      -1.226  -2.092  -0.294  0.00  0.00    +0.122 C 
ATOM     14  N   UNL     1      -0.411  -2.650   0.796  0.00  0.00    -0.314 N 
ATOM     15  C   UNL     1       0.910  -2.057   1.051  0.00  0.00    +0.122 C 
ATOM     16  C   UNL     1       0.746  -0.539   1.179  0.00  0.00    +0.103 C 
ATOM     17  C   UNL     1      -0.879  -3.711   1.565  0.00  0.00    +0.099 A 
ATOM     18  C   UNL     1      -2.174  -4.181   1.371  0.00  0.00    +0.042 A 
ATOM     19  C   UNL     1      -2.631  -5.234   2.139  0.00  0.00    +0.013 A 
ATOM     20  C   UNL     1      -1.766  -5.790   3.089  0.00  0.00    +0.003 A 
ATOM     21  C   UNL     1      -0.484  -5.265   3.226  0.00  0.00    +0.092 A 
ATOM     22  N   UNL     1      -0.084  -4.262   2.469  0.00  0.00    -0.349 N 
ATOM     23  H   UNL     1       0.816  -3.916   2.581  0.00  0.00    +0.167 HD
ENDBRANCH   1  20
BRANCH   9  24
ATOM     24  C   UNL     1      -2.663 -10.949   6.300  0.00  0.00    +0.037 A 
ATOM     25  C   UNL     1      -2.295 -11.087   7.640  0.00  0.00    +0.036 A 
ATOM     26  C   UNL     1      -3.062 -11.868   8.488  0.00  0.00    +0.034 A 
ATOM     27  C   UNL     1      -4.195 -12.514   8.005  0.00  0.00    +0.026 A 
ATOM     28  C   UNL     1      -4.561 -12.381   6.680  0.00  0.00    +0.041 A 
ATOM     29  C   UNL     1      -3.807 -11.598   5.825  0.00  0.00    +0.133 A 
ATOM     30  F   UNL     1      -4.172 -11.465   4.531  0.00  0.00    -0.205 F 
BRANCH  26  31
ATOM     31  N   UNL     1      -2.697 -12.008   9.832  0.00  0.00    -0.281 N 
ATOM     32  C   UNL     1      -2.132 -10.975  10.488  0.00  0.00    +0.248 C 
ATOM     33  O   UNL     1      -2.031  -9.893   9.944  0.00  0.00    -0.270 OA
ATOM     34  H   UNL     1      -2.850 -12.849  10.291  0.00  0.00    +0.155 HD
BRANCH  32  35
ATOM     35  C   UNL     1      -1.637 -11.158  11.868  0.00  0.00    +0.038 A 
ATOM     36  C   UNL     1      -1.747 -12.402  12.493  0.00  0.00    +0.013 A 
ATOM     37  C   UNL     1      -1.282 -12.566  13.782  0.00  0.00    +0.001 A 
ATOM     38  C   UNL     1      -0.708 -11.502  14.454  0.00  0.00    +0.012 A 
ATOM     39  C   UNL     1      -0.596 -10.267  13.841  0.00  0.00    +0.056 A 
ATOM     40  C   UNL     1      -1.052 -10.091  12.550  0.00  0.00    +0.025 A 
BRANCH  39  41
ATOM     41  C   UNL     1       0.030  -9.113  14.581  0.00  0.00    +0.417 C 
ATOM     42  F   UNL     1       0.416  -9.534  15.858  0.00  0.00    -0.166 F 
ATOM     43  F   UNL     1       1.153  -8.663  13.879  0.00  0.00    -0.166 F 
ATOM     44  F   UNL     1      -0.898  -8.073  14.694  0.00  0.00    -0.166 F 
ENDBRANCH  39  41
ENDBRANCH  32  35
ENDBRANCH  26  31
ENDBRANCH   9  24
TORSDOF 5
