REMARK  Name = CHEMBL1080268
REMARK  10 active torsions:
REMARK  status: ('A' for Active; 'I' for Inactive)
REMARK    1  A    between atoms: C_1  and  N_2
REMARK    2  A    between atoms: N_5  and  C_8
REMARK    3  A    between atoms: C_8  and  C_9
REMARK    4  A    between atoms: C_9  and  C_10
REMARK    5  A    between atoms: C_10  and  C_11
REMARK    6  A    between atoms: C_12  and  C_13
REMARK    7  A    between atoms: C_21  and  C_22
REMARK    8  A    between atoms: C_26  and  N_28
REMARK    9  A    between atoms: C_29  and  C_31
REMARK   10  A    between atoms: C_35  and  C_37
REMARK                            x       y       z     vdW  Elec       q    Type
REMARK                         _______ _______ _______ _____ _____    ______ ____
ROOT
ATOM      1  C   UNL     1       1.477  -8.212   5.491  0.00  0.00    +0.089 A 
ATOM      2  C   UNL     1       1.975  -7.318   6.448  0.00  0.00    +0.153 A 
ATOM      3  N   UNL     1       2.460  -8.002   7.455  0.00  0.00    -0.172 NA
ATOM      4  N   UNL     1       2.302  -9.369   7.204  0.00  0.00    -0.213 N 
ATOM      5  C   UNL     1       1.687  -9.508   5.988  0.00  0.00    +0.172 A 
ATOM      6  N   UNL     1       1.405 -10.717   5.498  0.00  0.00    -0.235 NA
ATOM      7  C   UNL     1       1.705 -11.811   6.163  0.00  0.00    +0.115 A 
ATOM      8  C   UNL     1       2.330 -11.730   7.410  0.00  0.00    +0.048 A 
ATOM      9  C   UNL     1       2.636 -10.488   7.928  0.00  0.00    +0.076 A 
ENDROOT
BRANCH   9  10
ATOM     10  C   UNL     1       3.295 -10.364   9.245  0.00  0.00    +0.002 A 
ATOM     11  C   UNL     1       2.616  -9.778  10.316  0.00  0.00    +0.010 A 
ATOM     12  C   UNL     1       3.234  -9.664  11.544  0.00  0.00    +0.002 A 
ATOM     13  C   UNL     1       4.525 -10.127  11.720  0.00  0.00    +0.023 A 
ATOM     14  C   UNL     1       5.209 -10.712  10.661  0.00  0.00    +0.034 A 
ATOM     15  C   UNL     1       4.596 -10.837   9.424  0.00  0.00    +0.033 A 
BRANCH  14  16
ATOM     16  N   UNL     1       6.515 -11.178  10.844  0.00  0.00    -0.281 N 
ATOM     17  C   UNL     1       7.402 -11.115   9.831  0.00  0.00    +0.248 C 
ATOM     18  O   UNL     1       7.097 -10.566   8.790  0.00  0.00    -0.270 OA
ATOM     19  H   UNL     1       6.782 -11.548  11.700  0.00  0.00    +0.155 HD
BRANCH  17  20
ATOM     20  C   UNL     1       8.744 -11.713   9.986  0.00  0.00    +0.038 A 
ATOM     21  C   UNL     1       9.095 -12.350  11.178  0.00  0.00    +0.013 A 
ATOM     22  C   UNL     1      10.350 -12.906  11.315  0.00  0.00    +0.001 A 
ATOM     23  C   UNL     1      11.260 -12.835  10.275  0.00  0.00    +0.012 A 
ATOM     24  C   UNL     1      10.918 -12.206   9.091  0.00  0.00    +0.056 A 
ATOM     25  C   UNL     1       9.665 -11.650   8.939  0.00  0.00    +0.025 A 
BRANCH  24  26
ATOM     26  C   UNL     1      11.916 -12.132   7.965  0.00  0.00    +0.417 C 
ATOM     27  F   UNL     1      13.103 -12.764   8.350  0.00  0.00    -0.166 F 
ATOM     28  F   UNL     1      11.393 -12.771   6.836  0.00  0.00    -0.166 F 
ATOM     29  F   UNL     1      12.179 -10.792   7.661  0.00  0.00    -0.166 F 
ENDBRANCH  24  26
ENDBRANCH  17  20
ENDBRANCH  14  16
ENDBRANCH   9  10
BRANCH   1  31
ATOM     30  C   UNL     1       0.362  -7.587   3.221  0.00  0.00    -0.097 C 
ATOM     31  C   UNL     1       0.864  -7.868   4.244  0.00  0.00    -0.061 C 
BRANCH  30  32
ATOM     32  C   UNL     1      -0.268  -7.233   1.938  0.00  0.00    +0.087 C 
BRANCH  32  33
ATOM     33  C   UNL     1      -0.298  -5.711   1.787  0.00  0.00    -0.006 C 
BRANCH  33  34
ATOM     34  C   UNL     1      -0.953  -5.344   0.454  0.00  0.00    -0.078 C 
BRANCH  34  39
ATOM     35  C   UNL     1      -0.393  -0.021  -1.309  0.00  0.00    +0.104 C 
ATOM     36  N   UNL     1      -0.391  -1.478  -1.116  0.00  0.00    -0.309 NA
ATOM     37  C   UNL     1      -1.762  -2.003  -1.054  0.00  0.00    +0.065 C 
ATOM     38  C   UNL     1      -1.716  -3.526  -0.913  0.00  0.00    -0.063 C 
ATOM     39  N   UNL     1      -0.981  -3.882   0.309  0.00  0.00    +0.381 N 
ATOM     40  C   UNL     1       0.393  -3.372   0.222  0.00  0.00    -0.063 C 
ATOM     41  C   UNL     1       0.364  -1.848   0.089  0.00  0.00    +0.065 C 
ATOM     42  H   UNL     1      -1.442  -3.474   1.109  0.00  0.00    -0.082 HD
ENDBRANCH  34  39
ENDBRANCH  33  34
ENDBRANCH  32  33
ENDBRANCH  30  32
ENDBRANCH   1  31
TORSDOF 9
