REMARK  Name = CHEMBL569312
REMARK  6 active torsions:
REMARK  status: ('A' for Active; 'I' for Inactive)
REMARK    1  A    between atoms: C_1  and  S_2
REMARK    2  A    between atoms: S_2  and  C_5
REMARK    3  A    between atoms: C_11  and  C_13
REMARK    4  A    between atoms: C_20  and  C_30
REMARK    5  A    between atoms: C_21  and  C_22
REMARK    6  A    between atoms: C_26  and  O_28
REMARK                            x       y       z     vdW  Elec       q    Type
REMARK                         _______ _______ _______ _____ _____    ______ ____
ROOT
ATOM      1  C   UNL     1      -0.246  -2.192  -4.647  0.00  0.00    +0.050 A 
ATOM      2  C   UNL     1      -0.538  -2.957  -5.728  0.00  0.00    +0.043 A 
ATOM      3  C   UNL     1      -1.756  -3.649  -5.772  0.00  0.00    +0.115 A 
ATOM      4  N   UNL     1      -2.607  -3.556  -4.776  0.00  0.00    -0.236 NA
ATOM      5  C   UNL     1      -2.329  -2.805  -3.705  0.00  0.00    +0.164 A 
ATOM      6  N   UNL     1      -1.145  -2.118  -3.622  0.00  0.00    -0.217 N 
ATOM      7  N   UNL     1      -1.126  -1.432  -2.402  0.00  0.00    -0.164 NA
ATOM      8  C   UNL     1      -2.244  -1.682  -1.747  0.00  0.00    +0.103 A 
ATOM      9  C   UNL     1      -3.042  -2.537  -2.531  0.00  0.00    +0.054 A 
ENDROOT
BRANCH   1  16
ATOM     10  C   UNL     1       0.523   1.238  -5.678  0.00  0.00    +0.136 C 
ATOM     11  C   UNL     1       0.448  -0.040  -6.554  0.00  0.00    +0.014 C 
ATOM     12  C   UNL     1      -0.956  -0.611  -6.245  0.00  0.00    +0.006 C 
ATOM     13  C   UNL     1      -1.326  -0.105  -4.838  0.00  0.00    +0.006 C 
ATOM     14  C   UNL     1      -0.130   0.750  -4.358  0.00  0.00    +0.014 C 
ATOM     15  C   UNL     1       0.878  -0.202  -3.692  0.00  0.00    +0.015 C 
ATOM     16  C   UNL     1       1.057  -1.438  -4.575  0.00  0.00    +0.039 C 
ATOM     17  C   UNL     1       1.482  -1.027  -5.986  0.00  0.00    +0.015 C 
BRANCH  10  19
ATOM     18  C   UNL     1       0.513   2.982  -7.913  0.00  0.00    +0.194 C 
ATOM     19  S   UNL     1      -0.434   2.591  -6.416  0.00  0.00    -0.030 S 
ATOM     20  O   UNL     1      -0.377   3.711  -5.543  0.00  0.00    -0.174 OA
ATOM     21  O   UNL     1      -1.702   2.083  -6.806  0.00  0.00    -0.174 OA
ENDBRANCH  10  19
ENDBRANCH   1  16
BRANCH   9  22
ATOM     22  C   UNL     1      -4.377  -3.066  -2.174  0.00  0.00    -0.009 A 
ATOM     23  C   UNL     1      -5.463  -2.199  -2.050  0.00  0.00    +0.010 A 
ATOM     24  C   UNL     1      -6.707  -2.696  -1.716  0.00  0.00    +0.024 A 
ATOM     25  C   UNL     1      -6.880  -4.052  -1.503  0.00  0.00    +0.082 A 
ATOM     26  C   UNL     1      -5.804  -4.921  -1.624  0.00  0.00    +0.136 A 
ATOM     27  C   UNL     1      -4.554  -4.434  -1.965  0.00  0.00    +0.055 A 
ATOM     28 CL   UNL     1      -8.448  -4.668  -1.082  0.00  0.00    -0.080 Cl
BRANCH  26  29
ATOM     29  O   UNL     1      -5.980  -6.253  -1.413  0.00  0.00    -0.505 OA
ATOM     30  H   UNL     1      -6.216  -6.749  -2.209  0.00  0.00    +0.292 HD
ENDBRANCH  26  29
ENDBRANCH   9  22
BRANCH   8  31
ATOM     31  C   UNL     1      -2.604  -1.143  -0.413  0.00  0.00    +0.006 A 
ATOM     32  C   UNL     1      -3.240  -1.946   0.538  0.00  0.00    +0.030 A 
ATOM     33  C   UNL     1      -3.558  -1.404   1.766  0.00  0.00    +0.111 A 
ATOM     34  N   UNL     1      -3.271  -0.147   2.047  0.00  0.00    -0.263 NA
ATOM     35  C   UNL     1      -2.671   0.644   1.178  0.00  0.00    +0.111 A 
ATOM     36  C   UNL     1      -2.313   0.181  -0.071  0.00  0.00    +0.030 A 
ENDBRANCH   8  31
TORSDOF 5
