REMARK  Name = CHEMBL254966
REMARK  8 active torsions:
REMARK  status: ('A' for Active; 'I' for Inactive)
REMARK    1  A    between atoms: C_3  and  C_18
REMARK    2  A    between atoms: C_5  and  N_7
REMARK    3  A    between atoms: C_8  and  C_10
REMARK    4  A    between atoms: C_10  and  C_11
REMARK    5  A    between atoms: C_19  and  C_27
REMARK    6  A    between atoms: C_22  and  C_24
REMARK    7  A    between atoms: N_33  and  C_34
REMARK    8  A    between atoms: C_38  and  C_40
REMARK                            x       y       z     vdW  Elec       q    Type
REMARK                         _______ _______ _______ _____ _____    ______ ____
ROOT
ATOM      1  C   UNL     1       3.396   2.297   0.231  0.00  0.00    +0.073 A 
ATOM      2  C   UNL     1       3.494   3.519  -0.413  0.00  0.00    +0.091 A 
ATOM      3  N   UNL     1       4.703   4.057  -0.030  0.00  0.00    -0.341 N 
ATOM      4  H   UNL     1       5.067   4.911  -0.311  0.00  0.00    +0.167 HD
ATOM      5  C   UNL     1       5.287   3.177   0.809  0.00  0.00    +0.088 A 
ATOM      6  N   UNL     1       4.510   2.140   0.966  0.00  0.00    -0.343 N 
ATOM      7  H   UNL     1       4.708   1.373   1.525  0.00  0.00    +0.167 HD
ENDROOT
BRANCH   2   8
ATOM      8  C   UNL     1       2.505   4.123  -1.325  0.00  0.00    +0.094 A 
ATOM      9  C   UNL     1       2.454   5.512  -1.501  0.00  0.00    +0.050 A 
ATOM     10  C   UNL     1       1.510   6.031  -2.366  0.00  0.00    +0.116 A 
ATOM     11  N   UNL     1       0.687   5.207  -2.998  0.00  0.00    -0.223 NA
ATOM     12  C   UNL     1       0.757   3.897  -2.814  0.00  0.00    +0.220 A 
ATOM     13  N   UNL     1       1.648   3.355  -2.000  0.00  0.00    -0.213 NA
ATOM     14  N   UNL     1      -0.123   3.072  -3.495  0.00  0.00    -0.284 N 
ATOM     15  H   UNL     1      -0.134   2.119  -3.314  0.00  0.00    +0.155 HD
BRANCH  14  16
ATOM     16  C   UNL     1      -0.996   3.613  -4.445  0.00  0.00    +0.034 A 
ATOM     17  C   UNL     1      -0.599   4.702  -5.213  0.00  0.00    +0.023 A 
ATOM     18  C   UNL     1      -1.457   5.240  -6.153  0.00  0.00    +0.003 A 
ATOM     19  C   UNL     1      -2.715   4.701  -6.335  0.00  0.00    +0.013 A 
ATOM     20  C   UNL     1      -3.123   3.608  -5.568  0.00  0.00    +0.038 A 
ATOM     21  C   UNL     1      -2.255   3.061  -4.624  0.00  0.00    +0.036 A 
BRANCH  20  22
ATOM     22  C   UNL     1      -4.470   3.029  -5.761  0.00  0.00    +0.242 C 
ATOM     23  O   UNL     1      -4.824   2.077  -5.093  0.00  0.00    -0.270 OA
ATOM     24  N   UNL     1      -5.305   3.556  -6.678  0.00  0.00    -0.325 N 
ATOM     25  H   UNL     1      -5.023   4.316  -7.211  0.00  0.00    +0.145 HD
ATOM     26  H   UNL     1      -6.189   3.176  -6.804  0.00  0.00    +0.145 HD
ENDBRANCH  20  22
ENDBRANCH  14  16
ENDBRANCH   2   8
BRANCH   1  29
ATOM     27  C   UNL     1      -0.098   0.911   0.117  0.00  0.00    +0.002 A 
ATOM     28  C   UNL     1       0.953   1.803   0.209  0.00  0.00    +0.010 A 
ATOM     29  C   UNL     1       2.267   1.343   0.133  0.00  0.00    +0.002 A 
ATOM     30  C   UNL     1       2.516  -0.018  -0.037  0.00  0.00    +0.033 A 
ATOM     31  C   UNL     1       1.455  -0.906  -0.129  0.00  0.00    +0.034 A 
ATOM     32  C   UNL     1       0.149  -0.438  -0.052  0.00  0.00    +0.023 A 
BRANCH  31  33
ATOM     33  N   UNL     1       1.700  -2.273  -0.300  0.00  0.00    -0.285 N 
ATOM     34  C   UNL     1       2.742  -2.683  -1.051  0.00  0.00    +0.222 C 
ATOM     35  O   UNL     1       3.517  -1.869  -1.507  0.00  0.00    -0.275 OA
ATOM     36  H   UNL     1       1.120  -2.926   0.122  0.00  0.00    +0.155 HD
BRANCH  34  37
ATOM     37  C   UNL     1       2.943  -4.151  -1.323  0.00  0.00    +0.131 C 
BRANCH  37  38
ATOM     38  C   UNL     1       4.169  -4.340  -2.179  0.00  0.00    -0.039 A 
ATOM     39  C   UNL     1       4.057  -4.331  -3.557  0.00  0.00    +0.005 A 
ATOM     40  C   UNL     1       5.181  -4.504  -4.343  0.00  0.00    +0.020 A 
ATOM     41  C   UNL     1       6.418  -4.686  -3.751  0.00  0.00    +0.041 A 
ATOM     42  C   UNL     1       6.529  -4.694  -2.372  0.00  0.00    +0.020 A 
ATOM     43  C   UNL     1       5.406  -4.516  -1.587  0.00  0.00    +0.005 A 
ATOM     44 CL   UNL     1       7.829  -4.903  -4.737  0.00  0.00    -0.084 Cl
ENDBRANCH  37  38
ENDBRANCH  34  37
ENDBRANCH  31  33
ENDBRANCH   1  29
BRANCH   5  45
ATOM     45  C   UNL     1       6.629   3.364   1.468  0.00  0.00    +0.053 C 
ATOM     46  C   UNL     1       7.035   4.789   1.851  0.00  0.00    +0.012 C 
ATOM     47  C   UNL     1       7.713   4.091   0.670  0.00  0.00    +0.012 C 
ENDBRANCH   5  45
TORSDOF 8
