REMARK  Name = CHEMBL505187
REMARK  9 active torsions:
REMARK  status: ('A' for Active; 'I' for Inactive)
REMARK    1  A    between atoms: C_1  and  C_2
REMARK    2  A    between atoms: C_2  and  N_3
REMARK    3  A    between atoms: C_5  and  C_32
REMARK    4  A    between atoms: C_6  and  C_8
REMARK    5  A    between atoms: C_12  and  N_14
REMARK    6  A    between atoms: N_17  and  C_18
REMARK    7  A    between atoms: C_21  and  O_24
REMARK    8  A    between atoms: O_24  and  C_25
REMARK    9  A    between atoms: C_25  and  C_26
REMARK                            x       y       z     vdW  Elec       q    Type
REMARK                         _______ _______ _______ _____ _____    ______ ____
ROOT
ATOM      1  C   UNL     1      -5.029  -0.844   1.129  0.00  0.00    +0.004 A 
ATOM      2  C   UNL     1      -6.116  -1.091   0.292  0.00  0.00    +0.010 A 
ATOM      3  C   UNL     1      -7.398  -1.082   0.804  0.00  0.00    +0.002 A 
ATOM      4  C   UNL     1      -7.609  -0.828   2.146  0.00  0.00    +0.023 A 
ATOM      5  C   UNL     1      -6.531  -0.580   2.987  0.00  0.00    +0.035 A 
ATOM      6  C   UNL     1      -5.240  -0.593   2.482  0.00  0.00    +0.033 A 
ENDROOT
BRANCH   5   7
ATOM      7  N   UNL     1      -6.748  -0.323   4.346  0.00  0.00    -0.269 N 
ATOM      8  C   UNL     1      -5.961   0.554   5.000  0.00  0.00    +0.308 C 
ATOM      9  O   UNL     1      -5.011   1.059   4.433  0.00  0.00    -0.252 OA
ATOM     10  N   UNL     1      -6.226   0.871   6.283  0.00  0.00    -0.269 N 
ATOM     11  H   UNL     1      -7.466  -0.775   4.816  0.00  0.00    +0.156 HD
ATOM     12  H   UNL     1      -6.937   0.413   6.759  0.00  0.00    +0.156 HD
BRANCH  10  13
ATOM     13  C   UNL     1      -5.475   1.862   6.930  0.00  0.00    +0.035 A 
ATOM     14  C   UNL     1      -5.188   1.743   8.283  0.00  0.00    +0.027 A 
ATOM     15  C   UNL     1      -4.448   2.720   8.919  0.00  0.00    +0.047 A 
ATOM     16  C   UNL     1      -3.991   3.819   8.207  0.00  0.00    +0.121 A 
ATOM     17  C   UNL     1      -4.277   3.938   6.855  0.00  0.00    +0.047 A 
ATOM     18  C   UNL     1      -5.012   2.959   6.216  0.00  0.00    +0.027 A 
BRANCH  16  19
ATOM     19  O   UNL     1      -3.263   4.780   8.835  0.00  0.00    -0.487 OA
BRANCH  19  20
ATOM     20  C   UNL     1      -2.824   5.885   8.040  0.00  0.00    +0.264 C 
BRANCH  20  21
ATOM     21  C   UNL     1      -2.038   6.841   8.900  0.00  0.00    -0.010 A 
ATOM     22  C   UNL     1      -2.686   7.866   9.563  0.00  0.00    +0.007 A 
ATOM     23  C   UNL     1      -1.964   8.744  10.351  0.00  0.00    +0.000 A 
ATOM     24  C   UNL     1      -0.596   8.595  10.476  0.00  0.00    +0.000 A 
ATOM     25  C   UNL     1       0.052   7.569   9.814  0.00  0.00    +0.000 A 
ATOM     26  C   UNL     1      -0.670   6.689   9.029  0.00  0.00    +0.007 A 
ENDBRANCH  20  21
ENDBRANCH  19  20
ENDBRANCH  16  19
ENDBRANCH  10  13
ENDBRANCH   5   7
BRANCH   1  30
ATOM     27  N   UNL     1      -1.491  -1.192   0.311  0.00  0.00    -0.271 N 
ATOM     28  C   UNL     1      -1.897  -0.503  -0.774  0.00  0.00    +0.117 A 
ATOM     29  C   UNL     1      -3.235  -0.272  -0.646  0.00  0.00    +0.028 A 
ATOM     30  C   UNL     1      -3.651  -0.853   0.580  0.00  0.00    +0.100 A 
ATOM     31  N   UNL     1      -2.598  -1.405   1.140  0.00  0.00    -0.171 NA
BRANCH  29  32
ATOM     32  C   UNL     1      -4.096   0.453  -1.608  0.00  0.00    -0.002 A 
ATOM     33  C   UNL     1      -4.343  -0.060  -2.883  0.00  0.00    +0.029 A 
ATOM     34  C   UNL     1      -5.152   0.649  -3.751  0.00  0.00    +0.114 A 
ATOM     35  N   UNL     1      -5.698   1.797  -3.408  0.00  0.00    -0.237 NA
ATOM     36  C   UNL     1      -5.503   2.338  -2.211  0.00  0.00    +0.139 A 
ATOM     37  C   UNL     1      -4.697   1.679  -1.266  0.00  0.00    +0.026 A 
ATOM     38  C   UNL     1      -4.692   2.520  -0.071  0.00  0.00    +0.029 A 
ATOM     39  C   UNL     1      -5.462   3.587  -0.343  0.00  0.00    +0.085 A 
ATOM     40  N   UNL     1      -5.947   3.497  -1.621  0.00  0.00    -0.346 N 
ATOM     41  H   UNL     1      -6.527   4.150  -2.043  0.00  0.00    +0.167 HD
ENDBRANCH  29  32
BRANCH  27  43
ATOM     42  C   UNL     1       0.331  -1.131   1.942  0.00  0.00    +0.029 C 
ATOM     43  C   UNL     1      -0.123  -1.646   0.574  0.00  0.00    +0.140 C 
ENDBRANCH  27  43
ENDBRANCH   1  30
TORSDOF 8
