REMARK  Name = CHEMBL562168
REMARK  12 active torsions:
REMARK  status: ('A' for Active; 'I' for Inactive)
REMARK    1  A    between atoms: C_1  and  C_2
REMARK    2  A    between atoms: C_2  and  N_3
REMARK    3  A    between atoms: N_3  and  C_4
REMARK    4  A    between atoms: N_3  and  C_6
REMARK    5  A    between atoms: C_4  and  C_5
REMARK    6  A    between atoms: C_6  and  C_7
REMARK    7  A    between atoms: C_7  and  N_8
REMARK    8  A    between atoms: C_9  and  C_11
REMARK    9  A    between atoms: C_19  and  C_20
REMARK   10  A    between atoms: C_24  and  N_26
REMARK   11  A    between atoms: N_29  and  C_30
REMARK   12  A    between atoms: C_34  and  C_36
REMARK                            x       y       z     vdW  Elec       q    Type
REMARK                         _______ _______ _______ _____ _____    ______ ____
ROOT
ATOM      1  C   UNL     1      -4.146 -12.470   1.220  0.00  0.00    +0.002 A 
ATOM      2  C   UNL     1      -3.725 -13.095   2.396  0.00  0.00    +0.010 A 
ATOM      3  C   UNL     1      -3.197 -14.369   2.349  0.00  0.00    +0.002 A 
ATOM      4  C   UNL     1      -3.082 -15.031   1.141  0.00  0.00    +0.023 A 
ATOM      5  C   UNL     1      -3.497 -14.417  -0.035  0.00  0.00    +0.035 A 
ATOM      6  C   UNL     1      -4.034 -13.140   0.001  0.00  0.00    +0.033 A 
ENDROOT
BRANCH   1  15
ATOM      7  C   UNL     1      -3.457  -7.916   2.104  0.00  0.00    +0.100 A 
ATOM      8  C   UNL     1      -2.308  -8.700   2.309  0.00  0.00    +0.150 A 
ATOM      9  N   UNL     1      -2.596  -9.946   2.039  0.00  0.00    -0.172 NA
ATOM     10  N   UNL     1      -3.936 -10.041   1.647  0.00  0.00    -0.213 N 
ATOM     11  C   UNL     1      -4.481  -8.789   1.690  0.00  0.00    +0.168 A 
ATOM     12  N   UNL     1      -5.759  -8.587   1.367  0.00  0.00    -0.235 NA
ATOM     13  C   UNL     1      -6.538  -9.582   1.002  0.00  0.00    +0.115 A 
ATOM     14  C   UNL     1      -6.036 -10.883   0.944  0.00  0.00    +0.048 A 
ATOM     15  C   UNL     1      -4.712 -11.106   1.267  0.00  0.00    +0.076 A 
BRANCH   7  17
ATOM     16  N   UNL     1      -2.498  -5.754   2.696  0.00  0.00    -0.313 N 
ATOM     17  C   UNL     1      -3.569  -6.466   2.292  0.00  0.00    +0.249 C 
ATOM     18  O   UNL     1      -4.629  -5.906   2.084  0.00  0.00    -0.270 OA
ATOM     19  H   UNL     1      -1.653  -6.201   2.861  0.00  0.00    +0.149 HD
BRANCH  16  20
ATOM     20  C   UNL     1      -2.610  -4.306   2.884  0.00  0.00    +0.086 C 
BRANCH  20  21
ATOM     21  C   UNL     1      -1.262  -3.745   3.341  0.00  0.00    -0.060 C 
BRANCH  21  22
ATOM     22  N   UNL     1      -1.339  -2.280   3.409  0.00  0.00    +0.380 N 
ATOM     23  H   UNL     1      -1.632  -1.916   2.514  0.00  0.00    -0.082 HD
BRANCH  22  25
ATOM     24  C   UNL     1      -2.483  -0.368   4.425  0.00  0.00    -0.017 C 
ATOM     25  C   UNL     1      -2.310  -1.888   4.439  0.00  0.00    -0.082 C 
ENDBRANCH  22  25
BRANCH  22  26
ATOM     26  C   UNL     1      -0.017  -1.736   3.750  0.00  0.00    -0.082 C 
ATOM     27  C   UNL     1       0.968  -2.044   2.620  0.00  0.00    -0.017 C 
ENDBRANCH  22  26
ENDBRANCH  21  22
ENDBRANCH  20  21
ENDBRANCH  16  20
ENDBRANCH   7  17
ENDBRANCH   1  15
BRANCH   5  28
ATOM     28  N   UNL     1      -3.377 -15.091  -1.256  0.00  0.00    -0.269 N 
ATOM     29  C   UNL     1      -3.096 -14.403  -2.381  0.00  0.00    +0.308 C 
ATOM     30  O   UNL     1      -2.856 -13.213  -2.321  0.00  0.00    -0.252 OA
ATOM     31  N   UNL     1      -3.082 -15.035  -3.571  0.00  0.00    -0.269 N 
ATOM     32  H   UNL     1      -3.495 -16.053  -1.293  0.00  0.00    +0.156 HD
ATOM     33  H   UNL     1      -3.345 -15.967  -3.629  0.00  0.00    +0.156 HD
BRANCH  31  34
ATOM     34  C   UNL     1      -2.687 -14.347  -4.724  0.00  0.00    +0.035 A 
ATOM     35  C   UNL     1      -1.695 -13.378  -4.651  0.00  0.00    +0.025 A 
ATOM     36  C   UNL     1      -1.307 -12.700  -5.790  0.00  0.00    +0.022 A 
ATOM     37  C   UNL     1      -1.907 -12.986  -7.004  0.00  0.00    +0.053 A 
ATOM     38  C   UNL     1      -2.895 -13.951  -7.080  0.00  0.00    +0.075 A 
ATOM     39  C   UNL     1      -3.282 -14.636  -5.945  0.00  0.00    +0.037 A 
ATOM     40 CL   UNL     1      -1.418 -12.131  -8.434  0.00  0.00    -0.083 Cl
BRANCH  38  41
ATOM     41  C   UNL     1      -3.546 -14.259  -8.404  0.00  0.00    +0.419 C 
ATOM     42  F   UNL     1      -4.506 -15.261  -8.229  0.00  0.00    -0.166 F 
ATOM     43  F   UNL     1      -4.161 -13.105  -8.902  0.00  0.00    -0.166 F 
ATOM     44  F   UNL     1      -2.574 -14.698  -9.310  0.00  0.00    -0.166 F 
ENDBRANCH  38  41
ENDBRANCH  31  34
ENDBRANCH   5  28
TORSDOF 10
