REMARK  Name = CHEMBL583106
REMARK  3 active torsions:
REMARK  status: ('A' for Active; 'I' for Inactive)
REMARK    1  A    between atoms: C_1  and  C_2
REMARK    2  A    between atoms: C_9  and  C_10
REMARK    3  A    between atoms: C_13  and  O_17
REMARK                            x       y       z     vdW  Elec       q    Type
REMARK                         _______ _______ _______ _____ _____    ______ ____
ROOT
ATOM      1  C   UNL     1       1.054   1.368  -0.016  0.00  0.00    +0.044 C 
ATOM      2  C   UNL     1       0.675  -0.091  -0.015  0.00  0.00    -0.050 A 
ATOM      3  C   UNL     1       0.466  -0.752  -1.213  0.00  0.00    +0.005 A 
ATOM      4  C   UNL     1       0.120  -2.088  -1.228  0.00  0.00    +0.024 A 
ATOM      5  C   UNL     1      -0.023  -2.785  -0.034  0.00  0.00    +0.042 A 
ATOM      6  C   UNL     1       0.190  -2.112   1.177  0.00  0.00    +0.009 A 
ATOM      7  C   UNL     1       0.543  -0.767   1.181  0.00  0.00    +0.014 A 
ATOM      8  C   UNL     1      -0.033  -3.106   2.252  0.00  0.00    +0.046 C 
ATOM      9  C   UNL     1       0.060  -2.908   3.599  0.00  0.00    +0.021 C 
ATOM     10  C   UNL     1      -0.378  -4.355   1.551  0.00  0.00    +0.249 C 
ATOM     11  O   UNL     1      -0.637  -5.422   2.076  0.00  0.00    -0.270 OA
ATOM     12  N   UNL     1      -0.357  -4.108   0.230  0.00  0.00    -0.281 N 
ATOM     13  H   UNL     1      -0.550  -4.770  -0.452  0.00  0.00    +0.155 HD
ENDROOT
BRANCH   9  14
ATOM     14  C   UNL     1      -0.029  -4.048   4.515  0.00  0.00    -0.022 A 
ATOM     15  C   UNL     1       0.589  -5.263   4.189  0.00  0.00    +0.027 A 
ATOM     16  C   UNL     1       0.502  -6.331   5.054  0.00  0.00    +0.061 A 
ATOM     17  C   UNL     1      -0.197  -6.206   6.250  0.00  0.00    +0.145 A 
ATOM     18  C   UNL     1      -0.813  -5.003   6.579  0.00  0.00    +0.061 A 
ATOM     19  C   UNL     1      -0.728  -3.926   5.724  0.00  0.00    +0.027 A 
ATOM     20 BR   UNL     1      -1.762  -4.842   8.206  0.00  0.00    -0.046 Br
ATOM     21 BR   UNL     1       1.334  -7.971   4.615  0.00  0.00    -0.046 Br
BRANCH  17  22
ATOM     22  O   UNL     1      -0.280  -7.262   7.099  0.00  0.00    -0.505 OA
ATOM     23  H   UNL     1       0.435  -7.301   7.749  0.00  0.00    +0.292 HD
ENDBRANCH  17  22
ENDBRANCH   9  14
TORSDOF 2
