REMARK  Name = CHEMBL373011
REMARK  4 active torsions:
REMARK  status: ('A' for Active; 'I' for Inactive)
REMARK    1  A    between atoms: C_4  and  C_7
REMARK    2  A    between atoms: C_10  and  C_21
REMARK    3  A    between atoms: C_11  and  C_13
REMARK    4  A    between atoms: C_17  and  O_19
REMARK                            x       y       z     vdW  Elec       q    Type
REMARK                         _______ _______ _______ _____ _____    ______ ____
ROOT
ATOM      1  C   UNL     1       3.696  -0.685  -0.037  0.00  0.00    +0.139 A 
ATOM      2  N   UNL     1       4.880  -0.119  -0.045  0.00  0.00    -0.227 NA
ATOM      3  H   UNL     1       3.134  -2.700  -0.033  0.00  0.00    +0.167 HD
ATOM      4  C   UNL     1       5.831  -1.069  -0.059  0.00  0.00    +0.097 A 
ATOM      5  C   UNL     1       5.196  -2.300  -0.060  0.00  0.00    +0.074 A 
ATOM      6  N   UNL     1       3.847  -2.042  -0.041  0.00  0.00    -0.337 N 
ENDROOT
BRANCH   5   7
ATOM      7  C   UNL     1       5.842  -3.628  -0.073  0.00  0.00    +0.004 A 
ATOM      8  C   UNL     1       6.913  -3.878  -0.934  0.00  0.00    +0.011 A 
ATOM      9  C   UNL     1       7.515  -5.119  -0.944  0.00  0.00    +0.024 A 
ATOM     10  C   UNL     1       7.061  -6.119  -0.101  0.00  0.00    +0.082 A 
ATOM     11  C   UNL     1       5.996  -5.879   0.759  0.00  0.00    +0.136 A 
ATOM     12  C   UNL     1       5.389  -4.636   0.780  0.00  0.00    +0.057 A 
ATOM     13 CL   UNL     1       7.823  -7.678  -0.120  0.00  0.00    -0.080 Cl
BRANCH  11  14
ATOM     14  O   UNL     1       5.554  -6.865   1.584  0.00  0.00    -0.505 OA
ATOM     15  H   UNL     1       5.992  -6.881   2.447  0.00  0.00    +0.292 HD
ENDBRANCH  11  14
ENDBRANCH   5   7
BRANCH   1  19
ATOM     16  C   UNL     1      -0.017   1.379   0.010  0.00  0.00    +0.000 A 
ATOM     17  C   UNL     1       1.168   2.094   0.002  0.00  0.00    +0.001 A 
ATOM     18  C   UNL     1       2.377   1.429  -0.013  0.00  0.00    +0.011 A 
ATOM     19  C   UNL     1       2.403   0.034  -0.021  0.00  0.00    +0.017 A 
ATOM     20  C   UNL     1       1.204  -0.681  -0.013  0.00  0.00    +0.011 A 
ATOM     21  C   UNL     1       0.002  -0.004   0.002  0.00  0.00    +0.001 A 
ENDBRANCH   1  19
BRANCH   4  22
ATOM     22  C   UNL     1       7.293  -0.840  -0.073  0.00  0.00    +0.005 A 
ATOM     23  C   UNL     1       8.163  -1.707   0.598  0.00  0.00    +0.030 A 
ATOM     24  C   UNL     1       9.518  -1.456   0.560  0.00  0.00    +0.111 A 
ATOM     25  N   UNL     1       9.997  -0.417  -0.097  0.00  0.00    -0.263 NA
ATOM     26  C   UNL     1       9.212   0.425  -0.743  0.00  0.00    +0.111 A 
ATOM     27  C   UNL     1       7.845   0.246  -0.761  0.00  0.00    +0.030 A 
ENDBRANCH   4  22
TORSDOF 4
