REMARK  Name = CHEMBL430413
REMARK  7 active torsions:
REMARK  status: ('A' for Active; 'I' for Inactive)
REMARK    1  A    between atoms: C_1  and  N_2
REMARK    2  A    between atoms: C_7  and  C_9
REMARK    3  A    between atoms: C_10  and  C_18
REMARK    4  A    between atoms: C_12  and  C_15
REMARK    5  A    between atoms: C_22  and  N_24
REMARK    6  A    between atoms: N_27  and  C_28
REMARK    7  A    between atoms: C_32  and  C_34
REMARK                            x       y       z     vdW  Elec       q    Type
REMARK                         _______ _______ _______ _____ _____    ______ ____
ROOT
ATOM      1  C   UNL     1       0.163  -4.362  -0.286  0.00  0.00    +0.004 A 
ATOM      2  C   UNL     1       0.041  -3.307  -1.191  0.00  0.00    +0.010 A 
ATOM      3  C   UNL     1       1.088  -2.998  -2.035  0.00  0.00    +0.002 A 
ATOM      4  C   UNL     1       2.260  -3.730  -1.987  0.00  0.00    +0.023 A 
ATOM      5  C   UNL     1       2.390  -4.782  -1.089  0.00  0.00    +0.035 A 
ATOM      6  C   UNL     1       1.346  -5.096  -0.233  0.00  0.00    +0.033 A 
ENDROOT
BRANCH   1   8
ATOM      7  C   UNL     1      -1.843  -3.798   1.197  0.00  0.00    +0.093 A 
ATOM      8  C   UNL     1      -0.960  -4.695   0.622  0.00  0.00    +0.098 A 
ATOM      9  N   UNL     1      -1.309  -5.925   1.039  0.00  0.00    -0.232 NA
ATOM     10  C   UNL     1      -2.344  -5.841   1.829  0.00  0.00    +0.111 A 
ATOM     11  N   UNL     1      -2.708  -4.549   1.962  0.00  0.00    -0.340 N 
ATOM     12  H   UNL     1      -3.443  -4.212   2.497  0.00  0.00    +0.167 HD
BRANCH   7  19
ATOM     13  C   UNL     1       0.442   1.736   0.041  0.00  0.00    +0.128 C 
ATOM     14  N   UNL     1       0.428   0.281   0.206  0.00  0.00    -0.317 N 
ATOM     15  C   UNL     1      -0.746  -0.366   0.549  0.00  0.00    +0.215 A 
ATOM     16  N   UNL     1      -1.850   0.347   0.718  0.00  0.00    -0.223 NA
ATOM     17  C   UNL     1      -2.995  -0.233   1.046  0.00  0.00    +0.116 A 
ATOM     18  C   UNL     1      -3.035  -1.604   1.214  0.00  0.00    +0.050 A 
ATOM     19  C   UNL     1      -1.854  -2.333   1.029  0.00  0.00    +0.094 A 
ATOM     20  N   UNL     1      -0.739  -1.681   0.694  0.00  0.00    -0.213 NA
ATOM     21  H   UNL     1       1.243  -0.230   0.076  0.00  0.00    +0.149 HD
ENDBRANCH   7  19
BRANCH  10  22
ATOM     22  C   UNL     1      -3.025  -7.009   2.494  0.00  0.00    +0.055 C 
ATOM     23  C   UNL     1      -4.427  -6.779   3.062  0.00  0.00    +0.012 C 
ATOM     24  C   UNL     1      -4.244  -7.610   1.791  0.00  0.00    +0.012 C 
ENDBRANCH  10  22
ENDBRANCH   1   8
BRANCH   5  25
ATOM     25  N   UNL     1       3.578  -5.521  -1.045  0.00  0.00    -0.269 N 
ATOM     26  C   UNL     1       3.543  -6.835  -0.747  0.00  0.00    +0.308 C 
ATOM     27  O   UNL     1       2.475  -7.399  -0.609  0.00  0.00    -0.252 OA
ATOM     28  N   UNL     1       4.692  -7.524  -0.601  0.00  0.00    -0.269 N 
ATOM     29  H   UNL     1       4.426  -5.088  -1.228  0.00  0.00    +0.156 HD
ATOM     30  H   UNL     1       5.543  -7.060  -0.636  0.00  0.00    +0.156 HD
BRANCH  28  31
ATOM     31  C   UNL     1       4.658  -8.909  -0.399  0.00  0.00    +0.035 A 
ATOM     32  C   UNL     1       3.661  -9.673  -0.991  0.00  0.00    +0.025 A 
ATOM     33  C   UNL     1       3.629 -11.039  -0.790  0.00  0.00    +0.022 A 
ATOM     34  C   UNL     1       4.589 -11.646   0.000  0.00  0.00    +0.053 A 
ATOM     35  C   UNL     1       5.583 -10.887   0.591  0.00  0.00    +0.075 A 
ATOM     36  C   UNL     1       5.623  -9.521   0.389  0.00  0.00    +0.037 A 
ATOM     37 CL   UNL     1       4.546 -13.364   0.252  0.00  0.00    -0.083 Cl
BRANCH  35  38
ATOM     38  C   UNL     1       6.627 -11.551   1.452  0.00  0.00    +0.419 C 
ATOM     39  F   UNL     1       7.517 -10.586   1.934  0.00  0.00    -0.166 F 
ATOM     40  F   UNL     1       6.005 -12.191   2.529  0.00  0.00    -0.166 F 
ATOM     41  F   UNL     1       7.328 -12.493   0.691  0.00  0.00    -0.166 F 
ENDBRANCH  35  38
ENDBRANCH  28  31
ENDBRANCH   5  25
TORSDOF 6
