REMARK  Name = CHEMBL496478
REMARK  4 active torsions:
REMARK  status: ('A' for Active; 'I' for Inactive)
REMARK    1  A    between atoms: C_1  and  N_2
REMARK    2  A    between atoms: C_4  and  C_12
REMARK    3  A    between atoms: C_5  and  C_7
REMARK    4  A    between atoms: N_21  and  O_22
REMARK                            x       y       z     vdW  Elec       q    Type
REMARK                         _______ _______ _______ _____ _____    ______ ____
ROOT
ATOM      1  C   UNL     1       0.040  -3.272  -1.589  0.00  0.00    -0.014 A 
ATOM      2  C   UNL     1       0.976  -4.286  -1.382  0.00  0.00    +0.009 A 
ATOM      3  C   UNL     1       0.987  -5.389  -2.201  0.00  0.00    +0.010 A 
ATOM      4  C   UNL     1       0.058  -5.503  -3.247  0.00  0.00    +0.003 A 
ATOM      5  C   UNL     1      -0.876  -4.489  -3.450  0.00  0.00    -0.037 A 
ATOM      6  C   UNL     1      -0.888  -3.384  -2.624  0.00  0.00    +0.013 A 
ATOM      7  C   UNL     1      -1.758  -4.840  -4.625  0.00  0.00    +0.042 C 
ATOM      8  C   UNL     1      -1.270  -6.200  -5.141  0.00  0.00    +0.064 C 
ATOM      9  C   UNL     1      -0.120  -6.580  -4.240  0.00  0.00    +0.088 C 
ATOM     10  N   UNL     1       0.586  -7.662  -4.323  0.00  0.00    -0.092 NA
ENDROOT
BRANCH   1  14
ATOM     11  C   UNL     1      -0.018   1.461   0.010  0.00  0.00    +0.172 C 
ATOM     12  N   UNL     1       0.002  -0.004   0.002  0.00  0.00    -0.273 N 
ATOM     13  C   UNL     1       0.007  -0.776  -1.102  0.00  0.00    +0.117 A 
ATOM     14  C   UNL     1       0.028  -2.081  -0.707  0.00  0.00    +0.031 A 
ATOM     15  C   UNL     1       0.035  -2.078   0.757  0.00  0.00    +0.137 A 
ATOM     16  N   UNL     1       0.024  -0.818   1.139  0.00  0.00    -0.168 NA
BRANCH  15  17
ATOM     17  C   UNL     1       0.055  -3.264   1.639  0.00  0.00    +0.175 A 
ATOM     18  C   UNL     1       0.683  -3.370   2.838  0.00  0.00    +0.162 A 
ATOM     19  N   UNL     1       0.453  -4.606   3.307  0.00  0.00    -0.224 NA
ATOM     20  C   UNL     1      -0.285  -5.252   2.448  0.00  0.00    +0.308 A 
ATOM     21  O   UNL     1      -0.552  -4.449   1.409  0.00  0.00    -0.441 OA
ENDBRANCH  15  17
ENDBRANCH   1  14
BRANCH  10  22
ATOM     22  O   UNL     1       0.303  -8.616  -5.331  0.00  0.00    -0.409 OA
ATOM     23  H   UNL     1       0.883  -9.390  -5.314  0.00  0.00    +0.328 HD
ENDBRANCH  10  22
TORSDOF 3
