REMARK  Name = CHEMBL515491
REMARK  7 active torsions:
REMARK  status: ('A' for Active; 'I' for Inactive)
REMARK    1  A    between atoms: C_6  and  C_7
REMARK    2  A    between atoms: C_8  and  C_24
REMARK    3  A    between atoms: C_11  and  C_13
REMARK    4  A    between atoms: N_15  and  C_16
REMARK    5  A    between atoms: C_16  and  C_17
REMARK    6  A    between atoms: C_17  and  N_18
REMARK    7  A    between atoms: N_33  and  O_34
REMARK                            x       y       z     vdW  Elec       q    Type
REMARK                         _______ _______ _______ _____ _____    ______ ____
ROOT
ATOM      1  C   UNL     1      -1.246  -0.795  -0.037  0.00  0.00    +0.074 A 
ATOM      2  C   UNL     1      -2.425  -0.452  -0.693  0.00  0.00    +0.097 A 
ATOM      3  N   UNL     1      -3.352  -1.355  -0.363  0.00  0.00    -0.223 NA
ATOM      4  H   UNL     1      -0.895  -2.417   1.240  0.00  0.00    +0.168 HD
ATOM      5  C   UNL     1      -2.830  -2.241   0.456  0.00  0.00    +0.195 A 
ATOM      6  N   UNL     1      -1.517  -1.928   0.678  0.00  0.00    -0.334 N 
ENDROOT
BRANCH   1  12
ATOM      7  C   UNL     1       1.228  -0.791  -0.321  0.00  0.00    +0.010 A 
ATOM      8  C   UNL     1       2.418  -0.128  -0.384  0.00  0.00    +0.011 A 
ATOM      9  C   UNL     1       2.461   1.267  -0.233  0.00  0.00    +0.003 A 
ATOM     10  C   UNL     1       1.278   1.974  -0.017  0.00  0.00    -0.037 A 
ATOM     11  C   UNL     1       0.083   1.308   0.046  0.00  0.00    +0.014 A 
ATOM     12  C   UNL     1       0.043  -0.081  -0.105  0.00  0.00    +0.001 A 
ATOM     13  C   UNL     1       1.584   3.447   0.113  0.00  0.00    +0.042 C 
ATOM     14  C   UNL     1       3.103   3.589  -0.047  0.00  0.00    +0.064 C 
ATOM     15  C   UNL     1       3.616   2.186  -0.263  0.00  0.00    +0.088 C 
ATOM     16  N   UNL     1       4.852   1.847  -0.444  0.00  0.00    -0.092 NA
BRANCH  16  17
ATOM     17  O   UNL     1       5.864   2.838  -0.450  0.00  0.00    -0.409 OA
ATOM     18  H   UNL     1       6.755   2.490  -0.591  0.00  0.00    +0.328 HD
ENDBRANCH  16  17
ENDBRANCH   1  12
BRANCH   2  19
ATOM     19  C   UNL     1      -2.618   0.708  -1.595  0.00  0.00    +0.005 A 
ATOM     20  C   UNL     1      -1.644   1.054  -2.538  0.00  0.00    +0.030 A 
ATOM     21  C   UNL     1      -1.864   2.142  -3.358  0.00  0.00    +0.111 A 
ATOM     22  N   UNL     1      -2.973   2.850  -3.260  0.00  0.00    -0.263 NA
ATOM     23  C   UNL     1      -3.916   2.557  -2.385  0.00  0.00    +0.111 A 
ATOM     24  C   UNL     1      -3.780   1.483  -1.531  0.00  0.00    +0.030 A 
ENDBRANCH   2  19
BRANCH   5  25
ATOM     25  C   UNL     1      -3.544  -3.391   1.038  0.00  0.00    +0.279 C 
ATOM     26  O   UNL     1      -2.963  -4.152   1.789  0.00  0.00    -0.267 OA
ATOM     27  N   UNL     1      -4.842  -3.600   0.740  0.00  0.00    -0.308 N 
ATOM     28  H   UNL     1      -5.306  -2.994   0.141  0.00  0.00    +0.149 HD
BRANCH  27  29
ATOM     29  C   UNL     1      -5.552  -4.744   1.319  0.00  0.00    +0.120 C 
BRANCH  29  30
ATOM     30  C   UNL     1      -6.999  -4.750   0.822  0.00  0.00    +0.103 C 
BRANCH  30  31
ATOM     31  N   UNL     1      -7.711  -5.897   1.402  0.00  0.00    -0.297 NA
ATOM     32  C   UNL     1      -7.168  -7.165   0.895  0.00  0.00    +0.112 C 
ATOM     33  C   UNL     1      -7.896  -8.331   1.569  0.00  0.00    +0.175 C 
ATOM     34  O   UNL     1      -9.302  -8.210   1.332  0.00  0.00    -0.377 OA
ATOM     35  C   UNL     1      -9.863  -6.986   1.813  0.00  0.00    +0.175 C 
ATOM     36  C   UNL     1      -9.155  -5.807   1.142  0.00  0.00    +0.112 C 
ENDBRANCH  30  31
ENDBRANCH  29  30
ENDBRANCH  27  29
ENDBRANCH   5  25
TORSDOF 7
