REMARK  Name = CHEMBL571112
REMARK  6 active torsions:
REMARK  status: ('A' for Active; 'I' for Inactive)
REMARK    1  A    between atoms: C_1  and  N_2
REMARK    2  A    between atoms: C_9  and  C_32
REMARK    3  A    between atoms: C_10  and  C_26
REMARK    4  A    between atoms: C_16  and  S_17
REMARK    5  A    between atoms: S_17  and  C_20
REMARK    6  A    between atoms: C_36  and  O_38
REMARK                            x       y       z     vdW  Elec       q    Type
REMARK                         _______ _______ _______ _____ _____    ______ ____
ROOT
ATOM      1  C   UNL     1      -0.018   1.465   0.010  0.00  0.00    +0.106 C 
ATOM      2  N   UNL     1       0.002  -0.004   0.002  0.00  0.00    -0.292 NA
ATOM      3  C   UNL     1      -1.369  -0.556   0.166  0.00  0.00    +0.086 C 
ATOM      4  C   UNL     1      -2.084   0.264   1.238  0.00  0.00    +0.059 C 
ATOM      5  C   UNL     1      -1.189   0.500   2.426  0.00  0.00    -0.005 A 
ATOM      6  C   UNL     1      -1.729   1.101   3.576  0.00  0.00    +0.118 A 
ATOM      7  N   UNL     1      -0.998   1.344   4.646  0.00  0.00    -0.235 NA
ATOM      8  C   UNL     1       0.297   1.005   4.619  0.00  0.00    +0.164 A 
ATOM      9  C   UNL     1       1.297   1.137   5.570  0.00  0.00    +0.054 A 
ATOM     10  C   UNL     1       2.480   0.611   5.004  0.00  0.00    +0.103 A 
ATOM     11  N   UNL     1       2.210   0.184   3.781  0.00  0.00    -0.164 NA
ATOM     12  N   UNL     1       0.869   0.410   3.508  0.00  0.00    -0.216 N 
ATOM     13  C   UNL     1       0.119   0.146   2.402  0.00  0.00    +0.067 A 
ATOM     14  C   UNL     1       0.719  -0.535   1.195  0.00  0.00    +0.108 C 
ATOM     15  C   UNL     1       0.259  -2.016   1.267  0.00  0.00    +0.053 C 
ATOM     16  C   UNL     1      -1.157  -2.002   0.652  0.00  0.00    +0.155 C 
ENDROOT
BRANCH   9  17
ATOM     17  C   UNL     1       1.153   1.720   6.923  0.00  0.00    -0.009 A 
ATOM     18  C   UNL     1       0.834   3.070   7.072  0.00  0.00    +0.010 A 
ATOM     19  C   UNL     1       0.700   3.611   8.335  0.00  0.00    +0.024 A 
ATOM     20  C   UNL     1       0.881   2.818   9.454  0.00  0.00    +0.082 A 
ATOM     21  C   UNL     1       1.199   1.473   9.314  0.00  0.00    +0.136 A 
ATOM     22  C   UNL     1       1.330   0.920   8.051  0.00  0.00    +0.055 A 
ATOM     23 CL   UNL     1       0.711   3.506  11.039  0.00  0.00    -0.080 Cl
BRANCH  21  24
ATOM     24  O   UNL     1       1.377   0.698  10.416  0.00  0.00    -0.505 OA
ATOM     25  H   UNL     1       0.569   0.271  10.731  0.00  0.00    +0.292 HD
ENDBRANCH  21  24
ENDBRANCH   9  17
BRANCH  10  26
ATOM     26  C   UNL     1       3.803   0.548   5.670  0.00  0.00    +0.006 A 
ATOM     27  C   UNL     1       4.215   1.556   6.547  0.00  0.00    +0.030 A 
ATOM     28  C   UNL     1       5.454   1.458   7.145  0.00  0.00    +0.111 A 
ATOM     29  N   UNL     1       6.245   0.431   6.899  0.00  0.00    -0.263 NA
ATOM     30  C   UNL     1       5.895  -0.541   6.079  0.00  0.00    +0.111 A 
ATOM     31  C   UNL     1       4.671  -0.524   5.443  0.00  0.00    +0.030 A 
ENDBRANCH  10  26
BRANCH  16  32
ATOM     32  S   UNL     1      -1.248  -3.156  -0.744  0.00  0.00    +0.001 S 
ATOM     33  O   UNL     1      -2.572  -3.200  -1.258  0.00  0.00    -0.169 OA
ATOM     34  O   UNL     1      -0.140  -2.963  -1.612  0.00  0.00    -0.169 OA
BRANCH  32  35
ATOM     35  C   UNL     1      -0.989  -4.748  -0.033  0.00  0.00    +0.089 A 
ATOM     36  C   UNL     1       0.292  -5.255   0.079  0.00  0.00    +0.027 A 
ATOM     37  C   UNL     1       0.495  -6.503   0.636  0.00  0.00    +0.002 A 
ATOM     38  C   UNL     1      -0.583  -7.245   1.082  0.00  0.00    +0.000 A 
ATOM     39  C   UNL     1      -1.864  -6.737   0.971  0.00  0.00    +0.002 A 
ATOM     40  C   UNL     1      -2.067  -5.487   0.417  0.00  0.00    +0.027 A 
ENDBRANCH  32  35
ENDBRANCH  16  32
TORSDOF 5
