REMARK  Name = CHEMBL585144
REMARK  6 active torsions:
REMARK  status: ('A' for Active; 'I' for Inactive)
REMARK    1  A    between atoms: C_1  and  C_2
REMARK    2  A    between atoms: C_2  and  O_3
REMARK    3  A    between atoms: O_3  and  C_4
REMARK    4  A    between atoms: C_12  and  C_14
REMARK    5  A    between atoms: C_21  and  C_34
REMARK    6  A    between atoms: C_22  and  C_23
REMARK                            x       y       z     vdW  Elec       q    Type
REMARK                         _______ _______ _______ _____ _____    ______ ____
ROOT
ATOM      1  C   UNL     1       3.642  -3.618  -4.957  0.00  0.00    +0.050 A 
ATOM      2  C   UNL     1       4.656  -3.992  -5.775  0.00  0.00    +0.043 A 
ATOM      3  C   UNL     1       4.369  -4.402  -7.084  0.00  0.00    +0.115 A 
ATOM      4  N   UNL     1       3.128  -4.424  -7.513  0.00  0.00    -0.236 NA
ATOM      5  C   UNL     1       2.120  -4.057  -6.715  0.00  0.00    +0.164 A 
ATOM      6  N   UNL     1       2.360  -3.654  -5.427  0.00  0.00    -0.217 N 
ATOM      7  N   UNL     1       1.132  -3.341  -4.833  0.00  0.00    -0.164 NA
ATOM      8  C   UNL     1       0.164  -3.542  -5.706  0.00  0.00    +0.103 A 
ATOM      9  C   UNL     1       0.736  -3.986  -6.915  0.00  0.00    +0.055 A 
ENDROOT
BRANCH   9  10
ATOM     10  C   UNL     1       0.010  -4.329  -8.156  0.00  0.00    -0.001 A 
ATOM     11  C   UNL     1      -0.452  -5.623  -8.361  0.00  0.00    +0.011 A 
ATOM     12  C   UNL     1      -1.133  -5.947  -9.524  0.00  0.00    +0.023 A 
ATOM     13  C   UNL     1      -1.364  -4.995 -10.494  0.00  0.00    +0.066 A 
ATOM     14  C   UNL     1      -0.912  -3.689 -10.316  0.00  0.00    +0.085 A 
ATOM     15  C   UNL     1      -0.225  -3.343  -9.139  0.00  0.00    +0.029 A 
ATOM     16  C   UNL     1       0.097  -1.971  -9.238  0.00  0.00    +0.143 A 
ATOM     17  N   UNL     1      -0.358  -1.516 -10.370  0.00  0.00    -0.181 NA
ATOM     18  N   UNL     1      -0.984  -2.550 -11.077  0.00  0.00    -0.276 N 
ATOM     19  H   UNL     1      -1.405  -2.472 -11.947  0.00  0.00    +0.189 HD
ATOM     20 CL   UNL     1      -2.220  -5.425 -11.943  0.00  0.00    -0.081 Cl
ENDBRANCH   9  10
BRANCH   1  29
ATOM     21  C   UNL     1       4.457   0.826  -2.898  0.00  0.00    +0.403 C 
ATOM     22  O   UNL     1       3.533   1.437  -2.401  0.00  0.00    -0.226 OA
ATOM     23  N   UNL     1       4.219  -0.286  -3.621  0.00  0.00    -0.261 N 
ATOM     24  C   UNL     1       5.200  -1.169  -4.298  0.00  0.00    +0.080 C 
ATOM     25  C   UNL     1       4.543  -1.495  -5.659  0.00  0.00    +0.024 C 
ATOM     26  C   UNL     1       3.028  -1.329  -5.414  0.00  0.00    +0.024 C 
ATOM     27  C   UNL     1       2.913  -0.922  -3.923  0.00  0.00    +0.080 C 
ATOM     28  C   UNL     1       2.827  -2.208  -3.085  0.00  0.00    +0.032 C 
ATOM     29  C   UNL     1       3.924  -3.172  -3.545  0.00  0.00    +0.041 C 
ATOM     30  C   UNL     1       5.277  -2.472  -3.488  0.00  0.00    +0.032 C 
BRANCH  21  31
ATOM     31  O   UNL     1       5.721   1.260  -2.728  0.00  0.00    -0.451 OA
BRANCH  31  33
ATOM     32  C   UNL     1       7.391   2.780  -1.868  0.00  0.00    +0.048 C 
ATOM     33  C   UNL     1       5.900   2.445  -1.950  0.00  0.00    +0.230 C 
ENDBRANCH  31  33
ENDBRANCH  21  31
ENDBRANCH   1  29
BRANCH   8  34
ATOM     34  C   UNL     1      -1.282  -3.324  -5.461  0.00  0.00    +0.006 A 
ATOM     35  C   UNL     1      -2.122  -2.863  -6.479  0.00  0.00    +0.030 A 
ATOM     36  C   UNL     1      -3.462  -2.675  -6.208  0.00  0.00    +0.111 A 
ATOM     37  N   UNL     1      -3.951  -2.925  -5.008  0.00  0.00    -0.263 NA
ATOM     38  C   UNL     1      -3.193  -3.361  -4.020  0.00  0.00    +0.111 A 
ATOM     39  C   UNL     1      -1.844  -3.581  -4.207  0.00  0.00    +0.030 A 
ENDBRANCH   8  34
TORSDOF 5
