REMARK  Name = CHEMBL477565
REMARK  9 active torsions:
REMARK  status: ('A' for Active; 'I' for Inactive)
REMARK    1  A    between atoms: C_1  and  N_2
REMARK    2  A    between atoms: N_2  and  C_3
REMARK    3  A    between atoms: N_2  and  C_4
REMARK    4  A    between atoms: C_4  and  C_5
REMARK    5  A    between atoms: C_5  and  O_6
REMARK    6  A    between atoms: O_6  and  C_7
REMARK    7  A    between atoms: C_9  and  C_19
REMARK    8  A    between atoms: C_10  and  C_13
REMARK    9  A    between atoms: N_28  and  O_29
REMARK                            x       y       z     vdW  Elec       q    Type
REMARK                         _______ _______ _______ _____ _____    ______ ____
ROOT
ATOM      1  C   UNL     1      -1.949  -0.506  -3.625  0.00  0.00    +0.194 A 
ATOM      2  C   UNL     1      -1.487  -1.030  -4.786  0.00  0.00    +0.075 A 
ATOM      3  C   UNL     1      -2.284  -0.518  -5.835  0.00  0.00    +0.011 A 
ATOM      4  C   UNL     1      -3.224   0.320  -5.255  0.00  0.00    +0.057 A 
ATOM      5  N   UNL     1      -3.007   0.310  -3.897  0.00  0.00    -0.325 N 
ATOM      6  H   UNL     1      -3.520   0.805  -3.240  0.00  0.00    +0.169 HD
ENDROOT
BRANCH   3   7
ATOM      7  C   UNL     1      -2.141  -0.818  -7.278  0.00  0.00    -0.015 A 
ATOM      8  C   UNL     1      -3.256  -1.201  -8.026  0.00  0.00    +0.009 A 
ATOM      9  C   UNL     1      -3.122  -1.480  -9.365  0.00  0.00    +0.010 A 
ATOM     10  C   UNL     1      -1.868  -1.380  -9.986  0.00  0.00    +0.003 A 
ATOM     11  C   UNL     1      -0.757  -0.996  -9.237  0.00  0.00    -0.037 A 
ATOM     12  C   UNL     1      -0.894  -0.712  -7.894  0.00  0.00    +0.012 A 
ATOM     13  C   UNL     1       0.466  -0.963 -10.123  0.00  0.00    +0.042 C 
ATOM     14  C   UNL     1      -0.005  -1.371 -11.525  0.00  0.00    +0.064 C 
ATOM     15  C   UNL     1      -1.486  -1.626 -11.391  0.00  0.00    +0.088 C 
ATOM     16  N   UNL     1      -2.283  -1.995 -12.342  0.00  0.00    -0.092 NA
BRANCH  16  17
ATOM     17  O   UNL     1      -1.780  -2.195 -13.650  0.00  0.00    -0.409 OA
ATOM     18  H   UNL     1      -2.449  -2.470 -14.291  0.00  0.00    +0.328 HD
ENDBRANCH  16  17
ENDBRANCH   3   7
BRANCH   4  19
ATOM     19  C   UNL     1      -4.270   1.079  -5.964  0.00  0.00    +0.002 A 
ATOM     20  C   UNL     1      -3.976   1.786  -7.139  0.00  0.00    +0.029 A 
ATOM     21  C   UNL     1      -4.985   2.482  -7.769  0.00  0.00    +0.111 A 
ATOM     22  N   UNL     1      -6.212   2.488  -7.281  0.00  0.00    -0.263 NA
ATOM     23  C   UNL     1      -6.532   1.836  -6.178  0.00  0.00    +0.111 A 
ATOM     24  C   UNL     1      -5.588   1.110  -5.486  0.00  0.00    +0.029 A 
ENDBRANCH   4  19
BRANCH   1  25
ATOM     25  O   UNL     1      -1.444  -0.758  -2.391  0.00  0.00    -0.479 OA
BRANCH  25  26
ATOM     26  C   UNL     1      -2.078  -0.110  -1.286  0.00  0.00    +0.212 C 
BRANCH  26  27
ATOM     27  C   UNL     1      -1.376  -0.512   0.012  0.00  0.00    -0.038 C 
BRANCH  27  29
ATOM     28  C   UNL     1      -0.018   1.465   0.010  0.00  0.00    -0.096 C 
ATOM     29  N   UNL     1       0.002  -0.004   0.002  0.00  0.00    +0.378 N 
ATOM     30  C   UNL     1       0.713  -0.491   1.192  0.00  0.00    -0.096 C 
ATOM     31  H   UNL     1       0.474  -0.330  -0.828  0.00  0.00    -0.082 HD
ENDBRANCH  27  29
ENDBRANCH  26  27
ENDBRANCH  25  26
ENDBRANCH   1  25
TORSDOF 7
