REMARK  Name = CHEMBL200172
REMARK  7 active torsions:
REMARK  status: ('A' for Active; 'I' for Inactive)
REMARK    1  A    between atoms: C_1  and  C_2
REMARK    2  A    between atoms: C_2  and  C_3
REMARK    3  A    between atoms: C_2  and  C_4
REMARK    4  A    between atoms: C_2  and  C_5
REMARK    5  A    between atoms: C_8  and  C_19
REMARK    6  A    between atoms: C_9  and  C_11
REMARK    7  A    between atoms: C_15  and  O_17
REMARK                            x       y       z     vdW  Elec       q    Type
REMARK                         _______ _______ _______ _____ _____    ______ ____
ROOT
ATOM      1  C   UNL     1       0.753  -0.579  -1.184  0.00  0.00    +0.091 A 
ATOM      2  N   UNL     1       0.190  -1.349  -2.140  0.00  0.00    -0.342 N 
ATOM      3  H   UNL     1      -0.689  -1.757  -2.105  0.00  0.00    +0.167 HD
ATOM      4  C   UNL     1       1.094  -1.446  -3.174  0.00  0.00    +0.072 A 
ATOM      5  C   UNL     1       2.200  -0.710  -2.789  0.00  0.00    +0.072 A 
ATOM      6  N   UNL     1       1.938  -0.198  -1.572  0.00  0.00    -0.342 N 
ATOM      7  H   UNL     1       2.539   0.366  -1.061  0.00  0.00    +0.167 HD
ENDROOT
BRANCH   5   8
ATOM      8  C   UNL     1       3.441  -0.515  -3.574  0.00  0.00    +0.004 A 
ATOM      9  C   UNL     1       3.368  -0.161  -4.921  0.00  0.00    +0.011 A 
ATOM     10  C   UNL     1       4.525   0.020  -5.651  0.00  0.00    +0.024 A 
ATOM     11  C   UNL     1       5.760  -0.150  -5.050  0.00  0.00    +0.082 A 
ATOM     12  C   UNL     1       5.841  -0.502  -3.708  0.00  0.00    +0.136 A 
ATOM     13  C   UNL     1       4.685  -0.679  -2.967  0.00  0.00    +0.057 A 
ATOM     14 CL   UNL     1       7.212   0.079  -5.974  0.00  0.00    -0.080 Cl
BRANCH  12  15
ATOM     15  O   UNL     1       7.056  -0.668  -3.122  0.00  0.00    -0.505 OA
ATOM     16  H   UNL     1       7.416   0.139  -2.728  0.00  0.00    +0.292 HD
ENDBRANCH  12  15
ENDBRANCH   5   8
BRANCH   4  17
ATOM     17  C   UNL     1       0.919  -2.188  -4.437  0.00  0.00    +0.003 A 
ATOM     18  C   UNL     1       1.925  -3.034  -4.922  0.00  0.00    +0.030 A 
ATOM     19  C   UNL     1       1.719  -3.708  -6.106  0.00  0.00    +0.111 A 
ATOM     20  N   UNL     1       0.594  -3.564  -6.781  0.00  0.00    -0.263 NA
ATOM     21  C   UNL     1      -0.380  -2.778  -6.361  0.00  0.00    +0.111 A 
ATOM     22  C   UNL     1      -0.262  -2.071  -5.184  0.00  0.00    +0.030 A 
ENDBRANCH   4  17
BRANCH   1  24
ATOM     23  C   UNL     1      -0.026   1.310   0.220  0.00  0.00    +0.018 C 
ATOM     24  C   UNL     1       0.107  -0.211   0.127  0.00  0.00    +0.018 C 
ATOM     25  C   UNL     1       0.973  -0.719   1.282  0.00  0.00    +0.018 C 
ATOM     26  C   UNL     1      -1.280  -0.851   0.210  0.00  0.00    +0.018 C 
ENDBRANCH   1  24
TORSDOF 4
