REMARK  Name = CHEMBL200783
REMARK  5 active torsions:
REMARK  status: ('A' for Active; 'I' for Inactive)
REMARK    1  A    between atoms: C_4  and  C_7
REMARK    2  A    between atoms: C_10  and  C_19
REMARK    3  A    between atoms: C_11  and  C_13
REMARK    4  A    between atoms: C_22  and  C_25
REMARK    5  A    between atoms: N_26  and  O_27
REMARK                            x       y       z     vdW  Elec       q    Type
REMARK                         _______ _______ _______ _____ _____    ______ ____
ROOT
ATOM      1  C   UNL     1       3.696  -0.685  -0.038  0.00  0.00    +0.139 A 
ATOM      2  N   UNL     1       4.881  -0.119  -0.047  0.00  0.00    -0.227 NA
ATOM      3  H   UNL     1       3.134  -2.699  -0.033  0.00  0.00    +0.167 HD
ATOM      4  C   UNL     1       5.831  -1.067  -0.061  0.00  0.00    +0.097 A 
ATOM      5  C   UNL     1       5.197  -2.300  -0.062  0.00  0.00    +0.074 A 
ATOM      6  N   UNL     1       3.846  -2.041  -0.042  0.00  0.00    -0.337 N 
ENDROOT
BRANCH   1  10
ATOM      7  C   UNL     1      -0.017   1.379   0.010  0.00  0.00    +0.000 A 
ATOM      8  C   UNL     1       1.168   2.093   0.002  0.00  0.00    +0.001 A 
ATOM      9  C   UNL     1       2.377   1.429  -0.013  0.00  0.00    +0.011 A 
ATOM     10  C   UNL     1       2.403   0.034  -0.021  0.00  0.00    +0.017 A 
ATOM     11  C   UNL     1       1.204  -0.681  -0.013  0.00  0.00    +0.011 A 
ATOM     12  C   UNL     1       0.002  -0.004   0.002  0.00  0.00    +0.001 A 
ENDBRANCH   1  10
BRANCH   5  13
ATOM     13  C   UNL     1       5.843  -3.626  -0.075  0.00  0.00    +0.003 A 
ATOM     14  C   UNL     1       6.918  -3.895  -0.933  0.00  0.00    +0.030 A 
ATOM     15  C   UNL     1       7.491  -5.149  -0.912  0.00  0.00    +0.111 A 
ATOM     16  N   UNL     1       7.040  -6.087  -0.101  0.00  0.00    -0.263 NA
ATOM     17  C   UNL     1       6.031  -5.876   0.723  0.00  0.00    +0.111 A 
ATOM     18  C   UNL     1       5.402  -4.651   0.774  0.00  0.00    +0.030 A 
ENDBRANCH   5  13
BRANCH   4  19
ATOM     19  C   UNL     1       7.293  -0.837  -0.075  0.00  0.00    +0.002 A 
ATOM     20  C   UNL     1       8.144  -1.714   0.600  0.00  0.00    +0.011 A 
ATOM     21  C   UNL     1       9.504  -1.501   0.588  0.00  0.00    +0.010 A 
ATOM     22  C   UNL     1      10.033  -0.407  -0.101  0.00  0.00    -0.004 A 
ATOM     23  C   UNL     1       9.181   0.471  -0.778  0.00  0.00    +0.010 A 
ATOM     24  C   UNL     1       7.822   0.254  -0.769  0.00  0.00    +0.011 A 
BRANCH  22  25
ATOM     25  C   UNL     1      11.490  -0.177  -0.115  0.00  0.00    +0.160 C 
ATOM     26  N   UNL     1      11.979   0.837  -0.753  0.00  0.00    -0.095 NA
BRANCH  26  27
ATOM     27  O   UNL     1      13.378   1.057  -0.765  0.00  0.00    -0.409 OA
ATOM     28  H   UNL     1      13.649   1.838  -1.267  0.00  0.00    +0.328 HD
ENDBRANCH  26  27
ENDBRANCH  22  25
ENDBRANCH   4  19
TORSDOF 5
