REMARK  Name = CHEMBL1087522
REMARK  7 active torsions:
REMARK  status: ('A' for Active; 'I' for Inactive)
REMARK    1  A    between atoms: C_3  and  C_20
REMARK    2  A    between atoms: C_5  and  N_7
REMARK    3  A    between atoms: C_8  and  C_10
REMARK    4  A    between atoms: C_14  and  C_16
REMARK    5  A    between atoms: C_28  and  C_29
REMARK    6  A    between atoms: C_32  and  C_35
REMARK    7  A    between atoms: C_35  and  N_36
REMARK                            x       y       z     vdW  Elec       q    Type
REMARK                         _______ _______ _______ _____ _____    ______ ____
ROOT
ATOM      1  C   UNL     1       3.669   2.162   0.011  0.00  0.00    +0.076 A 
ATOM      2  C   UNL     1       4.538   2.075   1.080  0.00  0.00    +0.048 A 
ATOM      3  C   UNL     1       5.731   2.801   1.048  0.00  0.00    +0.115 A 
ATOM      4  N   UNL     1       6.021   3.558   0.014  0.00  0.00    -0.236 NA
ATOM      5  C   UNL     1       5.193   3.654  -1.030  0.00  0.00    +0.164 A 
ATOM      6  N   UNL     1       4.011   2.960  -1.055  0.00  0.00    -0.213 N 
ATOM      7  N   UNL     1       3.366   3.250  -2.262  0.00  0.00    -0.172 NA
ATOM      8  C   UNL     1       4.106   4.078  -2.959  0.00  0.00    +0.145 A 
ATOM      9  C   UNL     1       5.263   4.374  -2.230  0.00  0.00    +0.046 A 
ENDROOT
BRANCH   1  12
ATOM     10  C   UNL     1      -0.005   1.382   0.019  0.00  0.00    +0.002 A 
ATOM     11  C   UNL     1       1.180   2.089   0.021  0.00  0.00    +0.010 A 
ATOM     12  C   UNL     1       2.399   1.408   0.009  0.00  0.00    +0.002 A 
ATOM     13  C   UNL     1       2.413   0.013  -0.005  0.00  0.00    +0.033 A 
ATOM     14  C   UNL     1       1.217  -0.688  -0.007  0.00  0.00    +0.034 A 
ATOM     15  C   UNL     1       0.009  -0.000   0.005  0.00  0.00    +0.023 A 
BRANCH  14  16
ATOM     16  N   UNL     1       1.226  -2.086  -0.021  0.00  0.00    -0.281 N 
ATOM     17  C   UNL     1       2.182  -2.747  -0.704  0.00  0.00    +0.248 C 
ATOM     18  O   UNL     1       3.084  -2.131  -1.237  0.00  0.00    -0.270 OA
ATOM     19  H   UNL     1       0.544  -2.581   0.460  0.00  0.00    +0.155 HD
BRANCH  17  20
ATOM     20  C   UNL     1       2.133  -4.221  -0.805  0.00  0.00    +0.038 A 
ATOM     21  C   UNL     1       1.095  -4.931  -0.199  0.00  0.00    +0.013 A 
ATOM     22  C   UNL     1       1.054  -6.306  -0.297  0.00  0.00    +0.001 A 
ATOM     23  C   UNL     1       2.040  -6.982  -0.994  0.00  0.00    +0.012 A 
ATOM     24  C   UNL     1       3.072  -6.285  -1.597  0.00  0.00    +0.056 A 
ATOM     25  C   UNL     1       3.121  -4.909  -1.511  0.00  0.00    +0.025 A 
BRANCH  24  26
ATOM     26  C   UNL     1       4.142  -7.029  -2.353  0.00  0.00    +0.417 C 
ATOM     27  F   UNL     1       3.877  -8.402  -2.306  0.00  0.00    -0.166 F 
ATOM     28  F   UNL     1       4.154  -6.602  -3.686  0.00  0.00    -0.166 F 
ATOM     29  F   UNL     1       5.388  -6.775  -1.771  0.00  0.00    -0.166 F 
ENDBRANCH  24  26
ENDBRANCH  17  20
ENDBRANCH  14  16
ENDBRANCH   1  12
BRANCH   9  30
ATOM     30  C   UNL     1       6.364   5.268  -2.655  0.00  0.00    -0.013 A 
ATOM     31  C   UNL     1       6.841   6.253  -1.789  0.00  0.00    +0.009 A 
ATOM     32  C   UNL     1       7.867   7.083  -2.191  0.00  0.00    +0.002 A 
ATOM     33  C   UNL     1       8.423   6.941  -3.450  0.00  0.00    -0.064 A 
ATOM     34  C   UNL     1       7.954   5.967  -4.313  0.00  0.00    +0.002 A 
ATOM     35  C   UNL     1       6.933   5.126  -3.921  0.00  0.00    +0.009 A 
BRANCH  33  36
ATOM     36  C   UNL     1       9.543   7.852  -3.882  0.00  0.00    -0.043 C 
BRANCH  36  37
ATOM     37  N   UNL     1      10.832   7.251  -3.513  0.00  0.00    +0.382 N 
ATOM     38  C   UNL     1      11.086   6.039  -4.333  0.00  0.00    -0.078 C 
ATOM     39  C   UNL     1      12.624   5.873  -4.254  0.00  0.00    -0.020 C 
ATOM     40  C   UNL     1      13.131   7.333  -4.289  0.00  0.00    -0.020 C 
ATOM     41  C   UNL     1      11.937   8.185  -3.822  0.00  0.00    -0.078 C 
ATOM     42  H   UNL     1      10.839   7.017  -2.532  0.00  0.00    -0.081 HD
ENDBRANCH  36  37
ENDBRANCH  33  36
ENDBRANCH   9  30
TORSDOF 7
