REMARK  Name = CHEMBL1080833
REMARK  6 active torsions:
REMARK  status: ('A' for Active; 'I' for Inactive)
REMARK    1  A    between atoms: C_1  and  N_2
REMARK    2  A    between atoms: N_8  and  C_10
REMARK    3  A    between atoms: C_13  and  C_16
REMARK    4  A    between atoms: C_23  and  C_33
REMARK    5  A    between atoms: C_24  and  C_25
REMARK    6  A    between atoms: C_29  and  O_31
REMARK                            x       y       z     vdW  Elec       q    Type
REMARK                         _______ _______ _______ _____ _____    ______ ____
ROOT
ATOM      1  C   UNL     1      -1.618  -7.305   3.248  0.00  0.00    +0.076 A 
ATOM      2  C   UNL     1      -1.722  -7.144   4.616  0.00  0.00    +0.048 A 
ATOM      3  C   UNL     1      -2.147  -8.220   5.396  0.00  0.00    +0.115 A 
ATOM      4  N   UNL     1      -2.446  -9.372   4.836  0.00  0.00    -0.236 NA
ATOM      5  C   UNL     1      -2.352  -9.546   3.514  0.00  0.00    +0.164 A 
ATOM      6  N   UNL     1      -1.944  -8.522   2.698  0.00  0.00    -0.213 N 
ATOM      7  N   UNL     1      -1.948  -8.987   1.379  0.00  0.00    -0.164 NA
ATOM      8  C   UNL     1      -2.345 -10.245   1.365  0.00  0.00    +0.103 A 
ATOM      9  C   UNL     1      -2.605 -10.648   2.689  0.00  0.00    +0.054 A 
ENDROOT
BRANCH   9  10
ATOM     10  C   UNL     1      -3.072 -11.983   3.126  0.00  0.00    -0.009 A 
ATOM     11  C   UNL     1      -2.228 -13.090   3.019  0.00  0.00    +0.010 A 
ATOM     12  C   UNL     1      -2.666 -14.333   3.427  0.00  0.00    +0.024 A 
ATOM     13  C   UNL     1      -3.941 -14.486   3.943  0.00  0.00    +0.082 A 
ATOM     14  C   UNL     1      -4.788 -13.390   4.052  0.00  0.00    +0.136 A 
ATOM     15  C   UNL     1      -4.355 -12.138   3.651  0.00  0.00    +0.055 A 
ATOM     16 CL   UNL     1      -4.485 -16.054   4.454  0.00  0.00    -0.080 Cl
BRANCH  14  17
ATOM     17  O   UNL     1      -6.039 -13.546   4.559  0.00  0.00    -0.505 OA
ATOM     18  H   UNL     1      -6.092 -13.434   5.518  0.00  0.00    +0.292 HD
ENDBRANCH  14  17
ENDBRANCH   9  10
BRANCH   1  22
ATOM     19  C   UNL     1      -0.334  -4.094   0.782  0.00  0.00    +0.030 A 
ATOM     20  C   UNL     1       0.541  -4.650   1.710  0.00  0.00    +0.024 A 
ATOM     21  C   UNL     1       0.128  -5.691   2.511  0.00  0.00    +0.012 A 
ATOM     22  C   UNL     1      -1.172  -6.189   2.392  0.00  0.00    +0.001 A 
ATOM     23  C   UNL     1      -2.049  -5.627   1.459  0.00  0.00    +0.012 A 
ATOM     24  C   UNL     1      -1.631  -4.583   0.665  0.00  0.00    +0.024 A 
BRANCH  19  32
ATOM     25  C   UNL     1       1.879  -1.080  -3.302  0.00  0.00    -0.095 C 
ATOM     26  N   UNL     1       1.191  -1.479  -2.067  0.00  0.00    +0.384 N 
ATOM     27  C   UNL     1       2.084  -2.310  -1.216  0.00  0.00    -0.051 C 
ATOM     28  C   UNL     1       2.056  -3.705  -1.881  0.00  0.00    -0.015 C 
ATOM     29  C   UNL     1       0.716  -3.755  -2.643  0.00  0.00    -0.015 C 
ATOM     30  C   UNL     1       0.052  -2.386  -2.373  0.00  0.00    -0.051 C 
ATOM     31  C   UNL     1      -0.785  -2.514  -1.088  0.00  0.00    +0.090 C 
ATOM     32  N   UNL     1       0.087  -3.040  -0.027  0.00  0.00    -0.333 N 
ATOM     33  C   UNL     1       1.414  -2.432   0.163  0.00  0.00    +0.090 C 
ATOM     34  H   UNL     1       0.872  -0.667  -1.561  0.00  0.00    -0.081 HD
ENDBRANCH  19  32
ENDBRANCH   1  22
BRANCH   8  35
ATOM     35  C   UNL     1      -2.483 -11.096   0.158  0.00  0.00    +0.006 A 
ATOM     36  C   UNL     1      -3.566 -11.968   0.015  0.00  0.00    +0.030 A 
ATOM     37  C   UNL     1      -3.656 -12.741  -1.125  0.00  0.00    +0.111 A 
ATOM     38  N   UNL     1      -2.739 -12.665  -2.069  0.00  0.00    -0.263 NA
ATOM     39  C   UNL     1      -1.701 -11.856  -1.973  0.00  0.00    +0.111 A 
ATOM     40  C   UNL     1      -1.537 -11.043  -0.870  0.00  0.00    +0.030 A 
ENDBRANCH   8  35
TORSDOF 5
