REMARK  Name = CHEMBL1087906
REMARK  5 active torsions:
REMARK  status: ('A' for Active; 'I' for Inactive)
REMARK    1  A    between atoms: C_3  and  C_20
REMARK    2  A    between atoms: C_5  and  N_7
REMARK    3  A    between atoms: C_8  and  C_10
REMARK    4  A    between atoms: C_14  and  C_16
REMARK    5  A    between atoms: C_28  and  C_29
REMARK                            x       y       z     vdW  Elec       q    Type
REMARK                         _______ _______ _______ _____ _____    ______ ____
ROOT
ATOM      1  C   UNL     1       3.669   2.162   0.011  0.00  0.00    +0.076 A 
ATOM      2  C   UNL     1       4.537   2.075   1.079  0.00  0.00    +0.048 A 
ATOM      3  C   UNL     1       5.731   2.801   1.049  0.00  0.00    +0.115 A 
ATOM      4  N   UNL     1       6.021   3.558   0.014  0.00  0.00    -0.236 NA
ATOM      5  C   UNL     1       5.193   3.655  -1.029  0.00  0.00    +0.164 A 
ATOM      6  N   UNL     1       4.011   2.960  -1.055  0.00  0.00    -0.213 N 
ATOM      7  N   UNL     1       3.367   3.250  -2.262  0.00  0.00    -0.172 NA
ATOM      8  C   UNL     1       4.108   4.079  -2.958  0.00  0.00    +0.145 A 
ATOM      9  C   UNL     1       5.263   4.375  -2.229  0.00  0.00    +0.049 A 
ENDROOT
BRANCH   9  10
ATOM     10  C   UNL     1       6.366   5.270  -2.654  0.00  0.00    +0.024 A 
ATOM     11  C   UNL     1       6.854   6.261  -1.797  0.00  0.00    +0.124 A 
ATOM     12  N   UNL     1       7.838   7.040  -2.213  0.00  0.00    -0.222 NA
ATOM     13  C   UNL     1       8.360   6.890  -3.421  0.00  0.00    +0.218 A 
ATOM     14  N   UNL     1       7.924   5.963  -4.261  0.00  0.00    -0.222 NA
ATOM     15  C   UNL     1       6.947   5.142  -3.918  0.00  0.00    +0.124 A 
ATOM     16  N   UNL     1       9.390   7.726  -3.818  0.00  0.00    -0.295 N 
ATOM     17  C   UNL     1       9.911   8.767  -2.917  0.00  0.00    +0.136 C 
ATOM     18  C   UNL     1      11.438   8.638  -2.860  0.00  0.00    +0.179 C 
ATOM     19  O   UNL     1      11.959   8.632  -4.191  0.00  0.00    -0.377 OA
ATOM     20  C   UNL     1      11.519   7.529  -4.987  0.00  0.00    +0.179 C 
ATOM     21  C   UNL     1      10.001   7.597  -5.151  0.00  0.00    +0.136 C 
ENDBRANCH   9  10
BRANCH   1  24
ATOM     22  C   UNL     1      -0.005   1.382   0.019  0.00  0.00    +0.002 A 
ATOM     23  C   UNL     1       1.180   2.089   0.021  0.00  0.00    +0.010 A 
ATOM     24  C   UNL     1       2.399   1.408   0.009  0.00  0.00    +0.002 A 
ATOM     25  C   UNL     1       2.413   0.013  -0.005  0.00  0.00    +0.033 A 
ATOM     26  C   UNL     1       1.217  -0.688  -0.007  0.00  0.00    +0.034 A 
ATOM     27  C   UNL     1       0.009  -0.000   0.005  0.00  0.00    +0.023 A 
BRANCH  26  28
ATOM     28  N   UNL     1       1.226  -2.086  -0.021  0.00  0.00    -0.281 N 
ATOM     29  C   UNL     1       2.182  -2.747  -0.704  0.00  0.00    +0.248 C 
ATOM     30  O   UNL     1       3.084  -2.131  -1.237  0.00  0.00    -0.270 OA
ATOM     31  H   UNL     1       0.544  -2.580   0.460  0.00  0.00    +0.155 HD
BRANCH  29  32
ATOM     32  C   UNL     1       2.133  -4.221  -0.804  0.00  0.00    +0.038 A 
ATOM     33  C   UNL     1       1.095  -4.931  -0.199  0.00  0.00    +0.013 A 
ATOM     34  C   UNL     1       1.054  -6.306  -0.297  0.00  0.00    +0.001 A 
ATOM     35  C   UNL     1       2.040  -6.982  -0.994  0.00  0.00    +0.012 A 
ATOM     36  C   UNL     1       3.072  -6.285  -1.596  0.00  0.00    +0.056 A 
ATOM     37  C   UNL     1       3.121  -4.909  -1.510  0.00  0.00    +0.025 A 
BRANCH  36  38
ATOM     38  C   UNL     1       4.142  -7.030  -2.352  0.00  0.00    +0.417 C 
ATOM     39  F   UNL     1       3.877  -8.402  -2.305  0.00  0.00    -0.166 F 
ATOM     40  F   UNL     1       4.154  -6.603  -3.685  0.00  0.00    -0.166 F 
ATOM     41  F   UNL     1       5.388  -6.775  -1.770  0.00  0.00    -0.166 F 
ENDBRANCH  36  38
ENDBRANCH  29  32
ENDBRANCH  26  28
ENDBRANCH   1  24
TORSDOF 5
