REMARK  Name = CHEMBL372543
REMARK  4 active torsions:
REMARK  status: ('A' for Active; 'I' for Inactive)
REMARK    1  A    between atoms: C_4  and  C_7
REMARK    2  A    between atoms: C_10  and  C_19
REMARK    3  A    between atoms: C_11  and  C_13
REMARK    4  A    between atoms: N_28  and  O_29
REMARK                            x       y       z     vdW  Elec       q    Type
REMARK                         _______ _______ _______ _____ _____    ______ ____
ROOT
ATOM      1  C   UNL     1       3.696  -0.685  -0.038  0.00  0.00    +0.139 A 
ATOM      2  N   UNL     1       4.881  -0.119  -0.047  0.00  0.00    -0.227 NA
ATOM      3  H   UNL     1       3.134  -2.699  -0.033  0.00  0.00    +0.167 HD
ATOM      4  C   UNL     1       5.831  -1.067  -0.061  0.00  0.00    +0.097 A 
ATOM      5  C   UNL     1       5.197  -2.300  -0.062  0.00  0.00    +0.074 A 
ATOM      6  N   UNL     1       3.846  -2.041  -0.042  0.00  0.00    -0.337 N 
ENDROOT
BRANCH   4   7
ATOM      7  C   UNL     1       7.293  -0.837  -0.075  0.00  0.00    +0.003 A 
ATOM      8  C   UNL     1       8.146  -1.714   0.600  0.00  0.00    +0.011 A 
ATOM      9  C   UNL     1       9.503  -1.499   0.585  0.00  0.00    +0.011 A 
ATOM     10  C   UNL     1      10.039  -0.402  -0.106  0.00  0.00    +0.003 A 
ATOM     11  C   UNL     1       9.185   0.472  -0.779  0.00  0.00    -0.037 A 
ATOM     12  C   UNL     1       7.823   0.252  -0.768  0.00  0.00    +0.014 A 
ATOM     13  C   UNL     1       9.993   1.563  -1.439  0.00  0.00    +0.042 C 
ATOM     14  C   UNL     1      11.463   1.276  -1.103  0.00  0.00    +0.064 C 
ATOM     15  C   UNL     1      11.443   0.025  -0.259  0.00  0.00    +0.088 C 
ATOM     16  N   UNL     1      12.477  -0.569   0.243  0.00  0.00    -0.092 NA
BRANCH  16  17
ATOM     17  O   UNL     1      12.312  -1.741   1.021  0.00  0.00    -0.409 OA
ATOM     18  H   UNL     1      13.141  -2.113   1.353  0.00  0.00    +0.328 HD
ENDBRANCH  16  17
ENDBRANCH   4   7
BRANCH   1  22
ATOM     19  C   UNL     1      -0.017   1.379   0.010  0.00  0.00    +0.000 A 
ATOM     20  C   UNL     1       1.168   2.093   0.002  0.00  0.00    +0.001 A 
ATOM     21  C   UNL     1       2.377   1.429  -0.013  0.00  0.00    +0.011 A 
ATOM     22  C   UNL     1       2.403   0.034  -0.021  0.00  0.00    +0.017 A 
ATOM     23  C   UNL     1       1.204  -0.681  -0.013  0.00  0.00    +0.011 A 
ATOM     24  C   UNL     1       0.002  -0.004   0.002  0.00  0.00    +0.001 A 
ENDBRANCH   1  22
BRANCH   5  25
ATOM     25  C   UNL     1       5.843  -3.626  -0.075  0.00  0.00    +0.003 A 
ATOM     26  C   UNL     1       6.918  -3.895  -0.933  0.00  0.00    +0.030 A 
ATOM     27  C   UNL     1       7.491  -5.149  -0.912  0.00  0.00    +0.111 A 
ATOM     28  N   UNL     1       7.040  -6.087  -0.101  0.00  0.00    -0.263 NA
ATOM     29  C   UNL     1       6.031  -5.876   0.723  0.00  0.00    +0.111 A 
ATOM     30  C   UNL     1       5.402  -4.651   0.774  0.00  0.00    +0.030 A 
ENDBRANCH   5  25
TORSDOF 4
