REMARK  Name = CHEMBL1421
REMARK  8 active torsions:
REMARK  status: ('A' for Active; 'I' for Inactive)
REMARK    1  A    between atoms: C_1  and  C_2
REMARK    2  A    between atoms: C_7  and  N_8
REMARK    3  A    between atoms: C_9  and  C_11
REMARK    4  A    between atoms: C_19  and  N_24
REMARK    5  A    between atoms: C_21  and  C_23
REMARK    6  A    between atoms: N_27  and  C_30
REMARK    7  A    between atoms: C_30  and  C_31
REMARK    8  A    between atoms: C_31  and  O_32
REMARK                            x       y       z     vdW  Elec       q    Type
REMARK                         _______ _______ _______ _____ _____    ______ ____
ROOT
ATOM      1  C   UNL     1      -1.172   0.290   4.715  0.00  0.00    +0.095 A 
ATOM      2  C   UNL     1      -1.547  -0.120   5.987  0.00  0.00    +0.133 A 
ATOM      3  N   UNL     1      -1.326   0.727   6.960  0.00  0.00    -0.232 NA
ATOM      4  C   UNL     1      -0.776   1.907   6.736  0.00  0.00    +0.164 A 
ATOM      5  S   UNL     1      -0.511   1.910   5.074  0.00  0.00    -0.047 S 
ATOM      6  N   UNL     1      -0.482   2.900   7.650  0.00  0.00    -0.280 N 
ATOM      7  C   UNL     1      -0.691   2.680   9.005  0.00  0.00    +0.106 A 
ATOM      8  C   UNL     1      -1.053   1.419   9.468  0.00  0.00    +0.085 A 
ATOM      9  C   UNL     1      -1.251   1.251  10.835  0.00  0.00    +0.127 A 
ATOM     10  N   UNL     1      -1.087   2.295  11.645  0.00  0.00    -0.219 NA
ATOM     11  C   UNL     1      -0.744   3.474  11.168  0.00  0.00    +0.107 A 
ATOM     12  N   UNL     1      -0.542   3.672   9.881  0.00  0.00    -0.332 N 
ATOM     13  C   UNL     1      -0.569   4.627  12.122  0.00  0.00    +0.086 C 
ATOM     14  H   UNL     1      -0.129   3.751   7.345  0.00  0.00    +0.155 HD
ATOM     15  H   UNL     1      -0.285   4.553   9.567  0.00  0.00    +0.168 HD
ENDROOT
BRANCH   9  16
ATOM     16  N   UNL     1      -1.614   0.014  11.346  0.00  0.00    -0.313 N 
ATOM     17  C   UNL     1      -2.056  -0.125  12.742  0.00  0.00    +0.122 C 
ATOM     18  C   UNL     1      -3.387  -0.885  12.758  0.00  0.00    +0.103 C 
ATOM     19  N   UNL     1      -3.233  -2.149  12.025  0.00  0.00    -0.297 NA
ATOM     20  C   UNL     1      -2.917  -1.911  10.611  0.00  0.00    +0.103 C 
ATOM     21  C   UNL     1      -1.573  -1.192  10.506  0.00  0.00    +0.122 C 
BRANCH  19  22
ATOM     22  C   UNL     1      -4.433  -2.986  12.162  0.00  0.00    +0.112 C 
BRANCH  22  23
ATOM     23  C   UNL     1      -4.148  -4.382  11.604  0.00  0.00    +0.171 C 
BRANCH  23  24
ATOM     24  O   UNL     1      -3.150  -5.019  12.404  0.00  0.00    -0.394 OA
ATOM     25  H   UNL     1      -2.919  -5.910  12.108  0.00  0.00    +0.209 HD
ENDBRANCH  23  24
ENDBRANCH  22  23
ENDBRANCH  19  22
ENDBRANCH   9  16
BRANCH   1  27
ATOM     26  N   UNL     1      -0.844   0.177   2.305  0.00  0.00    -0.280 N 
ATOM     27  C   UNL     1      -1.282  -0.411   3.437  0.00  0.00    +0.256 C 
ATOM     28  O   UNL     1      -1.769  -1.526   3.394  0.00  0.00    -0.269 OA
ATOM     29  H   UNL     1      -0.384   1.030   2.349  0.00  0.00    +0.155 HD
BRANCH  26  36
ATOM     30  C   UNL     1      -2.070   1.693   0.233  0.00  0.00    +0.046 C 
ATOM     31  C   UNL     1      -1.648   0.260   0.030  0.00  0.00    -0.028 A 
ATOM     32  C   UNL     1      -1.848  -0.352  -1.192  0.00  0.00    +0.005 A 
ATOM     33  C   UNL     1      -1.462  -1.667  -1.380  0.00  0.00    +0.002 A 
ATOM     34  C   UNL     1      -0.874  -2.373  -0.346  0.00  0.00    +0.022 A 
ATOM     35  C   UNL     1      -0.671  -1.766   0.879  0.00  0.00    +0.062 A 
ATOM     36  C   UNL     1      -1.053  -0.443   1.069  0.00  0.00    +0.055 A 
ATOM     37 CL   UNL     1       0.066  -2.653   2.177  0.00  0.00    -0.082 Cl
ENDBRANCH  26  36
ENDBRANCH   1  27
TORSDOF 6
