REMARK  Name = CHEMBL571112
REMARK  6 active torsions:
REMARK  status: ('A' for Active; 'I' for Inactive)
REMARK    1  A    between atoms: C_1  and  N_2
REMARK    2  A    between atoms: C_9  and  C_32
REMARK    3  A    between atoms: C_10  and  C_26
REMARK    4  A    between atoms: C_16  and  S_17
REMARK    5  A    between atoms: S_17  and  C_20
REMARK    6  A    between atoms: C_36  and  O_38
REMARK                            x       y       z     vdW  Elec       q    Type
REMARK                         _______ _______ _______ _____ _____    ______ ____
ROOT
ATOM      1  C   UNL     1       0.058   1.488   0.102  0.00  0.00    +0.106 C 
ATOM      2  N   UNL     1       0.066   0.019   0.064  0.00  0.00    -0.292 NA
ATOM      3  C   UNL     1      -1.298  -0.527   0.289  0.00  0.00    +0.086 C 
ATOM      4  C   UNL     1      -1.298  -1.993  -0.140  0.00  0.00    +0.059 C 
ATOM      5  C   UNL     1      -0.074  -2.707   0.373  0.00  0.00    -0.005 A 
ATOM      6  C   UNL     1       0.019  -4.100   0.210  0.00  0.00    +0.118 A 
ATOM      7  N   UNL     1       1.066  -4.782   0.629  0.00  0.00    -0.235 NA
ATOM      8  C   UNL     1       2.064  -4.114   1.221  0.00  0.00    +0.164 A 
ATOM      9  C   UNL     1       3.270  -4.549   1.750  0.00  0.00    +0.054 A 
ATOM     10  C   UNL     1       3.939  -3.411   2.249  0.00  0.00    +0.103 A 
ATOM     11  N   UNL     1       3.180  -2.347   2.036  0.00  0.00    -0.164 NA
ATOM     12  N   UNL     1       2.011  -2.744   1.403  0.00  0.00    -0.216 N 
ATOM     13  C   UNL     1       0.929  -2.031   0.984  0.00  0.00    +0.067 A 
ATOM     14  C   UNL     1       0.841  -0.540   1.206  0.00  0.00    +0.108 C 
ATOM     15  C   UNL     1      -0.107  -0.345   2.420  0.00  0.00    +0.053 C 
ATOM     16  C   UNL     1      -1.522  -0.415   1.809  0.00  0.00    +0.155 C 
ENDROOT
BRANCH   9  17
ATOM     17  C   UNL     1       3.762  -5.945   1.784  0.00  0.00    -0.009 A 
ATOM     18  C   UNL     1       3.087  -6.907   2.536  0.00  0.00    +0.010 A 
ATOM     19  C   UNL     1       3.548  -8.207   2.566  0.00  0.00    +0.024 A 
ATOM     20  C   UNL     1       4.680  -8.560   1.852  0.00  0.00    +0.082 A 
ATOM     21  C   UNL     1       5.358  -7.609   1.101  0.00  0.00    +0.136 A 
ATOM     22  C   UNL     1       4.899  -6.303   1.060  0.00  0.00    +0.055 A 
ATOM     23 CL   UNL     1       5.254 -10.198   1.896  0.00  0.00    -0.080 Cl
BRANCH  21  24
ATOM     24  O   UNL     1       6.469  -7.960   0.402  0.00  0.00    -0.505 OA
ATOM     25  H   UNL     1       6.289  -8.257  -0.500  0.00  0.00    +0.292 HD
ENDBRANCH  21  24
ENDBRANCH   9  17
BRANCH  10  26
ATOM     26  C   UNL     1       5.269  -3.407   2.903  0.00  0.00    +0.006 A 
ATOM     27  C   UNL     1       5.675  -4.473   3.711  0.00  0.00    +0.030 A 
ATOM     28  C   UNL     1       6.921  -4.430   4.301  0.00  0.00    +0.111 A 
ATOM     29  N   UNL     1       7.725  -3.400   4.111  0.00  0.00    -0.263 NA
ATOM     30  C   UNL     1       7.381  -2.374   3.357  0.00  0.00    +0.111 A 
ATOM     31  C   UNL     1       6.155  -2.340   2.724  0.00  0.00    +0.030 A 
ENDBRANCH  10  26
BRANCH  16  32
ATOM     32  S   UNL     1      -2.453   1.092   2.199  0.00  0.00    +0.001 S 
ATOM     33  O   UNL     1      -2.666   1.187   3.601  0.00  0.00    -0.169 OA
ATOM     34  O   UNL     1      -1.929   2.194   1.470  0.00  0.00    -0.169 OA
BRANCH  32  35
ATOM     35  C   UNL     1      -4.056   0.824   1.518  0.00  0.00    +0.089 A 
ATOM     36  C   UNL     1      -4.325   1.202   0.216  0.00  0.00    +0.027 A 
ATOM     37  C   UNL     1      -5.583   0.992  -0.318  0.00  0.00    +0.002 A 
ATOM     38  C   UNL     1      -6.570   0.404   0.449  0.00  0.00    +0.000 A 
ATOM     39  C   UNL     1      -6.301   0.025   1.751  0.00  0.00    +0.002 A 
ATOM     40  C   UNL     1      -5.042   0.231   2.284  0.00  0.00    +0.027 A 
ENDBRANCH  32  35
ENDBRANCH  16  32
TORSDOF 5
