REMARK  Name = CHEMBL401710
REMARK  6 active torsions:
REMARK  status: ('A' for Active; 'I' for Inactive)
REMARK    1  A    between atoms: C_4  and  C_8
REMARK    2  A    between atoms: C_9  and  C_17
REMARK    3  A    between atoms: C_12  and  C_14
REMARK    4  A    between atoms: N_23  and  C_24
REMARK    5  A    between atoms: C_24  and  C_25
REMARK    6  A    between atoms: C_25  and  N_26
REMARK                            x       y       z     vdW  Elec       q    Type
REMARK                         _______ _______ _______ _____ _____    ______ ____
ROOT
ATOM      1  C   UNL     1       3.697  -0.701  -0.158  0.00  0.00    +0.100 A 
ATOM      2  C   UNL     1       3.875  -2.058   0.045  0.00  0.00    +0.093 A 
ATOM      3  N   UNL     1       5.237  -2.260   0.111  0.00  0.00    -0.340 N 
ATOM      4  H   UNL     1       5.686  -3.108   0.246  0.00  0.00    +0.167 HD
ATOM      5  C   UNL     1       5.829  -1.058  -0.049  0.00  0.00    +0.111 A 
ATOM      6  N   UNL     1       4.917  -0.140  -0.213  0.00  0.00    -0.231 NA
ENDROOT
BRANCH   1  10
ATOM      7  C   UNL     1      -0.023   1.320  -0.554  0.00  0.00    +0.021 A 
ATOM      8  C   UNL     1       0.941   1.814   0.306  0.00  0.00    +0.022 A 
ATOM      9  C   UNL     1       2.151   1.163   0.439  0.00  0.00    +0.050 A 
ATOM     10  C   UNL     1       2.400   0.003  -0.296  0.00  0.00    +0.022 A 
ATOM     11  C   UNL     1       1.425  -0.490  -1.161  0.00  0.00    +0.031 A 
ATOM     12  C   UNL     1       0.218   0.170  -1.286  0.00  0.00    +0.042 A 
ATOM     13 CL   UNL     1      -0.998  -0.442  -2.363  0.00  0.00    -0.084 Cl
ATOM     14 CL   UNL     1       3.359   1.785   1.519  0.00  0.00    -0.083 Cl
ENDBRANCH   1  10
BRANCH   2  15
ATOM     15  C   UNL     1       2.822  -3.082   0.167  0.00  0.00    +0.094 A 
ATOM     16  C   UNL     1       3.084  -4.418  -0.166  0.00  0.00    +0.050 A 
ATOM     17  C   UNL     1       2.065  -5.341  -0.035  0.00  0.00    +0.116 A 
ATOM     18  N   UNL     1       0.879  -4.940   0.398  0.00  0.00    -0.223 NA
ATOM     19  C   UNL     1       0.656  -3.671   0.706  0.00  0.00    +0.216 A 
ATOM     20  N   UNL     1       1.604  -2.753   0.602  0.00  0.00    -0.213 NA
ATOM     21  N   UNL     1      -0.599  -3.296   1.154  0.00  0.00    -0.312 N 
ATOM     22  H   UNL     1      -0.775  -2.370   1.383  0.00  0.00    +0.149 HD
BRANCH  21  23
ATOM     23  C   UNL     1      -1.660  -4.298   1.282  0.00  0.00    +0.123 C 
BRANCH  23  24
ATOM     24  C   UNL     1      -2.936  -3.626   1.793  0.00  0.00    +0.128 C 
BRANCH  24  25
ATOM     25  N   UNL     1      -3.998  -4.627   1.921  0.00  0.00    -0.283 N 
ATOM     26  C   UNL     1      -4.950  -4.999   0.865  0.00  0.00    +0.128 C 
ATOM     27  C   UNL     1      -5.830  -6.079   1.524  0.00  0.00    +0.124 C 
ATOM     28  N   UNL     1      -5.280  -6.200   2.882  0.00  0.00    -0.298 N 
ATOM     29  C   UNL     1      -4.251  -5.354   3.018  0.00  0.00    +0.302 C 
ATOM     30  O   UNL     1      -3.607  -5.252   4.044  0.00  0.00    -0.253 OA
ATOM     31  H   UNL     1      -5.608  -6.801   3.570  0.00  0.00    +0.150 HD
ENDBRANCH  24  25
ENDBRANCH  23  24
ENDBRANCH  21  23
ENDBRANCH   2  15
BRANCH   5  32
ATOM     32  C   UNL     1       7.316  -0.816  -0.045  0.00  0.00    +0.055 C 
ATOM     33  C   UNL     1       8.230  -2.028  -0.231  0.00  0.00    +0.012 C 
ATOM     34  C   UNL     1       8.068  -1.013  -1.363  0.00  0.00    +0.012 C 
ENDBRANCH   5  32
TORSDOF 6
