REMARK  Name = CHEMBL585921
REMARK  5 active torsions:
REMARK  status: ('A' for Active; 'I' for Inactive)
REMARK    1  A    between atoms: C_1  and  C_2
REMARK    2  A    between atoms: C_7  and  N_8
REMARK    3  A    between atoms: C_10  and  C_15
REMARK    4  A    between atoms: C_28  and  N_29
REMARK    5  A    between atoms: N_29  and  C_30
REMARK                            x       y       z     vdW  Elec       q    Type
REMARK                         _______ _______ _______ _____ _____    ______ ____
ROOT
ATOM      1  C   UNL     1      -2.133   0.366   0.785  0.00  0.00    +0.045 C 
ATOM      2  C   UNL     1      -0.910  -0.332   0.248  0.00  0.00    -0.029 A 
ATOM      3  C   UNL     1      -0.915  -0.827  -1.052  0.00  0.00    +0.006 A 
ATOM      4  C   UNL     1       0.174  -1.464  -1.569  0.00  0.00    +0.012 A 
ATOM      5  C   UNL     1       1.323  -1.627  -0.784  0.00  0.00    +0.024 A 
ATOM      6  C   UNL     1       1.341  -1.128   0.542  0.00  0.00    +0.008 A 
ATOM      7  C   UNL     1       0.205  -0.469   1.050  0.00  0.00    +0.043 A 
ATOM      8  C   UNL     1       2.509  -1.305   1.307  0.00  0.00    +0.030 A 
ATOM      9  C   UNL     1       3.570  -1.947   0.746  0.00  0.00    +0.113 A 
ATOM     10  N   UNL     1       3.535  -2.408  -0.497  0.00  0.00    -0.240 NA
ATOM     11  C   UNL     1       2.477  -2.279  -1.274  0.00  0.00    +0.131 A 
ENDROOT
BRANCH   7  12
ATOM     12  N   UNL     1       0.205   0.035   2.351  0.00  0.00    -0.298 N 
ATOM     13  C   UNL     1       0.364   1.395   2.568  0.00  0.00    +0.132 A 
ATOM     14  C   UNL     1       0.537   1.878   3.874  0.00  0.00    +0.043 A 
ATOM     15  C   UNL     1       0.696   3.252   4.069  0.00  0.00    +0.015 A 
ATOM     16  C   UNL     1       0.675   4.081   2.959  0.00  0.00    +0.020 A 
ATOM     17  C   UNL     1       0.500   3.532   1.703  0.00  0.00    +0.113 A 
ATOM     18  N   UNL     1       0.357   2.230   1.541  0.00  0.00    -0.240 NA
ATOM     19  H   UNL     1       0.093  -0.566   3.104  0.00  0.00    +0.154 HD
BRANCH  14  20
ATOM     20  C   UNL     1       0.551   0.949   5.025  0.00  0.00    +0.105 A 
ATOM     21  C   UNL     1       0.875   1.405   6.316  0.00  0.00    +0.134 A 
ATOM     22  C   UNL     1       0.871   0.471   7.370  0.00  0.00    +0.161 A 
ATOM     23  N   UNL     1       1.216   1.173   8.497  0.00  0.00    -0.329 N 
ATOM     24  H   UNL     1       1.302   0.813   9.394  0.00  0.00    +0.168 HD
ATOM     25  C   UNL     1       1.417   2.469   8.126  0.00  0.00    +0.198 A 
ATOM     26  N   UNL     1       1.216   2.602   6.846  0.00  0.00    -0.232 NA
ATOM     27  N   UNL     1       0.564  -0.794   7.110  0.00  0.00    -0.216 NA
ATOM     28  C   UNL     1       0.267  -1.176   5.885  0.00  0.00    +0.224 A 
ATOM     29  N   UNL     1       0.251  -0.339   4.865  0.00  0.00    -0.233 NA
ENDBRANCH  14  20
ENDBRANCH   7  12
BRANCH  11  30
ATOM     30  N   UNL     1       2.496  -2.781  -2.566  0.00  0.00    -0.299 N 
ATOM     31  H   UNL     1       1.742  -2.630  -3.156  0.00  0.00    +0.154 HD
BRANCH  30  32
ATOM     32  C   UNL     1       3.604  -3.505  -3.017  0.00  0.00    +0.032 A 
ATOM     33  C   UNL     1       4.330  -4.291  -2.131  0.00  0.00    +0.025 A 
ATOM     34  C   UNL     1       5.423  -5.005  -2.580  0.00  0.00    +0.022 A 
ATOM     35  C   UNL     1       5.795  -4.939  -3.912  0.00  0.00    +0.041 A 
ATOM     36  C   UNL     1       5.074  -4.157  -4.796  0.00  0.00    +0.022 A 
ATOM     37  C   UNL     1       3.976  -3.445  -4.354  0.00  0.00    +0.025 A 
ATOM     38 CL   UNL     1       7.170  -5.838  -4.472  0.00  0.00    -0.084 Cl
ENDBRANCH  30  32
ENDBRANCH  11  30
TORSDOF 4
