REMARK  Name = CHEMBL410295
REMARK  6 active torsions:
REMARK  status: ('A' for Active; 'I' for Inactive)
REMARK    1  A    between atoms: C_1  and  C_2
REMARK    2  A    between atoms: C_6  and  C_40
REMARK    3  A    between atoms: C_7  and  N_8
REMARK    4  A    between atoms: N_26  and  C_27
REMARK    5  A    between atoms: C_30  and  N_33
REMARK    6  A    between atoms: N_36  and  C_39
REMARK                            x       y       z     vdW  Elec       q    Type
REMARK                         _______ _______ _______ _____ _____    ______ ____
ROOT
ATOM      1  N   UNL     1       0.019  -0.091   2.464  0.00  0.00    -0.245 N 
ATOM      2  C   UNL     1       1.175   0.065   3.141  0.00  0.00    +0.271 A 
ATOM      3  O   UNL     1       2.205  -0.440   2.735  0.00  0.00    -0.266 OA
ATOM      4  C   UNL     1       1.165   0.855   4.378  0.00  0.00    +0.101 A 
ATOM      5  C   UNL     1       2.316   1.063   5.137  0.00  0.00    +0.131 A 
ATOM      6  N   UNL     1       2.220   1.788   6.239  0.00  0.00    -0.222 NA
ATOM      7  C   UNL     1       1.059   2.308   6.620  0.00  0.00    +0.221 A 
ATOM      8  N   UNL     1      -0.059   2.134   5.928  0.00  0.00    -0.196 NA
ATOM      9  C   UNL     1      -0.050   1.421   4.812  0.00  0.00    +0.158 A 
ATOM     10  N   UNL     1      -1.195   1.219   4.065  0.00  0.00    -0.261 N 
ATOM     11  C   UNL     1      -1.158   0.482   2.912  0.00  0.00    +0.225 A 
ATOM     12  N   UNL     1      -2.362   0.441   2.383  0.00  0.00    -0.211 NA
ATOM     13  C   UNL     1      -3.231   1.143   3.153  0.00  0.00    +0.092 A 
ATOM     14  C   UNL     1      -2.503   1.646   4.244  0.00  0.00    +0.077 A 
ATOM     15  C   UNL     1      -3.140   2.411   5.209  0.00  0.00    +0.028 A 
ATOM     16  C   UNL     1      -4.492   2.665   5.101  0.00  0.00    +0.002 A 
ATOM     17  C   UNL     1      -5.219   2.159   4.033  0.00  0.00    +0.002 A 
ATOM     18  C   UNL     1      -4.598   1.416   3.055  0.00  0.00    +0.030 A 
ATOM     19  N   UNL     1       1.014   3.057   7.779  0.00  0.00    -0.284 N 
ATOM     20  H   UNL     1       0.163   3.377   8.117  0.00  0.00    +0.155 HD
ENDROOT
BRANCH   1  27
ATOM     21  C   UNL     1       0.519   1.262   0.009  0.00  0.00    +0.046 C 
ATOM     22  C   UNL     1       0.251  -0.221   0.062  0.00  0.00    -0.026 A 
ATOM     23  C   UNL     1       0.248  -0.964  -1.102  0.00  0.00    +0.005 A 
ATOM     24  C   UNL     1       0.002  -2.324  -1.054  0.00  0.00    +0.001 A 
ATOM     25  C   UNL     1      -0.242  -2.944   0.158  0.00  0.00    +0.005 A 
ATOM     26  C   UNL     1      -0.242  -2.206   1.325  0.00  0.00    -0.026 A 
ATOM     27  C   UNL     1       0.012  -0.841   1.281  0.00  0.00    +0.059 A 
ATOM     28  C   UNL     1      -0.509  -2.881   2.645  0.00  0.00    +0.046 C 
ENDBRANCH   1  27
BRANCH  19  29
ATOM     29  C   UNL     1       2.198   3.355   8.466  0.00  0.00    +0.034 A 
ATOM     30  C   UNL     1       3.352   3.666   7.760  0.00  0.00    +0.025 A 
ATOM     31  C   UNL     1       4.518   3.960   8.437  0.00  0.00    +0.025 A 
ATOM     32  C   UNL     1       4.537   3.946   9.826  0.00  0.00    +0.030 A 
ATOM     33  C   UNL     1       3.383   3.635  10.533  0.00  0.00    +0.025 A 
ATOM     34  C   UNL     1       2.215   3.346   9.855  0.00  0.00    +0.025 A 
BRANCH  32  35
ATOM     35  N   UNL     1       5.719   4.243  10.513  0.00  0.00    -0.327 N 
ATOM     36  C   UNL     1       5.793   4.120  11.976  0.00  0.00    +0.120 C 
ATOM     37  C   UNL     1       7.021   3.274  12.332  0.00  0.00    +0.103 C 
ATOM     38  N   UNL     1       8.212   3.854  11.696  0.00  0.00    -0.302 NA
ATOM     39  C   UNL     1       8.104   3.821  10.232  0.00  0.00    +0.103 C 
ATOM     40  C   UNL     1       6.922   4.683   9.790  0.00  0.00    +0.120 C 
ATOM     41  C   UNL     1       9.434   3.176  12.149  0.00  0.00    +0.105 C 
ENDBRANCH  32  35
ENDBRANCH  19  29
TORSDOF 3
