REMARK  Name = CHEMBL254965
REMARK  9 active torsions:
REMARK  status: ('A' for Active; 'I' for Inactive)
REMARK    1  A    between atoms: C_3  and  C_18
REMARK    2  A    between atoms: C_5  and  N_7
REMARK    3  A    between atoms: C_8  and  C_10
REMARK    4  A    between atoms: C_10  and  C_11
REMARK    5  A    between atoms: C_19  and  C_28
REMARK    6  A    between atoms: C_22  and  C_24
REMARK    7  A    between atoms: N_34  and  C_35
REMARK    8  A    between atoms: C_35  and  C_36
REMARK    9  A    between atoms: C_36  and  N_37
REMARK                            x       y       z     vdW  Elec       q    Type
REMARK                         _______ _______ _______ _____ _____    ______ ____
ROOT
ATOM      1  C   UNL     1       3.634   2.169  -0.404  0.00  0.00    +0.099 A 
ATOM      2  C   UNL     1       3.766   3.377  -1.068  0.00  0.00    +0.093 A 
ATOM      3  N   UNL     1       5.103   3.703  -1.007  0.00  0.00    -0.333 N 
ATOM      4  H   UNL     1       5.518   4.495  -1.382  0.00  0.00    +0.167 HD
ATOM      5  C   UNL     1       5.727   2.717  -0.330  0.00  0.00    +0.213 A 
ATOM      6  N   UNL     1       4.857   1.815   0.031  0.00  0.00    -0.223 NA
ENDROOT
BRANCH   2   7
ATOM      7  C   UNL     1       2.692   4.156  -1.711  0.00  0.00    +0.094 A 
ATOM      8  C   UNL     1       2.825   5.540  -1.888  0.00  0.00    +0.050 A 
ATOM      9  C   UNL     1       1.792   6.226  -2.496  0.00  0.00    +0.116 A 
ATOM     10  N   UNL     1       0.716   5.563  -2.892  0.00  0.00    -0.223 NA
ATOM     11  C   UNL     1       0.616   4.253  -2.713  0.00  0.00    +0.216 A 
ATOM     12  N   UNL     1       1.582   3.554  -2.140  0.00  0.00    -0.213 NA
ATOM     13  N   UNL     1      -0.527   3.600  -3.142  0.00  0.00    -0.312 N 
ATOM     14  H   UNL     1      -0.613   2.642  -3.017  0.00  0.00    +0.149 HD
BRANCH  13  15
ATOM     15  C   UNL     1      -1.605   4.355  -3.784  0.00  0.00    +0.123 C 
BRANCH  15  16
ATOM     16  C   UNL     1      -2.742   3.402  -4.159  0.00  0.00    +0.128 C 
BRANCH  16  17
ATOM     17  N   UNL     1      -3.821   4.158  -4.801  0.00  0.00    -0.283 N 
ATOM     18  C   UNL     1      -4.952   4.787  -4.104  0.00  0.00    +0.128 C 
ATOM     19  C   UNL     1      -5.770   5.436  -5.237  0.00  0.00    +0.124 C 
ATOM     20  N   UNL     1      -5.012   5.104  -6.453  0.00  0.00    -0.298 N 
ATOM     21  C   UNL     1      -3.930   4.390  -6.115  0.00  0.00    +0.302 C 
ATOM     22  O   UNL     1      -3.122   3.986  -6.929  0.00  0.00    -0.253 OA
ATOM     23  H   UNL     1      -5.254   5.364  -7.355  0.00  0.00    +0.150 HD
ENDBRANCH  16  17
ENDBRANCH  15  16
ENDBRANCH  13  15
ENDBRANCH   2   7
BRANCH   1  26
ATOM     24  C   UNL     1       0.004   1.380   0.175  0.00  0.00    +0.002 A 
ATOM     25  C   UNL     1       1.174   2.089  -0.011  0.00  0.00    +0.010 A 
ATOM     26  C   UNL     1       2.378   1.410  -0.203  0.00  0.00    +0.004 A 
ATOM     27  C   UNL     1       2.394   0.017  -0.206  0.00  0.00    +0.033 A 
ATOM     28  C   UNL     1       1.215  -0.687  -0.018  0.00  0.00    +0.034 A 
ATOM     29  C   UNL     1       0.021  -0.002   0.172  0.00  0.00    +0.023 A 
BRANCH  28  30
ATOM     30  N   UNL     1       1.227  -2.086  -0.021  0.00  0.00    -0.285 N 
ATOM     31  C   UNL     1       2.296  -2.752   0.458  0.00  0.00    +0.222 C 
ATOM     32  O   UNL     1       3.207  -2.143   0.978  0.00  0.00    -0.275 OA
ATOM     33  H   UNL     1       0.465  -2.577  -0.368  0.00  0.00    +0.155 HD
BRANCH  31  34
ATOM     34  C   UNL     1       2.361  -4.253   0.346  0.00  0.00    +0.131 C 
BRANCH  34  35
ATOM     35  C   UNL     1       3.650  -4.747   0.953  0.00  0.00    -0.039 A 
ATOM     36  C   UNL     1       4.781  -4.866   0.168  0.00  0.00    +0.005 A 
ATOM     37  C   UNL     1       5.963  -5.319   0.723  0.00  0.00    +0.020 A 
ATOM     38  C   UNL     1       6.013  -5.653   2.065  0.00  0.00    +0.041 A 
ATOM     39  C   UNL     1       4.880  -5.534   2.850  0.00  0.00    +0.020 A 
ATOM     40  C   UNL     1       3.700  -5.075   2.295  0.00  0.00    +0.005 A 
ATOM     41 CL   UNL     1       7.497  -6.222   2.763  0.00  0.00    -0.084 Cl
ENDBRANCH  34  35
ENDBRANCH  31  34
ENDBRANCH  28  30
ENDBRANCH   1  26
BRANCH   5  42
ATOM     42  C   UNL     1       7.203   2.670  -0.030  0.00  0.00    +0.450 C 
ATOM     43  F   UNL     1       7.555   1.377   0.374  0.00  0.00    -0.163 F 
ATOM     44  F   UNL     1       7.924   3.011  -1.179  0.00  0.00    -0.163 F 
ATOM     45  F   UNL     1       7.500   3.575   0.994  0.00  0.00    -0.163 F 
ENDBRANCH   5  42
TORSDOF 9
