REMARK  Name = CHEMBL257986
REMARK  10 active torsions:
REMARK  status: ('A' for Active; 'I' for Inactive)
REMARK    1  A    between atoms: C_1  and  C_2
REMARK    2  A    between atoms: C_2  and  C_3
REMARK    3  A    between atoms: C_2  and  C_4
REMARK    4  A    between atoms: C_2  and  N_5
REMARK    5  A    between atoms: N_8  and  C_9
REMARK    6  A    between atoms: C_9  and  C_10
REMARK    7  A    between atoms: C_10  and  N_11
REMARK    8  A    between atoms: C_16  and  C_18
REMARK    9  A    between atoms: C_19  and  C_27
REMARK   10  A    between atoms: C_21  and  C_24
REMARK                            x       y       z     vdW  Elec       q    Type
REMARK                         _______ _______ _______ _____ _____    ______ ____
ROOT
ATOM      1  N   UNL     1       5.865  -0.438  -4.339  0.00  0.00    -0.312 N 
ATOM      2  C   UNL     1       6.513  -0.884  -5.478  0.00  0.00    +0.216 A 
ATOM      3  N   UNL     1       5.853  -1.645  -6.340  0.00  0.00    -0.223 NA
ATOM      4  C   UNL     1       6.436  -2.093  -7.442  0.00  0.00    +0.116 A 
ATOM      5  C   UNL     1       7.753  -1.760  -7.694  0.00  0.00    +0.050 A 
ATOM      6  C   UNL     1       8.427  -0.954  -6.766  0.00  0.00    +0.094 A 
ATOM      7  N   UNL     1       7.773  -0.536  -5.680  0.00  0.00    -0.213 NA
ATOM      8  H   UNL     1       6.335   0.122  -3.702  0.00  0.00    +0.149 HD
ENDROOT
BRANCH   6   9
ATOM      9  C   UNL     1       9.832  -0.571  -6.989  0.00  0.00    +0.091 A 
ATOM     10  C   UNL     1      10.482   0.540  -6.479  0.00  0.00    +0.075 A 
ATOM     11  N   UNL     1      11.749   0.504  -6.929  0.00  0.00    -0.343 N 
ATOM     12  C   UNL     1      11.918  -0.551  -7.677  0.00  0.00    +0.088 A 
ATOM     13  N   UNL     1      10.766  -1.250  -7.741  0.00  0.00    -0.341 N 
ATOM     14  H   UNL     1      10.622  -2.076  -8.227  0.00  0.00    +0.167 HD
ATOM     15  H   UNL     1      12.433   1.163  -6.728  0.00  0.00    +0.167 HD
BRANCH  10  16
ATOM     16  C   UNL     1       9.891   1.577  -5.602  0.00  0.00    +0.019 A 
ATOM     17  C   UNL     1       9.758   2.888  -6.059  0.00  0.00    +0.011 A 
ATOM     18  C   UNL     1       9.206   3.849  -5.237  0.00  0.00    +0.001 A 
ATOM     19  C   UNL     1       8.785   3.515  -3.962  0.00  0.00    +0.001 A 
ATOM     20  C   UNL     1       8.915   2.218  -3.502  0.00  0.00    +0.020 A 
ATOM     21  C   UNL     1       9.461   1.245  -4.317  0.00  0.00    +0.050 A 
ATOM     22 CL   UNL     1       9.616  -0.386  -3.741  0.00  0.00    -0.083 Cl
ENDBRANCH  10  16
BRANCH  12  23
ATOM     23  C   UNL     1      13.205  -0.933  -8.361  0.00  0.00    +0.053 C 
ATOM     24  C   UNL     1      13.103  -1.633  -9.719  0.00  0.00    +0.012 C 
ATOM     25  C   UNL     1      13.526  -2.425  -8.480  0.00  0.00    +0.012 C 
ENDBRANCH  12  23
ENDBRANCH   6   9
BRANCH   1  26
ATOM     26  C   UNL     1       4.470  -0.812  -4.096  0.00  0.00    +0.123 C 
BRANCH  26  27
ATOM     27  C   UNL     1       3.998  -0.193  -2.779  0.00  0.00    +0.124 C 
BRANCH  27  31
ATOM     28  N   UNL     1       0.688  -0.476  -1.203  0.00  0.00    -0.295 N 
ATOM     29  C   UNL     1       1.972  -0.132  -1.427  0.00  0.00    +0.300 C 
ATOM     30  O   UNL     1       2.561   0.570  -0.628  0.00  0.00    -0.253 OA
ATOM     31  N   UNL     1       2.602  -0.567  -2.536  0.00  0.00    -0.298 N 
ATOM     32  H   UNL     1       0.218  -1.037  -1.840  0.00  0.00    +0.151 HD
ATOM     33  H   UNL     1       2.132  -1.127  -3.173  0.00  0.00    +0.150 HD
BRANCH  28  35
ATOM     34  C   UNL     1      -0.019   1.526   0.010  0.00  0.00    +0.031 C 
ATOM     35  C   UNL     1       0.002  -0.004   0.002  0.00  0.00    +0.028 C 
ATOM     36  C   UNL     1       0.742  -0.511   1.242  0.00  0.00    +0.031 C 
ATOM     37  C   UNL     1      -1.433  -0.534   0.013  0.00  0.00    +0.031 C 
ENDBRANCH  28  35
ENDBRANCH  27  31
ENDBRANCH  26  27
ENDBRANCH   1  26
TORSDOF 7
