REMARK  Name = CHEMBL372543
REMARK  4 active torsions:
REMARK  status: ('A' for Active; 'I' for Inactive)
REMARK    1  A    between atoms: C_4  and  C_7
REMARK    2  A    between atoms: C_10  and  C_19
REMARK    3  A    between atoms: C_11  and  C_13
REMARK    4  A    between atoms: N_28  and  O_29
REMARK                            x       y       z     vdW  Elec       q    Type
REMARK                         _______ _______ _______ _____ _____    ______ ____
ROOT
ATOM      1  C   UNL     1       3.702  -0.689   0.082  0.00  0.00    +0.139 A 
ATOM      2  N   UNL     1       3.856  -2.045   0.057  0.00  0.00    -0.337 N 
ATOM      3  H   UNL     1       3.152  -2.706   0.147  0.00  0.00    +0.167 HD
ATOM      4  C   UNL     1       5.196  -2.298  -0.122  0.00  0.00    +0.074 A 
ATOM      5  C   UNL     1       5.821  -1.062  -0.200  0.00  0.00    +0.097 A 
ATOM      6  N   UNL     1       4.874  -0.118  -0.077  0.00  0.00    -0.227 NA
ENDROOT
BRANCH   4   7
ATOM      7  C   UNL     1       5.841  -3.621  -0.212  0.00  0.00    +0.001 A 
ATOM      8  C   UNL     1       6.991  -3.892   0.537  0.00  0.00    +0.010 A 
ATOM      9  C   UNL     1       7.586  -5.117   0.452  0.00  0.00    +0.011 A 
ATOM     10  C   UNL     1       7.049  -6.109  -0.385  0.00  0.00    +0.003 A 
ATOM     11  C   UNL     1       5.902  -5.835  -1.130  0.00  0.00    -0.037 A 
ATOM     12  C   UNL     1       5.302  -4.608  -1.040  0.00  0.00    +0.014 A 
ATOM     13  C   UNL     1       5.524  -7.051  -1.943  0.00  0.00    +0.042 C 
ATOM     14  C   UNL     1       6.570  -8.127  -1.623  0.00  0.00    +0.064 C 
ATOM     15  C   UNL     1       7.514  -7.487  -0.634  0.00  0.00    +0.088 C 
ATOM     16  N   UNL     1       8.550  -8.048  -0.098  0.00  0.00    -0.092 NA
BRANCH  16  17
ATOM     17  O   UNL     1       9.351  -7.327   0.819  0.00  0.00    -0.409 OA
ATOM     18  H   UNL     1      10.102  -7.829   1.165  0.00  0.00    +0.328 HD
ENDBRANCH  16  17
ENDBRANCH   4   7
BRANCH   1  22
ATOM     19  C   UNL     1       0.014   1.360   0.577  0.00  0.00    +0.000 A 
ATOM     20  C   UNL     1       1.185   2.079   0.419  0.00  0.00    +0.001 A 
ATOM     21  C   UNL     1       2.387   1.420   0.258  0.00  0.00    +0.011 A 
ATOM     22  C   UNL     1       2.418   0.024   0.255  0.00  0.00    +0.017 A 
ATOM     23  C   UNL     1       1.233  -0.695   0.414  0.00  0.00    +0.011 A 
ATOM     24  C   UNL     1       0.038  -0.024   0.574  0.00  0.00    +0.001 A 
ENDBRANCH   1  22
BRANCH   5  25
ATOM     25  C   UNL     1       7.270  -0.826  -0.390  0.00  0.00    +0.005 A 
ATOM     26  C   UNL     1       8.008  -1.587  -1.303  0.00  0.00    +0.030 A 
ATOM     27  C   UNL     1       9.356  -1.334  -1.449  0.00  0.00    +0.111 A 
ATOM     28  N   UNL     1       9.948  -0.390  -0.742  0.00  0.00    -0.263 NA
ATOM     29  C   UNL     1       9.289   0.350   0.129  0.00  0.00    +0.111 A 
ATOM     30  C   UNL     1       7.938   0.168   0.334  0.00  0.00    +0.030 A 
ENDBRANCH   5  25
TORSDOF 4
