REMARK  Name = CHEMBL1080438
REMARK  5 active torsions:
REMARK  status: ('A' for Active; 'I' for Inactive)
REMARK    1  A    between atoms: C_3  and  C_11
REMARK    2  A    between atoms: C_5  and  C_7
REMARK    3  A    between atoms: N_13  and  C_14
REMARK    4  A    between atoms: C_18  and  C_20
REMARK    5  A    between atoms: C_28  and  C_29
REMARK                            x       y       z     vdW  Elec       q    Type
REMARK                         _______ _______ _______ _____ _____    ______ ____
ROOT
ATOM      1  C   UNL     1       4.816   4.266   0.068  0.00  0.00    +0.034 A 
ATOM      2  C   UNL     1       6.054   3.634   0.041  0.00  0.00    +0.026 A 
ATOM      3  C   UNL     1       7.217   4.376   0.122  0.00  0.00    +0.041 A 
ATOM      4  C   UNL     1       7.157   5.753   0.231  0.00  0.00    +0.133 A 
ATOM      5  C   UNL     1       5.916   6.397   0.259  0.00  0.00    +0.037 A 
ATOM      6  C   UNL     1       4.743   5.645   0.171  0.00  0.00    +0.036 A 
ATOM      7  F   UNL     1       8.296   6.475   0.311  0.00  0.00    -0.205 F 
ENDROOT
BRANCH   5   8
ATOM      8  C   UNL     1       5.847   7.867   0.375  0.00  0.00    +0.079 A 
ATOM      9  C   UNL     1       5.490   8.462   1.568  0.00  0.00    +0.048 A 
ATOM     10  C   UNL     1       5.434   9.856   1.644  0.00  0.00    +0.115 A 
ATOM     11  N   UNL     1       5.718  10.592   0.592  0.00  0.00    -0.236 NA
ATOM     12  C   UNL     1       6.065  10.034  -0.572  0.00  0.00    +0.164 A 
ATOM     13  N   UNL     1       6.142   8.670  -0.702  0.00  0.00    -0.213 N 
ATOM     14  N   UNL     1       6.532   8.385  -2.014  0.00  0.00    -0.172 NA
ATOM     15  C   UNL     1       6.696   9.510  -2.669  0.00  0.00    +0.145 A 
ATOM     16  C   UNL     1       6.408  10.577  -1.815  0.00  0.00    +0.049 A 
BRANCH  16  17
ATOM     17  C   UNL     1       6.471  12.020  -2.158  0.00  0.00    +0.024 A 
ATOM     18  C   UNL     1       7.506  12.657  -2.776  0.00  0.00    +0.113 A 
ATOM     19  N   UNL     1       7.167  13.959  -2.903  0.00  0.00    -0.284 N 
ATOM     20  H   UNL     1       7.712  14.652  -3.307  0.00  0.00    +0.188 HD
ATOM     21  N   UNL     1       5.893  14.134  -2.350  0.00  0.00    -0.182 NA
ATOM     22  C   UNL     1       5.469  12.979  -1.908  0.00  0.00    +0.142 A 
ENDBRANCH  16  17
ENDBRANCH   5   8
BRANCH   1  25
ATOM     23  C   UNL     1       3.582   2.292   0.565  0.00  0.00    +0.248 C 
ATOM     24  O   UNL     1       4.573   1.818   1.087  0.00  0.00    -0.270 OA
ATOM     25  N   UNL     1       3.642   3.508  -0.015  0.00  0.00    -0.281 N 
ATOM     26  H   UNL     1       2.872   3.857  -0.489  0.00  0.00    +0.155 HD
BRANCH  23  29
ATOM     27  C   UNL     1      -0.009   1.366  -0.027  0.00  0.00    +0.001 A 
ATOM     28  C   UNL     1       1.173   2.077  -0.032  0.00  0.00    +0.013 A 
ATOM     29  C   UNL     1       2.312   1.536   0.566  0.00  0.00    +0.038 A 
ATOM     30  C   UNL     1       2.247   0.277   1.165  0.00  0.00    +0.025 A 
ATOM     31  C   UNL     1       1.059  -0.424   1.163  0.00  0.00    +0.056 A 
ATOM     32  C   UNL     1      -0.067   0.118   0.568  0.00  0.00    +0.012 A 
BRANCH  31  33
ATOM     33  C   UNL     1       0.987  -1.784   1.809  0.00  0.00    +0.417 C 
ATOM     34  F   UNL     1       0.630  -1.643   3.154  0.00  0.00    -0.166 F 
ATOM     35  F   UNL     1       0.028  -2.562   1.152  0.00  0.00    -0.166 F 
ATOM     36  F   UNL     1       2.235  -2.409   1.720  0.00  0.00    -0.166 F 
ENDBRANCH  31  33
ENDBRANCH  23  29
ENDBRANCH   1  25
TORSDOF 5
