REMARK  Name = CHEMBL370353
REMARK  4 active torsions:
REMARK  status: ('A' for Active; 'I' for Inactive)
REMARK    1  A    between atoms: C_4  and  C_7
REMARK    2  A    between atoms: C_10  and  C_19
REMARK    3  A    between atoms: C_11  and  C_13
REMARK    4  A    between atoms: C_23  and  O_25
REMARK                            x       y       z     vdW  Elec       q    Type
REMARK                         _______ _______ _______ _____ _____    ______ ____
ROOT
ATOM      1  C   UNL     1       3.696  -0.685  -0.037  0.00  0.00    +0.139 A 
ATOM      2  N   UNL     1       4.881  -0.118  -0.045  0.00  0.00    -0.227 NA
ATOM      3  H   UNL     1       3.134  -2.698  -0.032  0.00  0.00    +0.167 HD
ATOM      4  C   UNL     1       5.832  -1.065  -0.060  0.00  0.00    +0.099 A 
ATOM      5  C   UNL     1       5.199  -2.298  -0.061  0.00  0.00    +0.093 A 
ATOM      6  N   UNL     1       3.846  -2.039  -0.041  0.00  0.00    -0.336 N 
ENDROOT
BRANCH   4   7
ATOM      7  C   UNL     1       7.295  -0.834  -0.073  0.00  0.00    +0.006 A 
ATOM      8  C   UNL     1       8.148  -1.708   0.600  0.00  0.00    +0.012 A 
ATOM      9  C   UNL     1       9.510  -1.491   0.586  0.00  0.00    +0.024 A 
ATOM     10  C   UNL     1      10.035  -0.407  -0.095  0.00  0.00    +0.082 A 
ATOM     11  C   UNL     1       9.193   0.469  -0.768  0.00  0.00    +0.136 A 
ATOM     12  C   UNL     1       7.824   0.255  -0.764  0.00  0.00    +0.057 A 
ATOM     13 CL   UNL     1      11.750  -0.140  -0.108  0.00  0.00    -0.080 Cl
BRANCH  11  14
ATOM     14  O   UNL     1       9.712   1.534  -1.435  0.00  0.00    -0.505 OA
ATOM     15  H   UNL     1       9.933   1.349  -2.358  0.00  0.00    +0.292 HD
ENDBRANCH  11  14
ENDBRANCH   4   7
BRANCH   1  19
ATOM     16  C   UNL     1      -0.017   1.379   0.010  0.00  0.00    +0.000 A 
ATOM     17  C   UNL     1       1.168   2.093   0.002  0.00  0.00    +0.001 A 
ATOM     18  C   UNL     1       2.377   1.429  -0.013  0.00  0.00    +0.011 A 
ATOM     19  C   UNL     1       2.403   0.034  -0.021  0.00  0.00    +0.017 A 
ATOM     20  C   UNL     1       1.204  -0.681  -0.013  0.00  0.00    +0.011 A 
ATOM     21  C   UNL     1       0.002  -0.004   0.002  0.00  0.00    +0.001 A 
ENDBRANCH   1  19
BRANCH   5  22
ATOM     22  C   UNL     1       5.845  -3.622  -0.075  0.00  0.00    +0.092 A 
ATOM     23  C   UNL     1       5.177  -4.747   0.430  0.00  0.00    +0.049 A 
ATOM     24  C   UNL     1       5.828  -5.965   0.393  0.00  0.00    +0.114 A 
ATOM     25  N   UNL     1       7.051  -6.030  -0.114  0.00  0.00    -0.244 NA
ATOM     26  C   UNL     1       7.654  -4.955  -0.582  0.00  0.00    +0.221 A 
ATOM     27  N   UNL     1       7.074  -3.773  -0.573  0.00  0.00    -0.234 NA
ENDBRANCH   5  22
TORSDOF 4
