REMARK  Name = CHEMBL381250
REMARK  4 active torsions:
REMARK  status: ('A' for Active; 'I' for Inactive)
REMARK    1  A    between atoms: C_3  and  C_7
REMARK    2  A    between atoms: C_10  and  C_19
REMARK    3  A    between atoms: C_11  and  C_13
REMARK    4  A    between atoms: C_23  and  O_25
REMARK                            x       y       z     vdW  Elec       q    Type
REMARK                         _______ _______ _______ _____ _____    ______ ____
ROOT
ATOM      1  C   UNL     1       3.680   2.029  -0.023  0.00  0.00    +0.141 A 
ATOM      2  N   UNL     1       3.854   3.331  -0.017  0.00  0.00    -0.227 NA
ATOM      3  H   UNL     1       5.061   0.458  -0.034  0.00  0.00    +0.167 HD
ATOM      4  C   UNL     1       5.167   3.609  -0.029  0.00  0.00    +0.097 A 
ATOM      5  C   UNL     1       5.853   2.406  -0.042  0.00  0.00    +0.074 A 
ATOM      6  N   UNL     1       4.898   1.415  -0.032  0.00  0.00    -0.337 N 
ENDROOT
BRANCH   4   7
ATOM      7  C   UNL     1       5.773   4.961  -0.028  0.00  0.00    +0.006 A 
ATOM      8  C   UNL     1       6.971   5.190   0.648  0.00  0.00    +0.012 A 
ATOM      9  C   UNL     1       7.534   6.450   0.647  0.00  0.00    +0.024 A 
ATOM     10  C   UNL     1       6.913   7.489  -0.023  0.00  0.00    +0.082 A 
ATOM     11  C   UNL     1       5.719   7.269  -0.699  0.00  0.00    +0.136 A 
ATOM     12  C   UNL     1       5.151   6.007  -0.709  0.00  0.00    +0.057 A 
ATOM     13 CL   UNL     1       7.627   9.071  -0.019  0.00  0.00    -0.080 Cl
BRANCH  11  14
ATOM     14  O   UNL     1       5.112   8.293  -1.355  0.00  0.00    -0.505 OA
ATOM     15  H   UNL     1       5.388   8.387  -2.277  0.00  0.00    +0.292 HD
ENDBRANCH  11  14
ENDBRANCH   4   7
BRANCH   1  18
ATOM     16  C   UNL     1      -0.017   1.379   0.010  0.00  0.00    +0.020 A 
ATOM     17  C   UNL     1       1.181   2.073   0.002  0.00  0.00    +0.014 A 
ATOM     18  C   UNL     1       2.373   1.339  -0.013  0.00  0.00    +0.035 A 
ATOM     19  C   UNL     1       2.306  -0.055  -0.020  0.00  0.00    +0.122 A 
ATOM     20  N   UNL     1       1.141  -0.670  -0.012  0.00  0.00    -0.263 NA
ATOM     21  C   UNL     1       0.002  -0.004   0.002  0.00  0.00    +0.111 A 
ENDBRANCH   1  18
BRANCH   5  22
ATOM     22  C   UNL     1       7.316   2.223  -0.059  0.00  0.00    +0.003 A 
ATOM     23  C   UNL     1       8.129   2.986  -0.909  0.00  0.00    +0.030 A 
ATOM     24  C   UNL     1       9.492   2.783  -0.891  0.00  0.00    +0.111 A 
ATOM     25  N   UNL     1      10.033   1.885  -0.088  0.00  0.00    -0.263 NA
ATOM     26  C   UNL     1       9.305   1.145   0.728  0.00  0.00    +0.111 A 
ATOM     27  C   UNL     1       7.935   1.286   0.780  0.00  0.00    +0.030 A 
ENDBRANCH   5  22
TORSDOF 4
