REMARK  Name = CHEMBL498468
REMARK  5 active torsions:
REMARK  status: ('A' for Active; 'I' for Inactive)
REMARK    1  A    between atoms: C_1  and  C_2
REMARK    2  A    between atoms: C_7  and  C_8
REMARK    3  A    between atoms: C_11  and  C_14
REMARK    4  A    between atoms: N_16  and  C_25
REMARK    5  A    between atoms: C_18  and  C_19
REMARK                            x       y       z     vdW  Elec       q    Type
REMARK                         _______ _______ _______ _____ _____    ______ ____
ROOT
ATOM      1  C   UNL     1       0.031  -0.392   2.550  0.00  0.00    +0.002 A 
ATOM      2  C   UNL     1       0.707   0.774   2.909  0.00  0.00    +0.011 A 
ATOM      3  C   UNL     1       0.714   1.190   4.222  0.00  0.00    +0.009 A 
ATOM      4  C   UNL     1       0.045   0.445   5.193  0.00  0.00    -0.014 A 
ATOM      5  C   UNL     1      -0.631  -0.721   4.834  0.00  0.00    +0.009 A 
ATOM      6  C   UNL     1      -0.642  -1.134   3.520  0.00  0.00    +0.011 A 
ENDROOT
BRANCH   1  13
ATOM      7  C   UNL     1      -0.018   1.503   0.010  0.00  0.00    +0.047 C 
ATOM      8  C   UNL     1       0.002  -0.004   0.002  0.00  0.00    -0.005 A 
ATOM      9  C   UNL     1       0.008  -0.793  -1.094  0.00  0.00    +0.108 A 
ATOM     10  N   UNL     1       0.028  -2.079  -0.682  0.00  0.00    -0.284 N 
ATOM     11  H   UNL     1       0.037  -2.861  -1.256  0.00  0.00    +0.188 HD
ATOM     12  N   UNL     1       0.034  -2.088   0.719  0.00  0.00    -0.174 NA
ATOM     13  C   UNL     1       0.024  -0.840   1.136  0.00  0.00    +0.095 A 
ENDBRANCH   1  13
BRANCH   4  14
ATOM     14  C   UNL     1       0.053   0.892   6.607  0.00  0.00    +0.027 A 
ATOM     15  C   UNL     1       1.150   1.252   7.332  0.00  0.00    +0.117 A 
ATOM     16  N   UNL     1       0.733   1.592   8.569  0.00  0.00    -0.273 N 
ATOM     17  N   UNL     1      -0.658   1.444   8.625  0.00  0.00    -0.171 NA
ATOM     18  C   UNL     1      -1.079   1.030   7.449  0.00  0.00    +0.100 A 
ATOM     19  C   UNL     1       1.591   2.041   9.669  0.00  0.00    +0.172 C 
BRANCH  18  20
ATOM     20  C   UNL     1      -2.486   0.752   7.074  0.00  0.00    +0.006 A 
ATOM     21  C   UNL     1      -2.949   1.012   5.780  0.00  0.00    +0.030 A 
ATOM     22  C   UNL     1      -4.266   0.738   5.473  0.00  0.00    +0.111 A 
ATOM     23  N   UNL     1      -5.083   0.238   6.381  0.00  0.00    -0.263 NA
ATOM     24  C   UNL     1      -4.686  -0.021   7.612  0.00  0.00    +0.111 A 
ATOM     25  C   UNL     1      -3.385   0.217   8.002  0.00  0.00    +0.030 A 
ENDBRANCH  18  20
ENDBRANCH   4  14
TORSDOF 3
