REMARK  Name = CHEMBL514806
REMARK  7 active torsions:
REMARK  status: ('A' for Active; 'I' for Inactive)
REMARK    1  A    between atoms: C_3  and  N_7
REMARK    2  A    between atoms: C_8  and  C_10
REMARK    3  A    between atoms: C_12  and  O_16
REMARK    4  A    between atoms: O_16  and  C_17
REMARK    5  A    between atoms: C_20  and  N_23
REMARK    6  A    between atoms: N_26  and  C_27
REMARK    7  A    between atoms: C_31  and  C_33
REMARK                            x       y       z     vdW  Elec       q    Type
REMARK                         _______ _______ _______ _____ _____    ______ ____
ROOT
ATOM      1  C   UNL     1      10.968   1.558  -0.257  0.00  0.00    +0.129 A 
ATOM      2  C   UNL     1      10.839   2.936  -0.167  0.00  0.00    +0.048 A 
ATOM      3  C   UNL     1      11.965   3.734  -0.119  0.00  0.00    +0.027 A 
ATOM      4  C   UNL     1      13.227   3.156  -0.161  0.00  0.00    +0.035 A 
ATOM      5  C   UNL     1      13.356   1.776  -0.251  0.00  0.00    +0.027 A 
ATOM      6  C   UNL     1      12.229   0.979  -0.293  0.00  0.00    +0.048 A 
ENDROOT
BRANCH   4   7
ATOM      7  N   UNL     1      14.370   3.965  -0.112  0.00  0.00    -0.269 N 
ATOM      8  C   UNL     1      14.367   5.092   0.627  0.00  0.00    +0.308 C 
ATOM      9  O   UNL     1      13.410   5.356   1.329  0.00  0.00    -0.252 OA
ATOM     10  N   UNL     1      15.425   5.926   0.588  0.00  0.00    -0.269 N 
ATOM     11  H   UNL     1      15.163   3.714  -0.611  0.00  0.00    +0.156 HD
ATOM     12  H   UNL     1      16.154   5.757  -0.029  0.00  0.00    +0.156 HD
BRANCH  10  13
ATOM     13  C   UNL     1      15.473   7.037   1.439  0.00  0.00    +0.035 A 
ATOM     14  C   UNL     1      14.941   6.955   2.719  0.00  0.00    +0.025 A 
ATOM     15  C   UNL     1      14.989   8.052   3.557  0.00  0.00    +0.022 A 
ATOM     16  C   UNL     1      15.566   9.232   3.121  0.00  0.00    +0.053 A 
ATOM     17  C   UNL     1      16.097   9.316   1.846  0.00  0.00    +0.075 A 
ATOM     18  C   UNL     1      16.057   8.219   1.007  0.00  0.00    +0.037 A 
ATOM     19 CL   UNL     1      15.624  10.609   4.176  0.00  0.00    -0.083 Cl
BRANCH  17  20
ATOM     20  C   UNL     1      16.725  10.602   1.375  0.00  0.00    +0.419 C 
ATOM     21  F   UNL     1      17.186  10.443   0.064  0.00  0.00    -0.166 F 
ATOM     22  F   UNL     1      15.773  11.627   1.413  0.00  0.00    -0.166 F 
ATOM     23  F   UNL     1      17.798  10.931   2.211  0.00  0.00    -0.166 F 
ENDBRANCH  17  20
ENDBRANCH  10  13
ENDBRANCH   4   7
BRANCH   1  24
ATOM     24  O   UNL     1       9.859   0.773  -0.305  0.00  0.00    -0.456 OA
BRANCH  24  27
ATOM     25  C   UNL     1       8.559   1.745  -3.571  0.00  0.00    +0.129 A 
ATOM     26  C   UNL     1       9.413   1.671  -2.475  0.00  0.00    +0.079 A 
ATOM     27  C   UNL     1       9.054   0.873  -1.393  0.00  0.00    +0.132 A 
ATOM     28  C   UNL     1       7.848   0.179  -1.454  0.00  0.00    +0.066 A 
ATOM     29  C   UNL     1       7.052   0.303  -2.578  0.00  0.00    +0.115 A 
ATOM     30  N   UNL     1       7.416   1.070  -3.584  0.00  0.00    -0.250 NA
BRANCH  25  32
ATOM     31  N   UNL     1       8.100   2.671  -5.793  0.00  0.00    -0.279 N 
ATOM     32  C   UNL     1       8.926   2.591  -4.731  0.00  0.00    +0.267 C 
ATOM     33  O   UNL     1       9.971   3.211  -4.725  0.00  0.00    -0.268 OA
ATOM     34  H   UNL     1       7.229   2.245  -5.764  0.00  0.00    +0.155 HD
BRANCH  31  37
ATOM     35  C   UNL     1      10.197   4.217  -8.384  0.00  0.00    +0.021 A 
ATOM     36  C   UNL     1       9.851   3.518  -7.239  0.00  0.00    +0.026 A 
ATOM     37  C   UNL     1       8.500   3.369  -6.938  0.00  0.00    +0.052 A 
ATOM     38  C   UNL     1       7.554   3.923  -7.791  0.00  0.00    +0.134 A 
ATOM     39  N   UNL     1       7.927   4.581  -8.871  0.00  0.00    -0.261 NA
ATOM     40  C   UNL     1       9.198   4.740  -9.184  0.00  0.00    +0.111 A 
ENDBRANCH  31  37
ENDBRANCH  25  32
ENDBRANCH  24  27
ENDBRANCH   1  24
TORSDOF 7
