REMARK  Name = CHEMBL395705
REMARK  7 active torsions:
REMARK  status: ('A' for Active; 'I' for Inactive)
REMARK    1  A    between atoms: C_4  and  C_7
REMARK    2  A    between atoms: C_7  and  N_8
REMARK    3  A    between atoms: C_14  and  C_18
REMARK    4  A    between atoms: C_18  and  N_19
REMARK    5  A    between atoms: N_19  and  C_20
REMARK    6  A    between atoms: C_25  and  C_26
REMARK    7  A    between atoms: N_28  and  C_29
REMARK                            x       y       z     vdW  Elec       q    Type
REMARK                         _______ _______ _______ _____ _____    ______ ____
ROOT
ATOM      1  N   UNL     1      10.826  -2.563   0.812  0.00  0.00    -0.339 N 
ATOM      2  H   UNL     1      10.741  -1.732   1.306  0.00  0.00    +0.146 HD
ENDROOT
BRANCH   1   3
ATOM      3  C   UNL     1      11.760  -2.672  -0.210  0.00  0.00    +0.040 A 
ATOM      4  C   UNL     1      11.808  -3.818  -0.994  0.00  0.00    +0.024 A 
ATOM      5  C   UNL     1      12.736  -3.923  -2.009  0.00  0.00    +0.002 A 
ATOM      6  C   UNL     1      13.626  -2.890  -2.256  0.00  0.00    +0.001 A 
ATOM      7  C   UNL     1      13.594  -1.745  -1.490  0.00  0.00    +0.015 A 
ATOM      8  C   UNL     1      12.656  -1.621  -0.461  0.00  0.00    +0.058 A 
BRANCH   8   9
ATOM      9  C   UNL     1      12.612  -0.397   0.358  0.00  0.00    +0.250 C 
ATOM     10  O   UNL     1      11.734  -0.251   1.187  0.00  0.00    -0.270 OA
ATOM     11  N   UNL     1      13.546   0.561   0.190  0.00  0.00    -0.281 N 
ATOM     12  H   UNL     1      14.198   0.482  -0.524  0.00  0.00    +0.155 HD
BRANCH  11  13
ATOM     13  C   UNL     1      13.573   1.670   1.044  0.00  0.00    +0.037 A 
ATOM     14  C   UNL     1      13.939   2.916   0.552  0.00  0.00    +0.027 A 
ATOM     15  C   UNL     1      13.966   4.012   1.394  0.00  0.00    +0.051 A 
ATOM     16  C   UNL     1      13.628   3.870   2.730  0.00  0.00    +0.173 A 
ATOM     17  C   UNL     1      13.261   2.622   3.226  0.00  0.00    +0.174 A 
ATOM     18  C   UNL     1      13.229   1.525   2.381  0.00  0.00    +0.073 A 
ATOM     19  O   UNL     1      12.978   2.747   4.556  0.00  0.00    -0.395 OA
ATOM     20  C   UNL     1      13.570   3.996   4.959  0.00  0.00    +0.589 C 
ATOM     21  O   UNL     1      13.576   4.777   3.750  0.00  0.00    -0.395 OA
ATOM     22  F   UNL     1      12.789   4.615   5.941  0.00  0.00    -0.125 F 
ATOM     23  F   UNL     1      14.875   3.795   5.422  0.00  0.00    -0.125 F 
ENDBRANCH  11  13
ENDBRANCH   8   9
ENDBRANCH   1   3
BRANCH   1  24
ATOM     24  C   UNL     1       9.969  -3.704   1.146  0.00  0.00    +0.137 C 
BRANCH  24  31
ATOM     25  N   UNL     1       3.817  -0.820   3.673  0.00  0.00    -0.295 N 
ATOM     26  C   UNL     1       4.982  -1.456   3.905  0.00  0.00    +0.305 C 
ATOM     27  O   UNL     1       5.352  -1.651   5.046  0.00  0.00    -0.252 OA
ATOM     28  N   UNL     1       5.739  -1.875   2.870  0.00  0.00    -0.254 N 
ATOM     29  C   UNL     1       6.992  -2.438   3.106  0.00  0.00    +0.126 A 
ATOM     30  C   UNL     1       7.811  -2.771   2.033  0.00  0.00    +0.049 A 
ATOM     31  C   UNL     1       9.052  -3.328   2.281  0.00  0.00    -0.026 A 
ATOM     32  C   UNL     1       9.434  -3.534   3.600  0.00  0.00    +0.025 A 
ATOM     33  C   UNL     1       8.571  -3.179   4.617  0.00  0.00    +0.113 A 
ATOM     34  N   UNL     1       7.394  -2.644   4.350  0.00  0.00    -0.240 NA
ATOM     35  H   UNL     1       3.522  -0.665   2.762  0.00  0.00    +0.151 HD
ATOM     36  H   UNL     1       5.410  -1.786   1.962  0.00  0.00    +0.158 HD
BRANCH  25  37
ATOM     37  C   UNL     1       2.995  -0.365   4.797  0.00  0.00    +0.141 C 
BRANCH  37  41
ATOM     38  C   UNL     1      -0.522   1.549   3.309  0.00  0.00    +0.000 A 
ATOM     39  C   UNL     1      -0.527   0.188   3.555  0.00  0.00    +0.000 A 
ATOM     40  C   UNL     1       0.611  -0.431   4.036  0.00  0.00    +0.005 A 
ATOM     41  C   UNL     1       1.754   0.310   4.271  0.00  0.00    -0.030 A 
ATOM     42  C   UNL     1       1.760   1.670   4.024  0.00  0.00    +0.005 A 
ATOM     43  C   UNL     1       0.621   2.290   3.544  0.00  0.00    +0.000 A 
ENDBRANCH  37  41
ENDBRANCH  25  37
ENDBRANCH  24  31
ENDBRANCH   1  24
TORSDOF 7
