REMARK  Name = CHEMBL200258
REMARK  4 active torsions:
REMARK  status: ('A' for Active; 'I' for Inactive)
REMARK    1  A    between atoms: C_4  and  C_7
REMARK    2  A    between atoms: C_10  and  C_21
REMARK    3  A    between atoms: C_11  and  C_13
REMARK    4  A    between atoms: C_17  and  O_19
REMARK                            x       y       z     vdW  Elec       q    Type
REMARK                         _______ _______ _______ _____ _____    ______ ____
ROOT
ATOM      1  C   UNL     1       3.696  -0.685  -0.037  0.00  0.00    +0.139 A 
ATOM      2  N   UNL     1       3.846  -2.039  -0.052  0.00  0.00    -0.336 N 
ATOM      3  H   UNL     1       3.133  -2.698  -0.053  0.00  0.00    +0.167 HD
ATOM      4  C   UNL     1       5.199  -2.298  -0.065  0.00  0.00    +0.093 A 
ATOM      5  C   UNL     1       5.832  -1.065  -0.058  0.00  0.00    +0.099 A 
ATOM      6  N   UNL     1       4.881  -0.118  -0.047  0.00  0.00    -0.227 NA
ENDROOT
BRANCH   4   7
ATOM      7  C   UNL     1       5.845  -3.622  -0.082  0.00  0.00    +0.094 A 
ATOM      8  C   UNL     1       5.175  -4.748   0.417  0.00  0.00    +0.050 A 
ATOM      9  C   UNL     1       5.822  -5.968   0.379  0.00  0.00    +0.116 A 
ATOM     10  N   UNL     1       7.046  -6.038  -0.124  0.00  0.00    -0.223 NA
ATOM     11  C   UNL     1       7.657  -4.958  -0.590  0.00  0.00    +0.213 A 
ATOM     12  N   UNL     1       7.075  -3.770  -0.579  0.00  0.00    -0.213 NA
ATOM     13  N   UNL     1       8.936  -5.078  -1.106  0.00  0.00    -0.327 N 
ATOM     14  H   UNL     1       9.373  -5.943  -1.123  0.00  0.00    +0.145 HD
ATOM     15  H   UNL     1       9.395  -4.295  -1.450  0.00  0.00    +0.145 HD
ENDBRANCH   4   7
BRANCH   5  16
ATOM     16  C   UNL     1       7.295  -0.834  -0.067  0.00  0.00    +0.006 A 
ATOM     17  C   UNL     1       8.146  -1.711   0.606  0.00  0.00    +0.012 A 
ATOM     18  C   UNL     1       9.509  -1.493   0.596  0.00  0.00    +0.024 A 
ATOM     19  C   UNL     1      10.035  -0.406  -0.080  0.00  0.00    +0.082 A 
ATOM     20  C   UNL     1       9.194   0.472  -0.752  0.00  0.00    +0.136 A 
ATOM     21  C   UNL     1       7.826   0.258  -0.752  0.00  0.00    +0.057 A 
ATOM     22 CL   UNL     1      11.750  -0.140  -0.087  0.00  0.00    -0.080 Cl
BRANCH  20  23
ATOM     23  O   UNL     1       9.715   1.539  -1.414  0.00  0.00    -0.505 OA
ATOM     24  H   UNL     1       9.939   1.358  -2.337  0.00  0.00    +0.292 HD
ENDBRANCH  20  23
ENDBRANCH   5  16
BRANCH   1  28
ATOM     25  C   UNL     1      -0.017   1.379   0.010  0.00  0.00    +0.000 A 
ATOM     26  C   UNL     1       1.168   2.093   0.002  0.00  0.00    +0.001 A 
ATOM     27  C   UNL     1       2.377   1.429  -0.013  0.00  0.00    +0.011 A 
ATOM     28  C   UNL     1       2.403   0.034  -0.021  0.00  0.00    +0.017 A 
ATOM     29  C   UNL     1       1.204  -0.681  -0.013  0.00  0.00    +0.011 A 
ATOM     30  C   UNL     1       0.002  -0.004   0.002  0.00  0.00    +0.001 A 
ENDBRANCH   1  28
TORSDOF 4
