REMARK  Name = CHEMBL1076482
REMARK  8 active torsions:
REMARK  status: ('A' for Active; 'I' for Inactive)
REMARK    1  A    between atoms: C_1  and  N_2
REMARK    2  A    between atoms: N_5  and  C_8
REMARK    3  A    between atoms: C_8  and  C_9
REMARK    4  A    between atoms: C_12  and  C_15
REMARK    5  A    between atoms: C_23  and  C_24
REMARK    6  A    between atoms: C_28  and  N_30
REMARK    7  A    between atoms: C_31  and  C_33
REMARK    8  A    between atoms: C_37  and  C_39
REMARK                            x       y       z     vdW  Elec       q    Type
REMARK                         _______ _______ _______ _____ _____    ______ ____
ROOT
ATOM      1  C   UNL     1       1.164  -5.198   6.546  0.00  0.00    +0.046 A 
ATOM      2  C   UNL     1       1.925  -6.370   6.607  0.00  0.00    +0.145 A 
ATOM      3  N   UNL     1       2.256  -6.596   7.856  0.00  0.00    -0.172 NA
ATOM      4  N   UNL     1       1.728  -5.583   8.663  0.00  0.00    -0.213 N 
ATOM      5  C   UNL     1       1.052  -4.707   7.854  0.00  0.00    +0.164 A 
ATOM      6  N   UNL     1       0.447  -3.631   8.364  0.00  0.00    -0.236 NA
ATOM      7  C   UNL     1       0.482  -3.376   9.653  0.00  0.00    +0.115 A 
ATOM      8  C   UNL     1       1.159  -4.232  10.525  0.00  0.00    +0.048 A 
ATOM      9  C   UNL     1       1.783  -5.353  10.017  0.00  0.00    +0.076 A 
ENDROOT
BRANCH   1  13
ATOM     10  C   UNL     1      -0.485  -3.444   3.044  0.00  0.00    -0.033 A 
ATOM     11  C   UNL     1       0.849  -3.809   3.068  0.00  0.00    +0.005 A 
ATOM     12  C   UNL     1       1.390  -4.379   4.202  0.00  0.00    +0.009 A 
ATOM     13  C   UNL     1       0.590  -4.586   5.326  0.00  0.00    -0.013 A 
ATOM     14  C   UNL     1      -0.754  -4.215   5.295  0.00  0.00    +0.009 A 
ATOM     15  C   UNL     1      -1.283  -3.641   4.156  0.00  0.00    +0.005 A 
BRANCH  10  16
ATOM     16  C   UNL     1      -1.069  -2.821   1.802  0.00  0.00    +0.119 C 
BRANCH  16  21
ATOM     17  C   UNL     1       0.004   2.646   0.966  0.00  0.00    -0.096 C 
ATOM     18  N   UNL     1      -0.125   1.188   0.851  0.00  0.00    +0.379 N 
ATOM     19  C   UNL     1      -1.543   0.813   0.935  0.00  0.00    -0.064 C 
ATOM     20  C   UNL     1      -1.679  -0.704   0.796  0.00  0.00    +0.066 C 
ATOM     21  N   UNL     1      -0.917  -1.362   1.867  0.00  0.00    -0.302 NA
ATOM     22  C   UNL     1       0.500  -0.977   1.810  0.00  0.00    +0.066 C 
ATOM     23  C   UNL     1       0.619   0.543   1.941  0.00  0.00    -0.064 C 
ATOM     24  H   UNL     1       0.249   0.886  -0.036  0.00  0.00    -0.082 HD
ENDBRANCH  16  21
ENDBRANCH  10  16
ENDBRANCH   1  13
BRANCH   9  25
ATOM     25  C   UNL     1       2.510  -6.279  10.908  0.00  0.00    +0.002 A 
ATOM     26  C   UNL     1       3.896  -6.417  10.796  0.00  0.00    +0.010 A 
ATOM     27  C   UNL     1       4.573  -7.282  11.631  0.00  0.00    +0.002 A 
ATOM     28  C   UNL     1       3.884  -8.016  12.579  0.00  0.00    +0.023 A 
ATOM     29  C   UNL     1       2.505  -7.887  12.698  0.00  0.00    +0.034 A 
ATOM     30  C   UNL     1       1.817  -7.015  11.869  0.00  0.00    +0.033 A 
BRANCH  29  31
ATOM     31  N   UNL     1       1.814  -8.632  13.659  0.00  0.00    -0.281 N 
ATOM     32  C   UNL     1       0.560  -9.058  13.407  0.00  0.00    +0.248 C 
ATOM     33  O   UNL     1       0.066  -8.879  12.311  0.00  0.00    -0.270 OA
ATOM     34  H   UNL     1       2.236  -8.842  14.507  0.00  0.00    +0.155 HD
BRANCH  32  35
ATOM     35  C   UNL     1      -0.214  -9.743  14.464  0.00  0.00    +0.038 A 
ATOM     36  C   UNL     1       0.349  -9.945  15.726  0.00  0.00    +0.013 A 
ATOM     37  C   UNL     1      -0.379 -10.585  16.707  0.00  0.00    +0.001 A 
ATOM     38  C   UNL     1      -1.664 -11.026  16.444  0.00  0.00    +0.012 A 
ATOM     39  C   UNL     1      -2.227 -10.829  15.196  0.00  0.00    +0.056 A 
ATOM     40  C   UNL     1      -1.512 -10.186  14.206  0.00  0.00    +0.025 A 
BRANCH  39  41
ATOM     41  C   UNL     1      -3.627 -11.313  14.918  0.00  0.00    +0.417 C 
ATOM     42  F   UNL     1      -4.146 -11.924  16.064  0.00  0.00    -0.166 F 
ATOM     43  F   UNL     1      -4.434 -10.227  14.562  0.00  0.00    -0.166 F 
ATOM     44  F   UNL     1      -3.601 -12.238  13.868  0.00  0.00    -0.166 F 
ENDBRANCH  39  41
ENDBRANCH  32  35
ENDBRANCH  29  31
ENDBRANCH   9  25
TORSDOF 7
