REMARK  Name = CHEMBL526671
REMARK  5 active torsions:
REMARK  status: ('A' for Active; 'I' for Inactive)
REMARK    1  A    between atoms: C_1  and  N_2
REMARK    2  A    between atoms: C_4  and  C_17
REMARK    3  A    between atoms: C_5  and  C_7
REMARK    4  A    between atoms: N_15  and  C_16
REMARK    5  A    between atoms: N_26  and  O_27
REMARK                            x       y       z     vdW  Elec       q    Type
REMARK                         _______ _______ _______ _____ _____    ______ ____
ROOT
ATOM      1  C   UNL     1      -0.018   1.461   0.010  0.00  0.00    +0.172 C 
ATOM      2  N   UNL     1       0.002  -0.004   0.002  0.00  0.00    -0.273 N 
ATOM      3  C   UNL     1       0.008  -0.786  -1.096  0.00  0.00    +0.117 A 
ATOM      4  C   UNL     1       0.027  -2.086  -0.683  0.00  0.00    +0.027 A 
ATOM      5  C   UNL     1       0.034  -2.081   0.735  0.00  0.00    +0.100 A 
ATOM      6  N   UNL     1       0.025  -0.828   1.133  0.00  0.00    -0.171 NA
ENDROOT
BRANCH   5   7
ATOM      7  C   UNL     1       0.054  -3.277   1.613  0.00  0.00    +0.003 A 
ATOM      8  C   UNL     1      -0.624  -4.439   1.224  0.00  0.00    +0.012 A 
ATOM      9  C   UNL     1      -0.617  -5.548   2.018  0.00  0.00    +0.028 A 
ATOM     10  C   UNL     1       0.070  -5.535   3.231  0.00  0.00    +0.069 A 
ATOM     11  C   UNL     1       0.756  -4.373   3.634  0.00  0.00    +0.020 A 
ATOM     12  C   UNL     1       0.748  -3.242   2.812  0.00  0.00    +0.021 A 
ATOM     13  C   UNL     1       1.361  -4.680   4.927  0.00  0.00    +0.143 A 
ATOM     14  N   UNL     1       1.046  -5.906   5.231  0.00  0.00    -0.179 NA
ATOM     15  N   UNL     1       0.257  -6.465   4.221  0.00  0.00    -0.267 N 
ATOM     16  C   UNL     1      -0.283  -7.827   4.220  0.00  0.00    +0.173 C 
ENDBRANCH   5   7
BRANCH   4  17
ATOM     17  C   UNL     1       0.039  -3.283  -1.556  0.00  0.00    -0.014 A 
ATOM     18  C   UNL     1       0.975  -4.296  -1.341  0.00  0.00    +0.009 A 
ATOM     19  C   UNL     1       0.985  -5.406  -2.152  0.00  0.00    +0.010 A 
ATOM     20  C   UNL     1       0.057  -5.527  -3.197  0.00  0.00    +0.003 A 
ATOM     21  C   UNL     1      -0.877  -4.514  -3.409  0.00  0.00    -0.037 A 
ATOM     22  C   UNL     1      -0.888  -3.403  -2.590  0.00  0.00    +0.013 A 
ATOM     23  C   UNL     1      -1.758  -4.873  -4.581  0.00  0.00    +0.042 C 
ATOM     24  C   UNL     1      -1.270  -6.237  -5.088  0.00  0.00    +0.064 C 
ATOM     25  C   UNL     1      -0.121  -6.611  -4.183  0.00  0.00    +0.088 C 
ATOM     26  N   UNL     1       0.584  -7.693  -4.258  0.00  0.00    -0.092 NA
BRANCH  26  27
ATOM     27  O   UNL     1       0.302  -8.654  -5.259  0.00  0.00    -0.409 OA
ATOM     28  H   UNL     1       0.881  -9.428  -5.236  0.00  0.00    +0.328 HD
ENDBRANCH  26  27
ENDBRANCH   4  17
TORSDOF 3
