REMARK  Name = CHEMBL166030
REMARK  9 active torsions:
REMARK  status: ('A' for Active; 'I' for Inactive)
REMARK    1  A    between atoms: C_1  and  C_2
REMARK    2  A    between atoms: C_2  and  C_3
REMARK    3  A    between atoms: C_2  and  C_4
REMARK    4  A    between atoms: C_2  and  C_5
REMARK    5  A    between atoms: N_13  and  C_14
REMARK    6  A    between atoms: C_17  and  O_20
REMARK    7  A    between atoms: O_20  and  C_21
REMARK    8  A    between atoms: C_25  and  C_27
REMARK    9  A    between atoms: N_29  and  C_30
REMARK                            x       y       z     vdW  Elec       q    Type
REMARK                         _______ _______ _______ _____ _____    ______ ____
ROOT
ATOM      1  C   UNL     1       6.768   0.525  -3.068  0.00  0.00    +0.035 A 
ATOM      2  C   UNL     1       6.609   1.111  -1.819  0.00  0.00    +0.027 A 
ATOM      3  C   UNL     1       7.673   1.755  -1.219  0.00  0.00    +0.048 A 
ATOM      4  C   UNL     1       8.900   1.817  -1.863  0.00  0.00    +0.129 A 
ATOM      5  C   UNL     1       9.059   1.232  -3.111  0.00  0.00    +0.048 A 
ATOM      6  C   UNL     1       7.998   0.582  -3.710  0.00  0.00    +0.027 A 
ENDROOT
BRANCH   1  15
ATOM      7  C   UNL     1       6.135  -4.697  -6.790  0.00  0.00    +0.144 A 
ATOM      8  C   UNL     1       6.341  -3.605  -6.032  0.00  0.00    +0.092 A 
ATOM      9  C   UNL     1       5.081  -3.051  -5.709  0.00  0.00    +0.169 A 
ATOM     10  N   UNL     1       4.160  -3.798  -6.262  0.00  0.00    -0.063 NA
ATOM     11  O   UNL     1       4.811  -4.846  -6.958  0.00  0.00    -0.357 OA
ATOM     12  N   UNL     1       4.859  -1.911  -4.937  0.00  0.00    -0.251 N 
ATOM     13  C   UNL     1       5.904  -1.231  -4.423  0.00  0.00    +0.309 C 
ATOM     14  O   UNL     1       7.039  -1.612  -4.633  0.00  0.00    -0.252 OA
ATOM     15  N   UNL     1       5.689  -0.130  -3.677  0.00  0.00    -0.269 N 
ATOM     16  H   UNL     1       3.954  -1.608  -4.769  0.00  0.00    +0.158 HD
ATOM     17  H   UNL     1       4.788   0.210  -3.562  0.00  0.00    +0.156 HD
BRANCH   7  19
ATOM     18  C   UNL     1       8.024  -6.196  -6.215  0.00  0.00    +0.019 C 
ATOM     19  C   UNL     1       7.205  -5.593  -7.357  0.00  0.00    +0.023 C 
ATOM     20  C   UNL     1       8.123  -4.777  -8.269  0.00  0.00    +0.019 C 
ATOM     21  C   UNL     1       6.553  -6.717  -8.165  0.00  0.00    +0.019 C 
ENDBRANCH   7  19
ENDBRANCH   1  15
BRANCH   4  22
ATOM     22  O   UNL     1       9.947   2.453  -1.272  0.00  0.00    -0.456 OA
BRANCH  22  23
ATOM     23  C   UNL     1      10.293   3.681  -1.739  0.00  0.00    +0.129 A 
ATOM     24  C   UNL     1      11.294   4.407  -1.106  0.00  0.00    +0.046 A 
ATOM     25  C   UNL     1      11.651   5.657  -1.576  0.00  0.00    +0.004 A 
ATOM     26  C   UNL     1      11.015   6.191  -2.679  0.00  0.00    +0.013 A 
ATOM     27  C   UNL     1      10.008   5.469  -3.322  0.00  0.00    +0.040 A 
ATOM     28  C   UNL     1       9.653   4.206  -2.849  0.00  0.00    +0.059 A 
BRANCH  27  29
ATOM     29  C   UNL     1       9.325   6.039  -4.503  0.00  0.00    +0.244 C 
ATOM     30  O   UNL     1       8.449   5.408  -5.061  0.00  0.00    -0.270 OA
ATOM     31  N   UNL     1       9.674   7.258  -4.960  0.00  0.00    -0.314 N 
ATOM     32  C   UNL     1       8.997   7.823  -6.130  0.00  0.00    +0.128 C 
ATOM     33  H   UNL     1      10.373   7.761  -4.514  0.00  0.00    +0.149 HD
ENDBRANCH  27  29
ENDBRANCH  22  23
ENDBRANCH   4  22
TORSDOF 5
