REMARK  Name = CHEMBL1080268
REMARK  10 active torsions:
REMARK  status: ('A' for Active; 'I' for Inactive)
REMARK    1  A    between atoms: C_1  and  N_2
REMARK    2  A    between atoms: N_5  and  C_8
REMARK    3  A    between atoms: C_8  and  C_9
REMARK    4  A    between atoms: C_9  and  C_10
REMARK    5  A    between atoms: C_10  and  C_11
REMARK    6  A    between atoms: C_12  and  C_13
REMARK    7  A    between atoms: C_21  and  C_22
REMARK    8  A    between atoms: C_26  and  N_28
REMARK    9  A    between atoms: C_29  and  C_31
REMARK   10  A    between atoms: C_35  and  C_37
REMARK                            x       y       z     vdW  Elec       q    Type
REMARK                         _______ _______ _______ _____ _____    ______ ____
ROOT
ATOM      1  C   UNL     1       1.139  -7.939   5.998  0.00  0.00    +0.089 A 
ATOM      2  C   UNL     1       1.649  -7.003   6.908  0.00  0.00    +0.153 A 
ATOM      3  N   UNL     1       2.083  -7.638   7.969  0.00  0.00    -0.172 NA
ATOM      4  N   UNL     1       1.878  -9.012   7.802  0.00  0.00    -0.213 N 
ATOM      5  C   UNL     1       1.286  -9.207   6.582  0.00  0.00    +0.172 A 
ATOM      6  N   UNL     1       0.969 -10.434   6.162  0.00  0.00    -0.235 NA
ATOM      7  C   UNL     1       1.210 -11.492   6.904  0.00  0.00    +0.115 A 
ATOM      8  C   UNL     1       1.809 -11.354   8.159  0.00  0.00    +0.048 A 
ATOM      9  C   UNL     1       2.151 -10.093   8.604  0.00  0.00    +0.076 A 
ENDROOT
BRANCH   9  10
ATOM     10  C   UNL     1       2.783  -9.909   9.927  0.00  0.00    +0.002 A 
ATOM     11  C   UNL     1       2.103  -9.230  10.940  0.00  0.00    +0.010 A 
ATOM     12  C   UNL     1       2.696  -9.059  12.175  0.00  0.00    +0.002 A 
ATOM     13  C   UNL     1       3.963  -9.558  12.413  0.00  0.00    +0.023 A 
ATOM     14  C   UNL     1       4.648 -10.235  11.411  0.00  0.00    +0.034 A 
ATOM     15  C   UNL     1       4.059 -10.417  10.169  0.00  0.00    +0.033 A 
BRANCH  14  16
ATOM     16  N   UNL     1       5.930 -10.737  11.658  0.00  0.00    -0.281 N 
ATOM     17  C   UNL     1       6.842 -10.773  10.666  0.00  0.00    +0.248 C 
ATOM     18  O   UNL     1       6.584 -10.281   9.585  0.00  0.00    -0.270 OA
ATOM     19  H   UNL     1       6.163 -11.060  12.542  0.00  0.00    +0.155 HD
BRANCH  17  20
ATOM     20  C   UNL     1       8.157 -11.410  10.893  0.00  0.00    +0.038 A 
ATOM     21  C   UNL     1       8.455 -11.980  12.132  0.00  0.00    +0.013 A 
ATOM     22  C   UNL     1       9.683 -12.573  12.338  0.00  0.00    +0.001 A 
ATOM     23  C   UNL     1      10.619 -12.603  11.319  0.00  0.00    +0.012 A 
ATOM     24  C   UNL     1      10.331 -12.039  10.089  0.00  0.00    +0.056 A 
ATOM     25  C   UNL     1       9.103 -11.448   9.868  0.00  0.00    +0.025 A 
BRANCH  24  26
ATOM     26  C   UNL     1      11.356 -12.076   8.986  0.00  0.00    +0.417 C 
ATOM     27  F   UNL     1      12.508 -12.726   9.442  0.00  0.00    -0.166 F 
ATOM     28  F   UNL     1      10.835 -12.768   7.887  0.00  0.00    -0.166 F 
ATOM     29  F   UNL     1      11.678 -10.769   8.604  0.00  0.00    -0.166 F 
ENDBRANCH  24  26
ENDBRANCH  17  20
ENDBRANCH  14  16
ENDBRANCH   9  10
BRANCH   1  31
ATOM     30  C   UNL     1       0.102  -7.420   3.664  0.00  0.00    -0.097 C 
ATOM     31  C   UNL     1       0.569  -7.654   4.715  0.00  0.00    -0.061 C 
BRANCH  30  32
ATOM     32  C   UNL     1      -0.484  -7.128   2.345  0.00  0.00    +0.090 C 
BRANCH  32  33
ATOM     33  C   UNL     1      -0.451  -5.618   2.096  0.00  0.00    +0.028 C 
BRANCH  33  34
ATOM     34  C   UNL     1      -1.059  -5.314   0.726  0.00  0.00    +0.085 C 
BRANCH  34  39
ATOM     35  C   UNL     1      -0.411  -0.067  -1.221  0.00  0.00    -0.096 C 
ATOM     36  N   UNL     1      -0.418  -1.523  -1.031  0.00  0.00    +0.379 N 
ATOM     37  C   UNL     1      -1.803  -1.991  -0.884  0.00  0.00    -0.064 C 
ATOM     38  C   UNL     1      -1.812  -3.510  -0.704  0.00  0.00    +0.066 C 
ATOM     39  N   UNL     1      -1.028  -3.865   0.487  0.00  0.00    -0.306 NA
ATOM     40  C   UNL     1       0.355  -3.381   0.365  0.00  0.00    +0.066 C 
ATOM     41  C   UNL     1       0.346  -1.863   0.177  0.00  0.00    -0.064 C 
ATOM     42  H   UNL     1       0.004  -1.969  -1.832  0.00  0.00    -0.082 HD
ENDBRANCH  34  39
ENDBRANCH  33  34
ENDBRANCH  32  33
ENDBRANCH  30  32
ENDBRANCH   1  31
TORSDOF 9
