REMARK  Name = CHEMBL524635
REMARK  8 active torsions:
REMARK  status: ('A' for Active; 'I' for Inactive)
REMARK    1  A    between atoms: C_1  and  C_2
REMARK    2  A    between atoms: C_2  and  N_3
REMARK    3  A    between atoms: C_5  and  C_24
REMARK    4  A    between atoms: C_6  and  C_8
REMARK    5  A    between atoms: C_12  and  N_14
REMARK    6  A    between atoms: N_14  and  C_15
REMARK    7  A    between atoms: C_15  and  N_17
REMARK    8  A    between atoms: N_17  and  C_18
REMARK                            x       y       z     vdW  Elec       q    Type
REMARK                         _______ _______ _______ _____ _____    ______ ____
ROOT
ATOM      1  C   UNL     1      -7.003  -0.608   0.575  0.00  0.00    +0.004 A 
ATOM      2  C   UNL     1      -7.959  -1.453   0.013  0.00  0.00    +0.010 A 
ATOM      3  C   UNL     1      -8.693  -2.299   0.820  0.00  0.00    +0.002 A 
ATOM      4  C   UNL     1      -8.484  -2.312   2.186  0.00  0.00    +0.023 A 
ATOM      5  C   UNL     1      -7.533  -1.473   2.755  0.00  0.00    +0.033 A 
ATOM      6  C   UNL     1      -6.787  -0.625   1.951  0.00  0.00    +0.033 A 
ENDROOT
BRANCH   1  10
ATOM      7  N   UNL     1      -4.579   1.503  -1.149  0.00  0.00    -0.271 N 
ATOM      8  C   UNL     1      -5.648   1.709  -1.943  0.00  0.00    +0.117 A 
ATOM      9  C   UNL     1      -6.686   0.979  -1.443  0.00  0.00    +0.028 A 
ATOM     10  C   UNL     1      -6.213   0.301  -0.290  0.00  0.00    +0.100 A 
ATOM     11  N   UNL     1      -4.948   0.619  -0.128  0.00  0.00    -0.171 NA
BRANCH   9  12
ATOM     12  C   UNL     1      -8.056   0.907  -2.001  0.00  0.00    -0.002 A 
ATOM     13  C   UNL     1      -8.330   0.158  -3.146  0.00  0.00    +0.029 A 
ATOM     14  C   UNL     1      -9.623   0.118  -3.634  0.00  0.00    +0.114 A 
ATOM     15  N   UNL     1     -10.606   0.769  -3.046  0.00  0.00    -0.237 NA
ATOM     16  C   UNL     1     -10.411   1.498  -1.954  0.00  0.00    +0.139 A 
ATOM     17  C   UNL     1      -9.126   1.587  -1.390  0.00  0.00    +0.026 A 
ATOM     18  C   UNL     1      -9.253   2.445  -0.213  0.00  0.00    +0.029 A 
ATOM     19  C   UNL     1     -10.544   2.805  -0.131  0.00  0.00    +0.085 A 
ATOM     20  N   UNL     1     -11.248   2.255  -1.169  0.00  0.00    -0.346 N 
ATOM     21  H   UNL     1     -12.198   2.373  -1.321  0.00  0.00    +0.167 HD
ENDBRANCH   9  12
BRANCH   7  23
ATOM     22  C   UNL     1      -2.839   2.820  -0.044  0.00  0.00    +0.029 C 
ATOM     23  C   UNL     1      -3.252   2.099  -1.328  0.00  0.00    +0.140 C 
ENDBRANCH   7  23
ENDBRANCH   1  10
BRANCH   5  24
ATOM     24  N   UNL     1      -7.325  -1.489   4.138  0.00  0.00    -0.297 N 
ATOM     25  H   UNL     1      -7.279  -2.334   4.612  0.00  0.00    +0.154 HD
BRANCH  24  26
ATOM     26  C   UNL     1      -7.188  -0.330   4.812  0.00  0.00    +0.139 C 
ATOM     27  S   UNL     1      -7.161   1.156   3.963  0.00  0.00    -0.018 S 
BRANCH  26  28
ATOM     28  N   UNL     1      -7.071  -0.341   6.155  0.00  0.00    -0.297 N 
ATOM     29  H   UNL     1      -7.023  -1.185   6.631  0.00  0.00    +0.154 HD
BRANCH  28  30
ATOM     30  C   UNL     1      -7.019   0.865   6.862  0.00  0.00    +0.033 A 
ATOM     31  C   UNL     1      -7.852   1.917   6.505  0.00  0.00    +0.023 A 
ATOM     32  C   UNL     1      -7.799   3.106   7.206  0.00  0.00    +0.002 A 
ATOM     33  C   UNL     1      -6.917   3.249   8.262  0.00  0.00    +0.000 A 
ATOM     34  C   UNL     1      -6.086   2.203   8.620  0.00  0.00    +0.002 A 
ATOM     35  C   UNL     1      -6.139   1.010   7.927  0.00  0.00    +0.023 A 
ENDBRANCH  28  30
ENDBRANCH  26  28
ENDBRANCH  24  26
ENDBRANCH   5  24
TORSDOF 7
