REMARK  Name = CHEMBL257986
REMARK  10 active torsions:
REMARK  status: ('A' for Active; 'I' for Inactive)
REMARK    1  A    between atoms: C_1  and  C_2
REMARK    2  A    between atoms: C_2  and  C_3
REMARK    3  A    between atoms: C_2  and  C_4
REMARK    4  A    between atoms: C_2  and  N_5
REMARK    5  A    between atoms: N_8  and  C_9
REMARK    6  A    between atoms: C_9  and  C_10
REMARK    7  A    between atoms: C_10  and  N_11
REMARK    8  A    between atoms: C_16  and  C_18
REMARK    9  A    between atoms: C_19  and  C_27
REMARK   10  A    between atoms: C_21  and  C_24
REMARK                            x       y       z     vdW  Elec       q    Type
REMARK                         _______ _______ _______ _____ _____    ______ ____
ROOT
ATOM      1  N   UNL     1       6.173  -0.516  -3.851  0.00  0.00    -0.312 N 
ATOM      2  C   UNL     1       6.759  -1.046  -4.987  0.00  0.00    +0.216 A 
ATOM      3  N   UNL     1       6.104  -1.965  -5.683  0.00  0.00    -0.223 NA
ATOM      4  C   UNL     1       6.630  -2.497  -6.776  0.00  0.00    +0.116 A 
ATOM      5  C   UNL     1       7.880  -2.086  -7.195  0.00  0.00    +0.050 A 
ATOM      6  C   UNL     1       8.550  -1.114  -6.441  0.00  0.00    +0.094 A 
ATOM      7  N   UNL     1       7.957  -0.619  -5.353  0.00  0.00    -0.213 NA
ATOM      8  H   UNL     1       6.639   0.159  -3.334  0.00  0.00    +0.149 HD
ENDROOT
BRANCH   6   9
ATOM      9  C   UNL     1       9.887  -0.642  -6.845  0.00  0.00    +0.093 A 
ATOM     10  C   UNL     1      10.457   0.587  -6.559  0.00  0.00    +0.100 A 
ATOM     11  N   UNL     1      11.681   0.601  -7.116  0.00  0.00    -0.231 NA
ATOM     12  C   UNL     1      11.899  -0.534  -7.721  0.00  0.00    +0.111 A 
ATOM     13  N   UNL     1      10.824  -1.336  -7.578  0.00  0.00    -0.340 N 
ATOM     14  H   UNL     1      10.727  -2.236  -7.929  0.00  0.00    +0.167 HD
BRANCH  10  15
ATOM     15  C   UNL     1       9.833   1.685  -5.785  0.00  0.00    +0.021 A 
ATOM     16  C   UNL     1       8.533   2.096  -6.076  0.00  0.00    +0.011 A 
ATOM     17  C   UNL     1       7.957   3.119  -5.350  0.00  0.00    +0.001 A 
ATOM     18  C   UNL     1       8.666   3.737  -4.335  0.00  0.00    +0.001 A 
ATOM     19  C   UNL     1       9.956   3.334  -4.041  0.00  0.00    +0.020 A 
ATOM     20  C   UNL     1      10.542   2.308  -4.756  0.00  0.00    +0.050 A 
ATOM     21 CL   UNL     1      12.159   1.799  -4.382  0.00  0.00    -0.083 Cl
ENDBRANCH  10  15
BRANCH  12  22
ATOM     22  C   UNL     1      13.160  -0.895  -8.462  0.00  0.00    +0.055 C 
ATOM     23  C   UNL     1      13.396  -2.374  -8.776  0.00  0.00    +0.012 C 
ATOM     24  C   UNL     1      14.229  -1.678  -7.697  0.00  0.00    +0.012 C 
ENDBRANCH  12  22
ENDBRANCH   6   9
BRANCH   1  25
ATOM     25  C   UNL     1       4.848  -0.976  -3.428  0.00  0.00    +0.123 C 
BRANCH  25  26
ATOM     26  C   UNL     1       4.434  -0.237  -2.154  0.00  0.00    +0.124 C 
BRANCH  26  30
ATOM     27  N   UNL     1       1.318  -0.604  -0.236  0.00  0.00    -0.295 N 
ATOM     28  C   UNL     1       2.537  -0.181  -0.625  0.00  0.00    +0.300 C 
ATOM     29  O   UNL     1       3.122   0.666   0.022  0.00  0.00    -0.253 OA
ATOM     30  N   UNL     1       3.108  -0.697  -1.731  0.00  0.00    -0.298 N 
ATOM     31  H   UNL     1       0.852  -1.280  -0.753  0.00  0.00    +0.151 HD
ATOM     32  H   UNL     1       2.642  -1.373  -2.248  0.00  0.00    +0.150 HD
BRANCH  27  34
ATOM     33  C   UNL     1       0.527   1.468   0.795  0.00  0.00    +0.031 C 
ATOM     34  C   UNL     1       0.697  -0.043   0.967  0.00  0.00    +0.028 C 
ATOM     35  C   UNL     1       1.589  -0.322   2.178  0.00  0.00    +0.031 C 
ATOM     36  C   UNL     1      -0.673  -0.689   1.182  0.00  0.00    +0.031 C 
ENDBRANCH  27  34
ENDBRANCH  26  30
ENDBRANCH  25  26
ENDBRANCH   1  25
TORSDOF 7
