REMARK  Name = CHEMBL200863
REMARK  9 active torsions:
REMARK  status: ('A' for Active; 'I' for Inactive)
REMARK    1  A    between atoms: C_1  and  C_2
REMARK    2  A    between atoms: C_2  and  C_3
REMARK    3  A    between atoms: C_2  and  C_4
REMARK    4  A    between atoms: C_2  and  C_16
REMARK    5  A    between atoms: C_4  and  N_5
REMARK    6  A    between atoms: N_8  and  C_9
REMARK    7  A    between atoms: C_19  and  C_30
REMARK    8  A    between atoms: C_20  and  C_22
REMARK    9  A    between atoms: C_26  and  O_28
REMARK                            x       y       z     vdW  Elec       q    Type
REMARK                         _______ _______ _______ _____ _____    ______ ____
ROOT
ATOM      1  C   UNL     1       0.743  -0.776  -1.358  0.00  0.00    +0.115 A 
ATOM      2  N   UNL     1       1.760   0.079  -1.597  0.00  0.00    -0.341 N 
ATOM      3  H   UNL     1       2.051   0.801  -1.018  0.00  0.00    +0.167 HD
ATOM      4  C   UNL     1       2.308  -0.263  -2.812  0.00  0.00    +0.074 A 
ATOM      5  C   UNL     1       1.578  -1.344  -3.273  0.00  0.00    +0.097 A 
ATOM      6  N   UNL     1       0.641  -1.620  -2.347  0.00  0.00    -0.231 NA
ENDROOT
BRANCH   5   7
ATOM      7  C   UNL     1       1.792  -2.069  -4.547  0.00  0.00    +0.006 A 
ATOM      8  C   UNL     1       3.086  -2.375  -4.969  0.00  0.00    +0.012 A 
ATOM      9  C   UNL     1       3.283  -3.050  -6.156  0.00  0.00    +0.024 A 
ATOM     10  C   UNL     1       2.200  -3.425  -6.931  0.00  0.00    +0.082 A 
ATOM     11  C   UNL     1       0.908  -3.124  -6.519  0.00  0.00    +0.136 A 
ATOM     12  C   UNL     1       0.701  -2.453  -5.325  0.00  0.00    +0.057 A 
ATOM     13 CL   UNL     1       2.456  -4.273  -8.424  0.00  0.00    -0.080 Cl
BRANCH  11  14
ATOM     14  O   UNL     1      -0.153  -3.494  -7.283  0.00  0.00    -0.505 OA
ATOM     15  H   UNL     1      -0.502  -4.371  -7.074  0.00  0.00    +0.292 HD
ENDBRANCH  11  14
ENDBRANCH   5   7
BRANCH   4  16
ATOM     16  C   UNL     1       3.445   0.391  -3.488  0.00  0.00    +0.003 A 
ATOM     17  C   UNL     1       3.382   0.720  -4.848  0.00  0.00    +0.030 A 
ATOM     18  C   UNL     1       4.468   1.331  -5.439  0.00  0.00    +0.111 A 
ATOM     19  N   UNL     1       5.554   1.604  -4.741  0.00  0.00    -0.263 NA
ATOM     20  C   UNL     1       5.656   1.312  -3.458  0.00  0.00    +0.111 A 
ATOM     21  C   UNL     1       4.616   0.706  -2.785  0.00  0.00    +0.030 A 
ENDBRANCH   4  16
BRANCH   1  23
ATOM     22  C   UNL     1      -0.562   0.675   0.171  0.00  0.00    +0.020 C 
ATOM     23  C   UNL     1      -0.135  -0.762  -0.134  0.00  0.00    +0.038 C 
ATOM     24  C   UNL     1       0.641  -1.327   1.058  0.00  0.00    +0.020 C 
BRANCH  23  25
ATOM     25  C   UNL     1      -1.377  -1.620  -0.387  0.00  0.00    +0.119 C 
BRANCH  25  26
ATOM     26  N   UNL     1      -2.231  -1.606   0.804  0.00  0.00    -0.298 N 
ATOM     27  C   UNL     1      -3.387  -2.298   0.812  0.00  0.00    +0.304 C 
ATOM     28  O   UNL     1      -3.722  -2.933  -0.169  0.00  0.00    -0.253 OA
ATOM     29  N   UNL     1      -4.173  -2.285   1.907  0.00  0.00    -0.269 N 
ATOM     30  H   UNL     1      -1.963  -1.099   1.587  0.00  0.00    +0.150 HD
ATOM     31  H   UNL     1      -3.873  -1.837   2.713  0.00  0.00    +0.156 HD
BRANCH  29  32
ATOM     32  C   UNL     1      -5.421  -2.919   1.880  0.00  0.00    +0.035 A 
ATOM     33  C   UNL     1      -6.492  -2.374   2.575  0.00  0.00    +0.025 A 
ATOM     34  C   UNL     1      -7.723  -3.001   2.547  0.00  0.00    +0.022 A 
ATOM     35  C   UNL     1      -7.887  -4.173   1.829  0.00  0.00    +0.041 A 
ATOM     36  C   UNL     1      -6.821  -4.718   1.136  0.00  0.00    +0.022 A 
ATOM     37  C   UNL     1      -5.590  -4.091   1.156  0.00  0.00    +0.025 A 
ATOM     38 CL   UNL     1      -9.435  -4.959   1.796  0.00  0.00    -0.084 Cl
ENDBRANCH  29  32
ENDBRANCH  25  26
ENDBRANCH  23  25
ENDBRANCH   1  23
TORSDOF 7
