REMARK  Name = CHEMBL524640
REMARK  5 active torsions:
REMARK  status: ('A' for Active; 'I' for Inactive)
REMARK    1  A    between atoms: C_6  and  C_7
REMARK    2  A    between atoms: N_9  and  C_18
REMARK    3  A    between atoms: C_11  and  C_12
REMARK    4  A    between atoms: C_23  and  O_25
REMARK    5  A    between atoms: N_29  and  O_30
REMARK                            x       y       z     vdW  Elec       q    Type
REMARK                         _______ _______ _______ _____ _____    ______ ____
ROOT
ATOM      1  C   UNL     1      -1.271  -0.764   0.010  0.00  0.00    +0.027 A 
ATOM      2  C   UNL     1      -1.607  -1.783  -0.831  0.00  0.00    +0.117 A 
ATOM      3  N   UNL     1      -2.843  -2.205  -0.495  0.00  0.00    -0.265 N 
ATOM      4  N   UNL     1      -3.297  -1.433   0.581  0.00  0.00    -0.170 NA
ATOM      5  C   UNL     1      -2.360  -0.568   0.898  0.00  0.00    +0.100 A 
ENDROOT
BRANCH   1  11
ATOM      6  C   UNL     1      -0.017   1.391   0.010  0.00  0.00    +0.009 A 
ATOM      7  C   UNL     1       1.164   2.095   0.002  0.00  0.00    +0.010 A 
ATOM      8  C   UNL     1       2.392   1.415  -0.013  0.00  0.00    +0.003 A 
ATOM      9  C   UNL     1       2.407   0.021  -0.021  0.00  0.00    -0.037 A 
ATOM     10  C   UNL     1       1.220  -0.682  -0.013  0.00  0.00    +0.013 A 
ATOM     11  C   UNL     1       0.002  -0.004   0.002  0.00  0.00    -0.014 A 
ATOM     12  C   UNL     1       3.834  -0.470  -0.037  0.00  0.00    +0.042 C 
ATOM     13  C   UNL     1       4.723   0.781  -0.039  0.00  0.00    +0.064 C 
ATOM     14  C   UNL     1       3.768   1.949  -0.023  0.00  0.00    +0.088 C 
ATOM     15  N   UNL     1       4.098   3.201  -0.020  0.00  0.00    -0.092 NA
BRANCH  15  16
ATOM     16  O   UNL     1       5.464   3.573  -0.031  0.00  0.00    -0.409 OA
ATOM     17  H   UNL     1       5.611   4.529  -0.027  0.00  0.00    +0.328 HD
ENDBRANCH  15  16
ENDBRANCH   1  11
BRANCH   5  18
ATOM     18  C   UNL     1      -2.429   0.437   1.986  0.00  0.00    +0.006 A 
ATOM     19  C   UNL     1      -1.288   0.791   2.711  0.00  0.00    +0.030 A 
ATOM     20  C   UNL     1      -1.397   1.730   3.716  0.00  0.00    +0.111 A 
ATOM     21  N   UNL     1      -2.558   2.291   3.994  0.00  0.00    -0.263 NA
ATOM     22  C   UNL     1      -3.659   1.986   3.334  0.00  0.00    +0.111 A 
ATOM     23  C   UNL     1      -3.638   1.061   2.310  0.00  0.00    +0.030 A 
ENDBRANCH   5  18
BRANCH   3  24
ATOM     24  C   UNL     1      -3.586  -3.286  -1.148  0.00  0.00    +0.136 C 
ATOM     25  C   UNL     1      -3.236  -3.336  -2.649  0.00  0.00    +0.029 C 
ATOM     26  C   UNL     1      -2.123  -4.409  -2.744  0.00  0.00    +0.005 C 
ATOM     27  C   UNL     1      -2.583  -5.471  -1.716  0.00  0.00    +0.033 C 
ATOM     28  C   UNL     1      -3.171  -4.643  -0.553  0.00  0.00    +0.139 C 
BRANCH  28  29
ATOM     29  O   UNL     1      -4.313  -5.307  -0.007  0.00  0.00    -0.390 OA
ATOM     30  H   UNL     1      -4.116  -6.170   0.383  0.00  0.00    +0.210 HD
ENDBRANCH  28  29
ENDBRANCH   3  24
TORSDOF 5
