REMARK  Name = CHEMBL558752
REMARK  7 active torsions:
REMARK  status: ('A' for Active; 'I' for Inactive)
REMARK    1  A    between atoms: C_1  and  N_2
REMARK    2  A    between atoms: C_6  and  O_22
REMARK    3  A    between atoms: N_11  and  C_12
REMARK    4  A    between atoms: C_15  and  C_18
REMARK    5  A    between atoms: O_22  and  C_23
REMARK    6  A    between atoms: C_27  and  C_29
REMARK    7  A    between atoms: C_32  and  C_35
REMARK                            x       y       z     vdW  Elec       q    Type
REMARK                         _______ _______ _______ _____ _____    ______ ____
ROOT
ATOM      1  C   UNL     1       0.089   1.330   0.487  0.00  0.00    +0.152 C 
ATOM      2  N   UNL     1       0.408  -0.054   0.129  0.00  0.00    -0.315 N 
ATOM      3  C   UNL     1       0.353  -0.608  -1.142  0.00  0.00    +0.070 A 
ATOM      4  C   UNL     1       0.014  -0.112  -2.392  0.00  0.00    +0.031 A 
ATOM      5  C   UNL     1       0.060  -0.939  -3.495  0.00  0.00    +0.048 A 
ATOM      6  C   UNL     1       0.444  -2.270  -3.362  0.00  0.00    +0.131 A 
ATOM      7  C   UNL     1       0.784  -2.778  -2.123  0.00  0.00    +0.076 A 
ATOM      8  C   UNL     1       0.742  -1.950  -0.999  0.00  0.00    +0.094 A 
ATOM      9  N   UNL     1       1.011  -2.151   0.318  0.00  0.00    -0.214 NA
ATOM     10  C   UNL     1       0.821  -1.037   0.981  0.00  0.00    +0.201 A 
ATOM     11  N   UNL     1       1.007  -0.882   2.340  0.00  0.00    -0.285 N 
ATOM     12  H   UNL     1       0.773  -0.044   2.769  0.00  0.00    +0.155 HD
ENDROOT
BRANCH  11  13
ATOM     13  C   UNL     1       1.533  -1.932   3.098  0.00  0.00    +0.034 A 
ATOM     14  C   UNL     1       2.400  -2.847   2.514  0.00  0.00    +0.024 A 
ATOM     15  C   UNL     1       2.917  -3.883   3.265  0.00  0.00    +0.014 A 
ATOM     16  C   UNL     1       2.573  -4.011   4.599  0.00  0.00    +0.055 A 
ATOM     17  C   UNL     1       1.710  -3.103   5.184  0.00  0.00    +0.014 A 
ATOM     18  C   UNL     1       1.194  -2.061   4.439  0.00  0.00    +0.024 A 
BRANCH  16  19
ATOM     19  C   UNL     1       3.139  -5.144   5.416  0.00  0.00    +0.417 C 
ATOM     20  F   UNL     1       4.341  -4.738   6.006  0.00  0.00    -0.166 F 
ATOM     21  F   UNL     1       2.226  -5.501   6.414  0.00  0.00    -0.166 F 
ATOM     22  F   UNL     1       3.376  -6.245   4.585  0.00  0.00    -0.166 F 
ENDBRANCH  16  19
ENDBRANCH  11  13
BRANCH   6  23
ATOM     23  O   UNL     1       0.484  -3.074  -4.457  0.00  0.00    -0.456 OA
BRANCH  23  24
ATOM     24  C   UNL     1      -0.520  -3.972  -4.625  0.00  0.00    +0.132 A 
ATOM     25  C   UNL     1      -1.552  -4.072  -3.693  0.00  0.00    +0.066 A 
ATOM     26  C   UNL     1      -2.558  -4.996  -3.894  0.00  0.00    +0.115 A 
ATOM     27  N   UNL     1      -2.556  -5.782  -4.952  0.00  0.00    -0.252 NA
ATOM     28  C   UNL     1      -1.592  -5.722  -5.865  0.00  0.00    +0.109 A 
ATOM     29  C   UNL     1      -0.547  -4.811  -5.734  0.00  0.00    +0.077 A 
BRANCH  28  30
ATOM     30  C   UNL     1      -1.634  -6.626  -7.035  0.00  0.00    +0.157 A 
ATOM     31  N   UNL     1      -0.749  -6.670  -8.006  0.00  0.00    -0.222 NA
ATOM     32  H   UNL     1      -3.370  -7.755  -6.739  0.00  0.00    +0.167 HD
ATOM     33  C   UNL     1      -1.109  -7.606  -8.889  0.00  0.00    +0.162 A 
ATOM     34  C   UNL     1      -2.257  -8.173  -8.464  0.00  0.00    +0.116 A 
ATOM     35  N   UNL     1      -2.594  -7.562  -7.288  0.00  0.00    -0.343 N 
BRANCH  33  36
ATOM     36  C   UNL     1      -0.360  -7.968 -10.146  0.00  0.00    +0.436 C 
ATOM     37  F   UNL     1       0.840  -7.250 -10.196  0.00  0.00    -0.164 F 
ATOM     38  F   UNL     1      -0.084  -9.339 -10.146  0.00  0.00    -0.164 F 
ATOM     39  F   UNL     1      -1.141  -7.649 -11.262  0.00  0.00    -0.164 F 
ENDBRANCH  33  36
ENDBRANCH  28  30
ENDBRANCH  23  24
ENDBRANCH   6  23
TORSDOF 6
