REMARK  Name = CHEMBL514210
REMARK  9 active torsions:
REMARK  status: ('A' for Active; 'I' for Inactive)
REMARK    1  A    between atoms: C_1  and  N_2
REMARK    2  A    between atoms: N_2  and  C_3
REMARK    3  A    between atoms: N_2  and  C_4
REMARK    4  A    between atoms: C_4  and  C_5
REMARK    5  A    between atoms: C_5  and  N_6
REMARK    6  A    between atoms: C_7  and  C_9
REMARK    7  A    between atoms: C_11  and  C_20
REMARK    8  A    between atoms: C_12  and  C_14
REMARK    9  A    between atoms: N_29  and  O_30
REMARK                            x       y       z     vdW  Elec       q    Type
REMARK                         _______ _______ _______ _____ _____    ______ ____
ROOT
ATOM      1  C   UNL     1       4.709  -0.712  -3.845  0.00  0.00    +0.191 A 
ATOM      2  C   UNL     1       6.067  -0.605  -3.898  0.00  0.00    +0.063 A 
ATOM      3  C   UNL     1       6.481  -1.224  -5.096  0.00  0.00    +0.029 A 
ATOM      4  C   UNL     1       5.330  -1.684  -5.720  0.00  0.00    +0.144 A 
ATOM      5  O   UNL     1       4.280  -1.367  -4.943  0.00  0.00    -0.450 OA
ENDROOT
BRANCH   3   6
ATOM      6  C   UNL     1       7.871  -1.357  -5.591  0.00  0.00    -0.014 A 
ATOM      7  C   UNL     1       8.384  -2.616  -5.904  0.00  0.00    +0.009 A 
ATOM      8  C   UNL     1       9.674  -2.738  -6.363  0.00  0.00    +0.010 A 
ATOM      9  C   UNL     1      10.479  -1.600  -6.520  0.00  0.00    +0.003 A 
ATOM     10  C   UNL     1       9.963  -0.343  -6.207  0.00  0.00    -0.037 A 
ATOM     11  C   UNL     1       8.666  -0.223  -5.752  0.00  0.00    +0.013 A 
ATOM     12  C   UNL     1      11.013   0.713  -6.458  0.00  0.00    +0.042 C 
ATOM     13  C   UNL     1      12.258  -0.026  -6.967  0.00  0.00    +0.064 C 
ATOM     14  C   UNL     1      11.874  -1.486  -6.990  0.00  0.00    +0.088 C 
ATOM     15  N   UNL     1      12.635  -2.466  -7.358  0.00  0.00    -0.092 NA
BRANCH  15  16
ATOM     16  O   UNL     1      13.959  -2.211  -7.789  0.00  0.00    -0.409 OA
ATOM     17  H   UNL     1      14.450  -3.005  -8.043  0.00  0.00    +0.328 HD
ENDBRANCH  15  16
ENDBRANCH   3   6
BRANCH   4  18
ATOM     18  C   UNL     1       5.269  -2.399  -7.008  0.00  0.00    +0.021 A 
ATOM     19  C   UNL     1       4.498  -3.561  -7.152  0.00  0.00    +0.031 A 
ATOM     20  C   UNL     1       4.470  -4.197  -8.375  0.00  0.00    +0.111 A 
ATOM     21  N   UNL     1       5.155  -3.727  -9.400  0.00  0.00    -0.263 NA
ATOM     22  C   UNL     1       5.894  -2.637  -9.309  0.00  0.00    +0.111 A 
ATOM     23  C   UNL     1       5.976  -1.933  -8.125  0.00  0.00    +0.031 A 
ENDBRANCH   4  18
BRANCH   1  25
ATOM     24  N   UNL     1       2.519  -0.378  -2.826  0.00  0.00    -0.311 N 
ATOM     25  C   UNL     1       3.854  -0.204  -2.766  0.00  0.00    +0.279 C 
ATOM     26  O   UNL     1       4.351   0.375  -1.818  0.00  0.00    -0.267 OA
ATOM     27  H   UNL     1       2.123  -0.839  -3.582  0.00  0.00    +0.149 HD
BRANCH  24  28
ATOM     28  C   UNL     1       1.665   0.130  -1.749  0.00  0.00    +0.086 C 
BRANCH  28  29
ATOM     29  C   UNL     1       0.203  -0.196  -2.060  0.00  0.00    -0.061 C 
BRANCH  29  31
ATOM     30  C   UNL     1      -0.581   1.780  -0.948  0.00  0.00    -0.097 C 
ATOM     31  N   UNL     1      -0.653   0.313  -0.980  0.00  0.00    +0.377 N 
ATOM     32  C   UNL     1      -2.041  -0.104  -1.218  0.00  0.00    -0.097 C 
ATOM     33  H   UNL     1      -0.337  -0.059  -0.097  0.00  0.00    -0.083 HD
ENDBRANCH  29  31
ENDBRANCH  28  29
ENDBRANCH  24  28
ENDBRANCH   1  25
TORSDOF 7
