REMARK  Name = CHEMBL478190
REMARK  11 active torsions:
REMARK  status: ('A' for Active; 'I' for Inactive)
REMARK    1  A    between atoms: C_1  and  C_2
REMARK    2  A    between atoms: C_2  and  C_3
REMARK    3  A    between atoms: C_2  and  N_34
REMARK    4  A    between atoms: C_3  and  O_4
REMARK    5  A    between atoms: O_4  and  C_5
REMARK    6  A    between atoms: C_9  and  C_11
REMARK    7  A    between atoms: C_14  and  C_28
REMARK    8  A    between atoms: C_15  and  C_17
REMARK    9  A    between atoms: N_26  and  O_27
REMARK   10  A    between atoms: N_34  and  C_35
REMARK   11  A    between atoms: N_34  and  C_36
REMARK                            x       y       z     vdW  Elec       q    Type
REMARK                         _______ _______ _______ _____ _____    ______ ____
ROOT
ATOM      1  C   UNL     1      -6.170   0.348   3.610  0.00  0.00    +0.158 A 
ATOM      2  N   UNL     1      -7.426   0.076   3.879  0.00  0.00    -0.226 NA
ATOM      3  H   UNL     1      -4.791   1.580   4.589  0.00  0.00    +0.167 HD
ATOM      4  C   UNL     1      -7.807   0.747   4.975  0.00  0.00    +0.097 A 
ATOM      5  C   UNL     1      -6.717   1.485   5.417  0.00  0.00    +0.074 A 
ATOM      6  N   UNL     1      -5.690   1.218   4.548  0.00  0.00    -0.336 N 
ENDROOT
BRANCH   5   7
ATOM      7  C   UNL     1      -6.671   2.375   6.592  0.00  0.00    +0.001 A 
ATOM      8  C   UNL     1      -7.717   3.270   6.835  0.00  0.00    +0.010 A 
ATOM      9  C   UNL     1      -7.673   4.092   7.922  0.00  0.00    +0.011 A 
ATOM     10  C   UNL     1      -6.579   4.045   8.802  0.00  0.00    +0.003 A 
ATOM     11  C   UNL     1      -5.536   3.151   8.557  0.00  0.00    -0.037 A 
ATOM     12  C   UNL     1      -5.584   2.322   7.468  0.00  0.00    +0.014 A 
ATOM     13  C   UNL     1      -4.487   3.289   9.635  0.00  0.00    +0.042 C 
ATOM     14  C   UNL     1      -4.991   4.378  10.592  0.00  0.00    +0.064 C 
ATOM     15  C   UNL     1      -6.316   4.827  10.025  0.00  0.00    +0.088 C 
ATOM     16  N   UNL     1      -7.087   5.738  10.525  0.00  0.00    -0.092 NA
BRANCH  16  17
ATOM     17  O   UNL     1      -6.709   6.413  11.711  0.00  0.00    -0.409 OA
ATOM     18  H   UNL     1      -7.348   7.076  12.007  0.00  0.00    +0.328 HD
ENDBRANCH  16  17
ENDBRANCH   5   7
BRANCH   1  23
ATOM     19  C   UNL     1      -3.431  -0.350   1.282  0.00  0.00    +0.318 A 
ATOM     20  N   UNL     1      -3.968  -1.194   0.416  0.00  0.00    -0.203 NA
ATOM     21  C   UNL     1      -5.229  -1.582   0.532  0.00  0.00    +0.118 A 
ATOM     22  C   UNL     1      -5.993  -1.093   1.577  0.00  0.00    +0.051 A 
ATOM     23  C   UNL     1      -5.398  -0.203   2.477  0.00  0.00    +0.113 A 
ATOM     24  N   UNL     1      -4.121   0.138   2.298  0.00  0.00    -0.192 NA
BRANCH  19  25
ATOM     25  O   UNL     1      -2.137   0.021   1.126  0.00  0.00    -0.464 OA
BRANCH  25  26
ATOM     26  C   UNL     1      -1.433  -0.534   0.013  0.00  0.00    +0.217 C 
BRANCH  26  28
ATOM     27  C   UNL     1      -0.019   1.526   0.010  0.00  0.00    -0.010 C 
ATOM     28  C   UNL     1       0.002  -0.004   0.002  0.00  0.00    -0.034 C 
BRANCH  28  29
ATOM     29  N   UNL     1       0.713  -0.491   1.192  0.00  0.00    +0.380 N 
ATOM     30  C   UNL     1       0.733  -1.960   1.184  0.00  0.00    -0.096 C 
ATOM     31  C   UNL     1       2.091   0.018   1.182  0.00  0.00    -0.096 C 
ATOM     32  H   UNL     1       0.240  -0.165   2.022  0.00  0.00    -0.082 HD
ENDBRANCH  28  29
ENDBRANCH  26  28
ENDBRANCH  25  26
ENDBRANCH  19  25
ENDBRANCH   1  23
BRANCH   4  33
ATOM     33  C   UNL     1      -9.148   0.708   5.602  0.00  0.00    +0.005 A 
ATOM     34  C   UNL     1      -9.295   0.795   6.990  0.00  0.00    +0.030 A 
ATOM     35  C   UNL     1     -10.563   0.756   7.532  0.00  0.00    +0.111 A 
ATOM     36  N   UNL     1     -11.626   0.638   6.760  0.00  0.00    -0.263 NA
ATOM     37  C   UNL     1     -11.532   0.553   5.446  0.00  0.00    +0.111 A 
ATOM     38  C   UNL     1     -10.303   0.590   4.821  0.00  0.00    +0.030 A 
ENDBRANCH   4  33
TORSDOF 8
