REMARK  Name = CHEMBL583894
REMARK  6 active torsions:
REMARK  status: ('A' for Active; 'I' for Inactive)
REMARK    1  A    between atoms: C_1  and  C_2
REMARK    2  A    between atoms: C_2  and  O_3
REMARK    3  A    between atoms: O_3  and  C_4
REMARK    4  A    between atoms: C_12  and  C_14
REMARK    5  A    between atoms: C_21  and  C_33
REMARK    6  A    between atoms: C_22  and  C_23
REMARK                            x       y       z     vdW  Elec       q    Type
REMARK                         _______ _______ _______ _____ _____    ______ ____
ROOT
ATOM      1  C   UNL     1      -5.942  -3.646  -0.660  0.00  0.00    +0.050 A 
ATOM      2  C   UNL     1      -7.093  -4.118  -1.197  0.00  0.00    +0.043 A 
ATOM      3  C   UNL     1      -8.064  -4.684  -0.358  0.00  0.00    +0.115 A 
ATOM      4  N   UNL     1      -7.858  -4.755   0.937  0.00  0.00    -0.236 NA
ATOM      5  C   UNL     1      -6.726  -4.292   1.478  0.00  0.00    +0.164 A 
ATOM      6  N   UNL     1      -5.751  -3.736   0.689  0.00  0.00    -0.217 N 
ATOM      7  N   UNL     1      -4.691  -3.350   1.516  0.00  0.00    -0.164 NA
ATOM      8  C   UNL     1      -4.983  -3.655   2.767  0.00  0.00    +0.103 A 
ATOM      9  C   UNL     1      -6.262  -4.244   2.797  0.00  0.00    +0.054 A 
ENDROOT
BRANCH   1  18
ATOM     10  C   UNL     1      -4.998   1.013  -2.093  0.00  0.00    +0.403 C 
ATOM     11  O   UNL     1      -4.195   1.682  -1.474  0.00  0.00    -0.226 OA
ATOM     12  N   UNL     1      -5.400  -0.178  -1.607  0.00  0.00    -0.261 N 
ATOM     13  C   UNL     1      -6.358  -1.138  -2.209  0.00  0.00    +0.080 C 
ATOM     14  C   UNL     1      -7.209  -1.626  -1.014  0.00  0.00    +0.024 C 
ATOM     15  C   UNL     1      -6.304  -1.429   0.220  0.00  0.00    +0.024 C 
ATOM     16  C   UNL     1      -4.986  -0.843  -0.348  0.00  0.00    +0.080 C 
ATOM     17  C   UNL     1      -4.072  -2.018  -0.732  0.00  0.00    +0.032 C 
ATOM     18  C   UNL     1      -4.884  -3.033  -1.541  0.00  0.00    +0.041 C 
ATOM     19  C   UNL     1      -5.542  -2.334  -2.725  0.00  0.00    +0.032 C 
BRANCH  10  20
ATOM     20  O   UNL     1      -5.486   1.461  -3.265  0.00  0.00    -0.451 OA
BRANCH  20  22
ATOM     21  C   UNL     1      -5.677   3.071  -5.057  0.00  0.00    +0.048 C 
ATOM     22  C   UNL     1      -5.016   2.732  -3.720  0.00  0.00    +0.230 C 
ENDBRANCH  20  22
ENDBRANCH  10  20
ENDBRANCH   1  18
BRANCH   9  23
ATOM     23  C   UNL     1      -6.976  -4.734   3.997  0.00  0.00    -0.010 A 
ATOM     24  C   UNL     1      -7.443  -3.821   4.951  0.00  0.00    +0.009 A 
ATOM     25  C   UNL     1      -8.102  -4.260   6.061  0.00  0.00    +0.010 A 
ATOM     26  C   UNL     1      -8.314  -5.629   6.251  0.00  0.00    -0.000 A 
ATOM     27  C   UNL     1      -8.965  -6.419   7.299  0.00  0.00    +0.027 A 
ATOM     28  C   UNL     1      -8.862  -7.708   6.941  0.00  0.00    +0.083 A 
ATOM     29  N   UNL     1      -8.197  -7.810   5.749  0.00  0.00    -0.361 N 
ATOM     30  H   UNL     1      -8.002  -8.642   5.289  0.00  0.00    +0.165 HD
ATOM     31  C   UNL     1      -7.848  -6.556   5.300  0.00  0.00    +0.047 A 
ATOM     32  C   UNL     1      -7.183  -6.099   4.170  0.00  0.00    +0.035 A 
ENDBRANCH   9  23
BRANCH   8  33
ATOM     33  C   UNL     1      -4.117  -3.406   3.944  0.00  0.00    +0.006 A 
ATOM     34  C   UNL     1      -4.008  -4.352   4.968  0.00  0.00    +0.030 A 
ATOM     35  C   UNL     1      -3.190  -4.080   6.045  0.00  0.00    +0.111 A 
ATOM     36  N   UNL     1      -2.517  -2.948   6.116  0.00  0.00    -0.263 NA
ATOM     37  C   UNL     1      -2.592  -2.029   5.172  0.00  0.00    +0.111 A 
ATOM     38  C   UNL     1      -3.381  -2.222   4.057  0.00  0.00    +0.030 A 
ENDBRANCH   8  33
TORSDOF 5
