REMARK  Name = CHEMBL497701
REMARK  4 active torsions:
REMARK  status: ('A' for Active; 'I' for Inactive)
REMARK    1  A    between atoms: C_1  and  N_2
REMARK    2  A    between atoms: C_4  and  C_13
REMARK    3  A    between atoms: C_5  and  C_7
REMARK    4  A    between atoms: N_22  and  O_23
REMARK                            x       y       z     vdW  Elec       q    Type
REMARK                         _______ _______ _______ _____ _____    ______ ____
ROOT
ATOM      1  C   UNL     1      -0.018   1.461   0.010  0.00  0.00    +0.172 C 
ATOM      2  N   UNL     1       0.002  -0.004   0.002  0.00  0.00    -0.273 N 
ATOM      3  C   UNL     1       0.008  -0.786  -1.097  0.00  0.00    +0.117 A 
ATOM      4  C   UNL     1       0.028  -2.086  -0.684  0.00  0.00    +0.029 A 
ATOM      5  C   UNL     1       0.035  -2.082   0.735  0.00  0.00    +0.119 A 
ATOM      6  N   UNL     1       0.025  -0.828   1.133  0.00  0.00    -0.169 NA
ENDROOT
BRANCH   4   7
ATOM      7  C   UNL     1       0.040  -3.283  -1.558  0.00  0.00    -0.014 A 
ATOM      8  C   UNL     1       0.977  -4.295  -1.344  0.00  0.00    +0.009 A 
ATOM      9  C   UNL     1       0.987  -5.404  -2.155  0.00  0.00    +0.010 A 
ATOM     10  C   UNL     1       0.058  -5.525  -3.200  0.00  0.00    +0.003 A 
ATOM     11  C   UNL     1      -0.876  -4.512  -3.411  0.00  0.00    -0.037 A 
ATOM     12  C   UNL     1      -0.888  -3.402  -2.591  0.00  0.00    +0.013 A 
ATOM     13  C   UNL     1      -1.757  -4.871  -4.583  0.00  0.00    +0.042 C 
ATOM     14  C   UNL     1      -1.269  -6.234  -5.091  0.00  0.00    +0.064 C 
ATOM     15  C   UNL     1      -0.120  -6.609  -4.186  0.00  0.00    +0.088 C 
ATOM     16  N   UNL     1       0.586  -7.691  -4.262  0.00  0.00    -0.092 NA
BRANCH  16  17
ATOM     17  O   UNL     1       0.303  -8.651  -5.264  0.00  0.00    -0.409 OA
ATOM     18  H   UNL     1       0.883  -9.425  -5.242  0.00  0.00    +0.328 HD
ENDBRANCH  16  17
ENDBRANCH   4   7
BRANCH   5  19
ATOM     19  C   UNL     1       0.056  -3.277   1.611  0.00  0.00    +0.095 A 
ATOM     20  C   UNL     1       0.565  -3.196   2.910  0.00  0.00    +0.050 A 
ATOM     21  C   UNL     1       0.561  -4.340   3.688  0.00  0.00    +0.114 A 
ATOM     22  N   UNL     1       0.081  -5.465   3.180  0.00  0.00    -0.244 NA
ATOM     23  C   UNL     1      -0.392  -5.508   1.950  0.00  0.00    +0.221 A 
ATOM     24  N   UNL     1      -0.414  -4.444   1.175  0.00  0.00    -0.234 NA
ENDBRANCH   5  19
TORSDOF 3
