REMARK  Name = CHEMBL258454
REMARK  7 active torsions:
REMARK  status: ('A' for Active; 'I' for Inactive)
REMARK    1  A    between atoms: C_1  and  N_2
REMARK    2  A    between atoms: C_7  and  C_9
REMARK    3  A    between atoms: C_10  and  C_19
REMARK    4  A    between atoms: C_12  and  C_15
REMARK    5  A    between atoms: C_23  and  N_25
REMARK    6  A    between atoms: C_26  and  C_28
REMARK    7  A    between atoms: C_28  and  C_29
REMARK                            x       y       z     vdW  Elec       q    Type
REMARK                         _______ _______ _______ _____ _____    ______ ____
ROOT
ATOM      1  C   UNL     1      -2.097  -3.925   0.284  0.00  0.00    +0.093 A 
ATOM      2  C   UNL     1      -1.127  -4.805  -0.163  0.00  0.00    +0.099 A 
ATOM      3  N   UNL     1      -1.505  -6.041   0.208  0.00  0.00    -0.223 NA
ATOM      4  C   UNL     1      -2.638  -5.977   0.850  0.00  0.00    +0.213 A 
ATOM      5  N   UNL     1      -3.042  -4.692   0.928  0.00  0.00    -0.333 N 
ATOM      6  H   UNL     1      -3.850  -4.369   1.357  0.00  0.00    +0.167 HD
ENDROOT
BRANCH   1  13
ATOM      7  C   UNL     1       0.214   1.651  -0.579  0.00  0.00    +0.128 C 
ATOM      8  N   UNL     1       0.207   0.196  -0.410  0.00  0.00    -0.317 N 
ATOM      9  C   UNL     1      -0.990  -0.473  -0.226  0.00  0.00    +0.215 A 
ATOM     10  N   UNL     1      -2.120   0.218  -0.210  0.00  0.00    -0.223 NA
ATOM     11  C   UNL     1      -3.288  -0.384  -0.036  0.00  0.00    +0.116 A 
ATOM     12  C   UNL     1      -3.323  -1.755   0.131  0.00  0.00    +0.050 A 
ATOM     13  C   UNL     1      -2.113  -2.461   0.110  0.00  0.00    +0.094 A 
ATOM     14  N   UNL     1      -0.976  -1.788  -0.075  0.00  0.00    -0.213 NA
ATOM     15  H   UNL     1       1.042  -0.298  -0.428  0.00  0.00    +0.149 HD
ENDBRANCH   1  13
BRANCH   2  16
ATOM     16  C   UNL     1       0.102  -4.451  -0.912  0.00  0.00    +0.004 A 
ATOM     17  C   UNL     1       0.083  -3.400  -1.830  0.00  0.00    +0.010 A 
ATOM     18  C   UNL     1       1.228  -3.072  -2.526  0.00  0.00    +0.002 A 
ATOM     19  C   UNL     1       2.397  -3.781  -2.318  0.00  0.00    +0.023 A 
ATOM     20  C   UNL     1       2.425  -4.829  -1.406  0.00  0.00    +0.034 A 
ATOM     21  C   UNL     1       1.280  -5.162  -0.697  0.00  0.00    +0.033 A 
BRANCH  20  22
ATOM     22  N   UNL     1       3.609  -5.545  -1.199  0.00  0.00    -0.285 N 
ATOM     23  C   UNL     1       3.560  -6.859  -0.907  0.00  0.00    +0.222 C 
ATOM     24  O   UNL     1       2.497  -7.444  -0.917  0.00  0.00    -0.275 OA
ATOM     25  H   UNL     1       4.466  -5.095  -1.266  0.00  0.00    +0.155 HD
BRANCH  23  26
ATOM     26  C   UNL     1       4.825  -7.604  -0.567  0.00  0.00    +0.131 C 
BRANCH  26  27
ATOM     27  C   UNL     1       4.498  -9.047  -0.283  0.00  0.00    -0.039 A 
ATOM     28  C   UNL     1       4.187  -9.445   1.004  0.00  0.00    +0.005 A 
ATOM     29  C   UNL     1       3.887 -10.769   1.265  0.00  0.00    +0.020 A 
ATOM     30  C   UNL     1       3.898 -11.696   0.238  0.00  0.00    +0.041 A 
ATOM     31  C   UNL     1       4.210 -11.297  -1.050  0.00  0.00    +0.020 A 
ATOM     32  C   UNL     1       4.505  -9.972  -1.311  0.00  0.00    +0.005 A 
ATOM     33 CL   UNL     1       3.522 -13.359   0.565  0.00  0.00    -0.084 Cl
ENDBRANCH  26  27
ENDBRANCH  23  26
ENDBRANCH  20  22
ENDBRANCH   2  16
BRANCH   4  34
ATOM     34  C   UNL     1      -3.380  -7.157   1.423  0.00  0.00    +0.450 C 
ATOM     35  F   UNL     1      -2.528  -8.266   1.469  0.00  0.00    -0.163 F 
ATOM     36  F   UNL     1      -3.817  -6.851   2.716  0.00  0.00    -0.163 F 
ATOM     37  F   UNL     1      -4.484  -7.451   0.615  0.00  0.00    -0.163 F 
ENDBRANCH   4  34
TORSDOF 6
