REMARK  Name = CHEMBL1091843
REMARK  5 active torsions:
REMARK  status: ('A' for Active; 'I' for Inactive)
REMARK    1  A    between atoms: C_3  and  C_21
REMARK    2  A    between atoms: C_5  and  N_7
REMARK    3  A    between atoms: N_10  and  C_11
REMARK    4  A    between atoms: C_15  and  C_17
REMARK    5  A    between atoms: C_28  and  C_30
REMARK                            x       y       z     vdW  Elec       q    Type
REMARK                         _______ _______ _______ _____ _____    ______ ____
ROOT
ATOM      1  C   UNL     1      -0.309   1.300  -0.411  0.00  0.00    +0.002 A 
ATOM      2  C   UNL     1       0.824   2.073  -0.563  0.00  0.00    +0.010 A 
ATOM      3  C   UNL     1       2.083   1.470  -0.584  0.00  0.00    +0.002 A 
ATOM      4  C   UNL     1       2.191   0.085  -0.452  0.00  0.00    +0.033 A 
ATOM      5  C   UNL     1       1.047  -0.682  -0.301  0.00  0.00    +0.035 A 
ATOM      6  C   UNL     1      -0.202  -0.072  -0.281  0.00  0.00    +0.023 A 
ENDROOT
BRANCH   3   7
ATOM      7  C   UNL     1       3.298   2.296  -0.746  0.00  0.00    +0.076 A 
ATOM      8  C   UNL     1       4.231   2.378   0.266  0.00  0.00    +0.048 A 
ATOM      9  C   UNL     1       5.370   3.168   0.080  0.00  0.00    +0.115 A 
ATOM     10  N   UNL     1       5.548   3.824  -1.043  0.00  0.00    -0.236 NA
ATOM     11  C   UNL     1       4.653   3.756  -2.038  0.00  0.00    +0.157 A 
ATOM     12  N   UNL     1       3.521   2.991  -1.910  0.00  0.00    -0.213 N 
ATOM     13  N   UNL     1       2.787   3.107  -3.095  0.00  0.00    -0.164 NA
ATOM     14  C   UNL     1       3.439   3.906  -3.923  0.00  0.00    +0.095 A 
ATOM     15  C   UNL     1       4.609   4.341  -3.295  0.00  0.00    +0.078 A 
BRANCH  14  16
ATOM     16  C   UNL     1       2.996   4.287  -5.287  0.00  0.00    +0.005 A 
ATOM     17  C   UNL     1       3.769   5.136  -6.082  0.00  0.00    +0.030 A 
ATOM     18  C   UNL     1       3.320   5.465  -7.345  0.00  0.00    +0.111 A 
ATOM     19  N   UNL     1       2.178   4.989  -7.802  0.00  0.00    -0.263 NA
ATOM     20  C   UNL     1       1.418   4.184  -7.084  0.00  0.00    +0.111 A 
ATOM     21  C   UNL     1       1.796   3.800  -5.814  0.00  0.00    +0.030 A 
ENDBRANCH  14  16
ENDBRANCH   3   7
BRANCH   5  22
ATOM     22  N   UNL     1       1.149  -2.072  -0.168  0.00  0.00    -0.269 N 
ATOM     23  C   UNL     1       2.097  -2.746  -0.849  0.00  0.00    +0.308 C 
ATOM     24  O   UNL     1       2.916  -2.139  -1.512  0.00  0.00    -0.252 OA
ATOM     25  N   UNL     1       2.137  -4.092  -0.795  0.00  0.00    -0.269 N 
ATOM     26  H   UNL     1       0.537  -2.550   0.413  0.00  0.00    +0.156 HD
ATOM     27  H   UNL     1       1.440  -4.580  -0.328  0.00  0.00    +0.156 HD
BRANCH  25  28
ATOM     28  C   UNL     1       3.183  -4.786  -1.413  0.00  0.00    +0.035 A 
ATOM     29  C   UNL     1       4.455  -4.230  -1.461  0.00  0.00    +0.023 A 
ATOM     30  C   UNL     1       5.485  -4.918  -2.071  0.00  0.00    +0.002 A 
ATOM     31  C   UNL     1       5.251  -6.160  -2.634  0.00  0.00    +0.012 A 
ATOM     32  C   UNL     1       3.986  -6.715  -2.589  0.00  0.00    +0.057 A 
ATOM     33  C   UNL     1       2.953  -6.035  -1.975  0.00  0.00    +0.035 A 
BRANCH  32  34
ATOM     34  C   UNL     1       3.736  -8.068  -3.205  0.00  0.00    +0.417 C 
ATOM     35  F   UNL     1       4.926  -8.557  -3.756  0.00  0.00    -0.166 F 
ATOM     36  F   UNL     1       3.280  -8.951  -2.220  0.00  0.00    -0.166 F 
ATOM     37  F   UNL     1       2.770  -7.951  -4.210  0.00  0.00    -0.166 F 
ENDBRANCH  32  34
ENDBRANCH  25  28
ENDBRANCH   5  22
TORSDOF 5
