REMARK  Name = CHEMBL1076541
REMARK  9 active torsions:
REMARK  status: ('A' for Active; 'I' for Inactive)
REMARK    1  A    between atoms: C_1  and  C_2
REMARK    2  A    between atoms: C_2  and  N_3
REMARK    3  A    between atoms: N_6  and  C_9
REMARK    4  A    between atoms: C_9  and  C_10
REMARK    5  A    between atoms: C_12  and  C_15
REMARK    6  A    between atoms: C_23  and  C_24
REMARK    7  A    between atoms: C_28  and  N_30
REMARK    8  A    between atoms: C_31  and  C_33
REMARK    9  A    between atoms: C_37  and  C_39
REMARK                            x       y       z     vdW  Elec       q    Type
REMARK                         _______ _______ _______ _____ _____    ______ ____
ROOT
ATOM      1  C   UNL     1      -5.575  -7.737   1.733  0.00  0.00    +0.049 A 
ATOM      2  C   UNL     1      -4.582  -8.004   2.679  0.00  0.00    +0.145 A 
ATOM      3  N   UNL     1      -4.778  -9.204   3.173  0.00  0.00    -0.172 NA
ATOM      4  N   UNL     1      -5.905  -9.771   2.570  0.00  0.00    -0.213 N 
ATOM      5  C   UNL     1      -6.409  -8.860   1.677  0.00  0.00    +0.164 A 
ATOM      6  N   UNL     1      -7.500  -9.138   0.957  0.00  0.00    -0.236 NA
ATOM      7  C   UNL     1      -8.125 -10.287   1.082  0.00  0.00    +0.115 A 
ATOM      8  C   UNL     1      -7.659 -11.252   1.979  0.00  0.00    +0.048 A 
ATOM      9  C   UNL     1      -6.529 -10.987   2.725  0.00  0.00    +0.076 A 
ENDROOT
BRANCH   9  10
ATOM     10  C   UNL     1      -6.009 -11.982   3.685  0.00  0.00    +0.002 A 
ATOM     11  C   UNL     1      -6.027 -11.711   5.055  0.00  0.00    +0.010 A 
ATOM     12  C   UNL     1      -5.542 -12.642   5.949  0.00  0.00    +0.002 A 
ATOM     13  C   UNL     1      -5.036 -13.846   5.494  0.00  0.00    +0.023 A 
ATOM     14  C   UNL     1      -5.014 -14.127   4.133  0.00  0.00    +0.034 A 
ATOM     15  C   UNL     1      -5.505 -13.200   3.226  0.00  0.00    +0.033 A 
BRANCH  14  16
ATOM     16  N   UNL     1      -4.502 -15.346   3.678  0.00  0.00    -0.281 N 
ATOM     17  C   UNL     1      -3.860 -15.408   2.494  0.00  0.00    +0.248 C 
ATOM     18  O   UNL     1      -3.642 -14.390   1.867  0.00  0.00    -0.270 OA
ATOM     19  H   UNL     1      -4.608 -16.147   4.215  0.00  0.00    +0.155 HD
BRANCH  17  20
ATOM     20  C   UNL     1      -3.422 -16.714   1.959  0.00  0.00    +0.038 A 
ATOM     21  C   UNL     1      -3.675 -17.886   2.674  0.00  0.00    +0.013 A 
ATOM     22  C   UNL     1      -3.264 -19.102   2.169  0.00  0.00    +0.001 A 
ATOM     23  C   UNL     1      -2.601 -19.161   0.956  0.00  0.00    +0.012 A 
ATOM     24  C   UNL     1      -2.346 -18.004   0.242  0.00  0.00    +0.056 A 
ATOM     25  C   UNL     1      -2.757 -16.782   0.734  0.00  0.00    +0.025 A 
BRANCH  24  26
ATOM     26  C   UNL     1      -1.623 -18.078  -1.078  0.00  0.00    +0.417 C 
ATOM     27  F   UNL     1      -1.315 -19.412  -1.366  0.00  0.00    -0.166 F 
ATOM     28  F   UNL     1      -2.441 -17.560  -2.088  0.00  0.00    -0.166 F 
ATOM     29  F   UNL     1      -0.442 -17.332  -1.006  0.00  0.00    -0.166 F 
ENDBRANCH  24  26
ENDBRANCH  17  20
ENDBRANCH  14  16
ENDBRANCH   9  10
BRANCH   1  32
ATOM     30  C   UNL     1      -5.875  -4.324   0.369  0.00  0.00    +0.089 A 
ATOM     31  C   UNL     1      -5.712  -5.114   1.444  0.00  0.00    +0.051 A 
ATOM     32  C   UNL     1      -5.721  -6.492   0.939  0.00  0.00    +0.025 A 
ATOM     33  C   UNL     1      -5.891  -6.392  -0.405  0.00  0.00    +0.203 A 
ATOM     34  O   UNL     1      -5.986  -5.091  -0.725  0.00  0.00    -0.469 OA
BRANCH  30  35
ATOM     35  C   UNL     1      -5.931  -2.818   0.391  0.00  0.00    -0.003 C 
BRANCH  35  39
ATOM     36  N   UNL     1      -2.673  -0.618  -1.115  0.00  0.00    -0.306 NA
ATOM     37  C   UNL     1      -3.200  -0.249   0.206  0.00  0.00    +0.066 C 
ATOM     38  C   UNL     1      -4.614  -0.814   0.363  0.00  0.00    -0.063 C 
ATOM     39  N   UNL     1      -4.576  -2.275   0.222  0.00  0.00    +0.386 N 
ATOM     40  C   UNL     1      -4.071  -2.627  -1.111  0.00  0.00    -0.063 C 
ATOM     41  C   UNL     1      -2.652  -2.078  -1.280  0.00  0.00    +0.066 C 
ATOM     42  H   UNL     1      -3.968  -2.665   0.926  0.00  0.00    -0.081 HD
BRANCH  36  44
ATOM     43  C   UNL     1      -1.440   1.479  -1.395  0.00  0.00    +0.020 C 
ATOM     44  C   UNL     1      -1.336  -0.046  -1.327  0.00  0.00    +0.081 C 
ENDBRANCH  36  44
ENDBRANCH  35  39
ENDBRANCH  30  35
ENDBRANCH   1  32
TORSDOF 8
