REMARK  Name = CHEMBL576787
REMARK  5 active torsions:
REMARK  status: ('A' for Active; 'I' for Inactive)
REMARK    1  A    between atoms: C_1  and  C_2
REMARK    2  A    between atoms: C_7  and  C_8
REMARK    3  A    between atoms: N_18  and  C_19
REMARK    4  A    between atoms: C_23  and  N_24
REMARK    5  A    between atoms: N_24  and  C_25
REMARK                            x       y       z     vdW  Elec       q    Type
REMARK                         _______ _______ _______ _____ _____    ______ ____
ROOT
ATOM      1  C   UNL     1      -0.897   1.419   0.068  0.00  0.00    +0.044 C 
ATOM      2  C   UNL     1      -0.636  -0.065   0.044  0.00  0.00    -0.042 A 
ATOM      3  C   UNL     1      -0.664  -0.749  -1.166  0.00  0.00    +0.004 A 
ATOM      4  C   UNL     1      -0.432  -2.092  -1.224  0.00  0.00    +0.012 A 
ATOM      5  C   UNL     1      -0.159  -2.806  -0.049  0.00  0.00    +0.023 A 
ATOM      6  C   UNL     1      -0.126  -2.124   1.192  0.00  0.00    -0.005 A 
ATOM      7  C   UNL     1      -0.364  -0.733   1.227  0.00  0.00    -0.007 A 
ATOM      8  C   UNL     1       0.150  -2.865   2.354  0.00  0.00    +0.029 A 
ATOM      9  C   UNL     1       0.375  -4.204   2.242  0.00  0.00    +0.113 A 
ATOM     10  N   UNL     1       0.340  -4.826   1.072  0.00  0.00    -0.240 NA
ATOM     11  C   UNL     1       0.087  -4.197  -0.061  0.00  0.00    +0.131 A 
ENDROOT
BRANCH   7  12
ATOM     12  C   UNL     1      -0.330   0.002   2.512  0.00  0.00    -0.016 A 
ATOM     13  C   UNL     1       0.878   0.107   3.223  0.00  0.00    +0.010 A 
ATOM     14  C   UNL     1       0.937   0.775   4.405  0.00  0.00    +0.029 A 
ATOM     15  C   UNL     1      -0.219   1.373   4.931  0.00  0.00    +0.076 A 
ATOM     16  C   UNL     1      -1.444   1.274   4.221  0.00  0.00    +0.019 A 
ATOM     17  C   UNL     1      -1.486   0.586   3.002  0.00  0.00    +0.020 A 
ATOM     18  C   UNL     1      -2.588   1.884   4.771  0.00  0.00    +0.124 A 
ATOM     19  N   UNL     1      -2.471   2.518   5.919  0.00  0.00    -0.222 NA
ATOM     20  C   UNL     1      -1.305   2.591   6.558  0.00  0.00    +0.215 A 
ATOM     21  N   UNL     1      -0.201   2.040   6.091  0.00  0.00    -0.215 NA
ATOM     22  N   UNL     1      -1.249   3.273   7.760  0.00  0.00    -0.317 N 
ATOM     23  C   UNL     1      -2.457   3.897   8.305  0.00  0.00    +0.128 C 
ATOM     24  H   UNL     1      -0.410   3.338   8.242  0.00  0.00    +0.149 HD
ENDBRANCH   7  12
BRANCH  11  25
ATOM     25  N   UNL     1       0.063  -4.898  -1.255  0.00  0.00    -0.299 N 
ATOM     26  H   UNL     1      -0.041  -4.423  -2.094  0.00  0.00    +0.154 HD
BRANCH  25  27
ATOM     27  C   UNL     1       0.188  -6.290  -1.251  0.00  0.00    +0.032 A 
ATOM     28  C   UNL     1      -0.393  -7.038  -0.235  0.00  0.00    +0.025 A 
ATOM     29  C   UNL     1      -0.267  -8.414  -0.233  0.00  0.00    +0.022 A 
ATOM     30  C   UNL     1       0.435  -9.047  -1.244  0.00  0.00    +0.041 A 
ATOM     31  C   UNL     1       1.014  -8.304  -2.258  0.00  0.00    +0.022 A 
ATOM     32  C   UNL     1       0.887  -6.929  -2.267  0.00  0.00    +0.025 A 
ATOM     33 CL   UNL     1       0.591 -10.776  -1.238  0.00  0.00    -0.084 Cl
ENDBRANCH  25  27
ENDBRANCH  11  25
TORSDOF 3
