REMARK  Name = CHEMBL429498
REMARK  9 active torsions:
REMARK  status: ('A' for Active; 'I' for Inactive)
REMARK    1  A    between atoms: C_3  and  C_18
REMARK    2  A    between atoms: C_5  and  N_7
REMARK    3  A    between atoms: C_8  and  C_10
REMARK    4  A    between atoms: C_10  and  C_11
REMARK    5  A    between atoms: C_19  and  C_27
REMARK    6  A    between atoms: C_22  and  C_24
REMARK    7  A    between atoms: N_33  and  C_34
REMARK    8  A    between atoms: C_34  and  C_35
REMARK    9  A    between atoms: C_35  and  N_36
REMARK                            x       y       z     vdW  Elec       q    Type
REMARK                         _______ _______ _______ _____ _____    ______ ____
ROOT
ATOM      1  C   UNL     1       3.672   2.165   0.010  0.00  0.00    +0.073 A 
ATOM      2  C   UNL     1       3.969   3.272  -0.765  0.00  0.00    +0.091 A 
ATOM      3  N   UNL     1       5.255   3.639  -0.434  0.00  0.00    -0.341 N 
ATOM      4  H   UNL     1       5.754   4.382  -0.805  0.00  0.00    +0.167 HD
ATOM      5  C   UNL     1       5.691   2.772   0.504  0.00  0.00    +0.088 A 
ATOM      6  N   UNL     1       4.752   1.905   0.768  0.00  0.00    -0.343 N 
ATOM      7  H   UNL     1       4.823   1.183   1.412  0.00  0.00    +0.167 HD
ENDROOT
BRANCH   2   8
ATOM      8  C   UNL     1       3.087   3.928  -1.748  0.00  0.00    +0.094 A 
ATOM      9  C   UNL     1       3.268   5.277  -2.079  0.00  0.00    +0.050 A 
ATOM     10  C   UNL     1       2.417   5.847  -3.006  0.00  0.00    +0.116 A 
ATOM     11  N   UNL     1       1.462   5.108  -3.550  0.00  0.00    -0.223 NA
ATOM     12  C   UNL     1       1.312   3.833  -3.220  0.00  0.00    +0.216 A 
ATOM     13  N   UNL     1       2.107   3.244  -2.341  0.00  0.00    -0.213 NA
ATOM     14  N   UNL     1       0.300   3.098  -3.813  0.00  0.00    -0.312 N 
ATOM     15  H   UNL     1       0.179   2.164  -3.580  0.00  0.00    +0.149 HD
BRANCH  14  16
ATOM     16  C   UNL     1      -0.587   3.729  -4.793  0.00  0.00    +0.123 C 
BRANCH  16  17
ATOM     17  C   UNL     1      -1.609   2.705  -5.291  0.00  0.00    +0.128 C 
BRANCH  17  18
ATOM     18  N   UNL     1      -2.496   3.337  -6.271  0.00  0.00    -0.283 N 
ATOM     19  C   UNL     1      -3.757   4.026  -5.958  0.00  0.00    +0.128 C 
ATOM     20  C   UNL     1      -4.273   4.492  -7.333  0.00  0.00    +0.124 C 
ATOM     21  N   UNL     1      -3.249   4.016  -8.274  0.00  0.00    -0.298 N 
ATOM     22  C   UNL     1      -2.285   3.383  -7.592  0.00  0.00    +0.302 C 
ATOM     23  O   UNL     1      -1.308   2.893  -8.126  0.00  0.00    -0.253 OA
ATOM     24  H   UNL     1      -3.266   4.144  -9.236  0.00  0.00    +0.150 HD
ENDBRANCH  17  18
ENDBRANCH  16  17
ENDBRANCH  14  16
ENDBRANCH   2   8
BRANCH   1  27
ATOM     25  C   UNL     1      -0.005   1.382   0.020  0.00  0.00    +0.002 A 
ATOM     26  C   UNL     1       1.181   2.088   0.022  0.00  0.00    +0.010 A 
ATOM     27  C   UNL     1       2.398   1.408   0.009  0.00  0.00    +0.002 A 
ATOM     28  C   UNL     1       2.413   0.015  -0.005  0.00  0.00    +0.033 A 
ATOM     29  C   UNL     1       1.217  -0.687  -0.006  0.00  0.00    +0.034 A 
ATOM     30  C   UNL     1       0.009   0.000   0.006  0.00  0.00    +0.023 A 
BRANCH  29  31
ATOM     31  N   UNL     1       1.227  -2.086  -0.021  0.00  0.00    -0.285 N 
ATOM     32  C   UNL     1       2.183  -2.746  -0.704  0.00  0.00    +0.222 C 
ATOM     33  O   UNL     1       3.083  -2.131  -1.236  0.00  0.00    -0.275 OA
ATOM     34  H   UNL     1       0.545  -2.581   0.460  0.00  0.00    +0.155 HD
BRANCH  32  35
ATOM     35  C   UNL     1       2.134  -4.249  -0.807  0.00  0.00    +0.131 C 
BRANCH  35  36
ATOM     36  C   UNL     1       3.308  -4.736  -1.616  0.00  0.00    -0.039 A 
ATOM     37  C   UNL     1       3.196  -4.864  -2.988  0.00  0.00    +0.005 A 
ATOM     38  C   UNL     1       4.273  -5.310  -3.731  0.00  0.00    +0.020 A 
ATOM     39  C   UNL     1       5.463  -5.628  -3.102  0.00  0.00    +0.041 A 
ATOM     40  C   UNL     1       5.575  -5.500  -1.729  0.00  0.00    +0.020 A 
ATOM     41  C   UNL     1       4.499  -5.048  -0.988  0.00  0.00    +0.005 A 
ATOM     42 CL   UNL     1       6.815  -6.190  -4.035  0.00  0.00    -0.084 Cl
ENDBRANCH  35  36
ENDBRANCH  32  35
ENDBRANCH  29  31
ENDBRANCH   1  27
BRANCH   5  43
ATOM     43  C   UNL     1       7.051   2.804   1.151  0.00  0.00    +0.053 C 
ATOM     44  C   UNL     1       7.694   4.174   1.375  0.00  0.00    +0.012 C 
ATOM     45  C   UNL     1       8.234   3.245   0.286  0.00  0.00    +0.012 C 
ENDBRANCH   5  43
TORSDOF 9
