REMARK  Name = CHEMBL257986
REMARK  10 active torsions:
REMARK  status: ('A' for Active; 'I' for Inactive)
REMARK    1  A    between atoms: C_1  and  C_2
REMARK    2  A    between atoms: C_2  and  C_3
REMARK    3  A    between atoms: C_2  and  C_4
REMARK    4  A    between atoms: C_2  and  N_5
REMARK    5  A    between atoms: N_8  and  C_9
REMARK    6  A    between atoms: C_9  and  C_10
REMARK    7  A    between atoms: C_10  and  N_11
REMARK    8  A    between atoms: C_16  and  C_18
REMARK    9  A    between atoms: C_19  and  C_27
REMARK   10  A    between atoms: C_21  and  C_24
REMARK                            x       y       z     vdW  Elec       q    Type
REMARK                         _______ _______ _______ _____ _____    ______ ____
ROOT
ATOM      1  N   UNL     1       5.865  -0.438  -4.339  0.00  0.00    -0.312 N 
ATOM      2  C   UNL     1       6.513  -0.884  -5.478  0.00  0.00    +0.216 A 
ATOM      3  N   UNL     1       5.853  -1.645  -6.340  0.00  0.00    -0.223 NA
ATOM      4  C   UNL     1       6.437  -2.092  -7.441  0.00  0.00    +0.116 A 
ATOM      5  C   UNL     1       7.754  -1.758  -7.692  0.00  0.00    +0.050 A 
ATOM      6  C   UNL     1       8.426  -0.954  -6.765  0.00  0.00    +0.096 A 
ATOM      7  N   UNL     1       7.774  -0.536  -5.681  0.00  0.00    -0.213 NA
ATOM      8  H   UNL     1       6.335   0.122  -3.702  0.00  0.00    +0.149 HD
ENDROOT
BRANCH   6   9
ATOM      9  C   UNL     1       9.837  -0.569  -6.988  0.00  0.00    +0.115 A 
ATOM     10  C   UNL     1      10.473   0.547  -6.471  0.00  0.00    +0.077 A 
ATOM     11  N   UNL     1      11.764   0.502  -6.935  0.00  0.00    -0.341 N 
ATOM     12  C   UNL     1      11.880  -0.611  -7.703  0.00  0.00    +0.111 A 
ATOM     13  N   UNL     1      10.740  -1.242  -7.727  0.00  0.00    -0.230 NA
ATOM     14  H   UNL     1      12.464   1.147  -6.748  0.00  0.00    +0.167 HD
BRANCH  10  15
ATOM     15  C   UNL     1       9.880   1.579  -5.596  0.00  0.00    +0.019 A 
ATOM     16  C   UNL     1       9.744   2.892  -6.052  0.00  0.00    +0.011 A 
ATOM     17  C   UNL     1       9.190   3.850  -5.229  0.00  0.00    +0.001 A 
ATOM     18  C   UNL     1       8.769   3.514  -3.954  0.00  0.00    +0.001 A 
ATOM     19  C   UNL     1       8.901   2.216  -3.495  0.00  0.00    +0.020 A 
ATOM     20  C   UNL     1       9.448   1.245  -4.309  0.00  0.00    +0.050 A 
ATOM     21 CL   UNL     1       9.607  -0.386  -3.734  0.00  0.00    -0.083 Cl
ENDBRANCH  10  15
BRANCH  12  22
ATOM     22  C   UNL     1      13.133  -1.051  -8.414  0.00  0.00    +0.055 C 
ATOM     23  C   UNL     1      14.248  -0.018  -8.587  0.00  0.00    +0.012 C 
ATOM     24  C   UNL     1      13.412  -0.450  -9.793  0.00  0.00    +0.012 C 
ENDBRANCH  12  22
ENDBRANCH   6   9
BRANCH   1  25
ATOM     25  C   UNL     1       4.470  -0.812  -4.096  0.00  0.00    +0.123 C 
BRANCH  25  26
ATOM     26  C   UNL     1       3.998  -0.193  -2.779  0.00  0.00    +0.124 C 
BRANCH  26  30
ATOM     27  N   UNL     1       0.688  -0.476  -1.203  0.00  0.00    -0.295 N 
ATOM     28  C   UNL     1       1.972  -0.132  -1.427  0.00  0.00    +0.300 C 
ATOM     29  O   UNL     1       2.561   0.570  -0.628  0.00  0.00    -0.253 OA
ATOM     30  N   UNL     1       2.602  -0.567  -2.536  0.00  0.00    -0.298 N 
ATOM     31  H   UNL     1       0.218  -1.037  -1.840  0.00  0.00    +0.151 HD
ATOM     32  H   UNL     1       2.132  -1.127  -3.173  0.00  0.00    +0.150 HD
BRANCH  27  34
ATOM     33  C   UNL     1      -0.019   1.526   0.010  0.00  0.00    +0.031 C 
ATOM     34  C   UNL     1       0.002  -0.004   0.002  0.00  0.00    +0.028 C 
ATOM     35  C   UNL     1       0.742  -0.511   1.242  0.00  0.00    +0.031 C 
ATOM     36  C   UNL     1      -1.433  -0.534   0.013  0.00  0.00    +0.031 C 
ENDBRANCH  27  34
ENDBRANCH  26  30
ENDBRANCH  25  26
ENDBRANCH   1  25
TORSDOF 7
