REMARK  Name = CHEMBL370353
REMARK  4 active torsions:
REMARK  status: ('A' for Active; 'I' for Inactive)
REMARK    1  A    between atoms: C_4  and  C_7
REMARK    2  A    between atoms: C_10  and  C_19
REMARK    3  A    between atoms: C_11  and  C_13
REMARK    4  A    between atoms: C_23  and  O_25
REMARK                            x       y       z     vdW  Elec       q    Type
REMARK                         _______ _______ _______ _____ _____    ______ ____
ROOT
ATOM      1  C   UNL     1       3.696  -0.685  -0.038  0.00  0.00    +0.139 A 
ATOM      2  N   UNL     1       3.846  -2.042  -0.052  0.00  0.00    -0.337 N 
ATOM      3  H   UNL     1       3.134  -2.701  -0.053  0.00  0.00    +0.167 HD
ATOM      4  C   UNL     1       5.195  -2.301  -0.066  0.00  0.00    +0.076 A 
ATOM      5  C   UNL     1       5.830  -1.070  -0.060  0.00  0.00    +0.115 A 
ATOM      6  N   UNL     1       4.880  -0.120  -0.048  0.00  0.00    -0.226 NA
ENDROOT
BRANCH   4   7
ATOM      7  C   UNL     1       5.840  -3.629  -0.084  0.00  0.00    +0.004 A 
ATOM      8  C   UNL     1       6.918  -3.896   0.764  0.00  0.00    +0.011 A 
ATOM      9  C   UNL     1       7.518  -5.138   0.745  0.00  0.00    +0.024 A 
ATOM     10  C   UNL     1       7.056  -6.122  -0.112  0.00  0.00    +0.082 A 
ATOM     11  C   UNL     1       5.984  -5.865  -0.959  0.00  0.00    +0.136 A 
ATOM     12  C   UNL     1       5.371  -4.624  -0.943  0.00  0.00    +0.057 A 
ATOM     13 CL   UNL     1       7.817  -7.681  -0.129  0.00  0.00    -0.080 Cl
BRANCH  11  14
ATOM     14  O   UNL     1       5.535  -6.835  -1.798  0.00  0.00    -0.505 OA
ATOM     15  H   UNL     1       4.845  -7.396  -1.418  0.00  0.00    +0.292 HD
ENDBRANCH  11  14
ENDBRANCH   4   7
BRANCH   1  19
ATOM     16  C   UNL     1      -0.017   1.379   0.010  0.00  0.00    +0.000 A 
ATOM     17  C   UNL     1       1.168   2.093   0.002  0.00  0.00    +0.001 A 
ATOM     18  C   UNL     1       2.377   1.429  -0.013  0.00  0.00    +0.011 A 
ATOM     19  C   UNL     1       2.403   0.034  -0.021  0.00  0.00    +0.017 A 
ATOM     20  C   UNL     1       1.204  -0.681  -0.013  0.00  0.00    +0.011 A 
ATOM     21  C   UNL     1       0.002  -0.004   0.002  0.00  0.00    +0.001 A 
ENDBRANCH   1  19
BRANCH   5  22
ATOM     22  C   UNL     1       7.292  -0.842  -0.070  0.00  0.00    +0.094 A 
ATOM     23  C   UNL     1       7.823   0.354  -0.567  0.00  0.00    +0.049 A 
ATOM     24  C   UNL     1       9.195   0.517  -0.553  0.00  0.00    +0.114 A 
ATOM     25  N   UNL     1       9.957  -0.455  -0.075  0.00  0.00    -0.244 NA
ATOM     26  C   UNL     1       9.428  -1.571   0.387  0.00  0.00    +0.221 A 
ATOM     27  N   UNL     1       8.126  -1.770   0.400  0.00  0.00    -0.234 NA
ENDBRANCH   5  22
TORSDOF 4
