REMARK  Name = CHEMBL569882
REMARK  10 active torsions:
REMARK  status: ('A' for Active; 'I' for Inactive)
REMARK    1  A    between atoms: C_1  and  C_2
REMARK    2  A    between atoms: C_7  and  C_8
REMARK    3  A    between atoms: N_18  and  C_19
REMARK    4  A    between atoms: C_23  and  N_24
REMARK    5  A    between atoms: N_24  and  C_25
REMARK    6  A    between atoms: C_27  and  C_31
REMARK    7  A    between atoms: N_29  and  C_30
REMARK    8  A    between atoms: C_31  and  C_32
REMARK    9  A    between atoms: C_31  and  C_33
REMARK   10  A    between atoms: C_31  and  C_34
REMARK                            x       y       z     vdW  Elec       q    Type
REMARK                         _______ _______ _______ _____ _____    ______ ____
ROOT
ATOM      1  C   UNL     1       0.818   1.569  -0.822  0.00  0.00    +0.044 C 
ATOM      2  C   UNL     1       0.928   0.072  -0.952  0.00  0.00    -0.042 A 
ATOM      3  C   UNL     1      -0.220  -0.710  -0.895  0.00  0.00    +0.004 A 
ATOM      4  C   UNL     1      -0.157  -2.067  -1.009  0.00  0.00    +0.012 A 
ATOM      5  C   UNL     1       1.082  -2.698  -1.186  0.00  0.00    +0.021 A 
ATOM      6  C   UNL     1       2.262  -1.916  -1.246  0.00  0.00    -0.005 A 
ATOM      7  C   UNL     1       2.172  -0.512  -1.131  0.00  0.00    -0.007 A 
ATOM      8  C   UNL     1       3.490  -2.575  -1.426  0.00  0.00    +0.026 A 
ATOM      9  C   UNL     1       3.499  -3.933  -1.534  0.00  0.00    +0.085 A 
ATOM     10  N   UNL     1       2.385  -4.649  -1.476  0.00  0.00    -0.349 N 
ATOM     11  C   UNL     1       1.196  -4.101  -1.309  0.00  0.00    +0.109 A 
ATOM     12  H   UNL     1       2.446  -5.613  -1.560  0.00  0.00    +0.167 HD
ENDROOT
BRANCH   7  13
ATOM     13  C   UNL     1       3.391   0.326  -1.197  0.00  0.00    -0.016 A 
ATOM     14  C   UNL     1       4.131   0.388  -2.390  0.00  0.00    +0.010 A 
ATOM     15  C   UNL     1       5.253   1.149  -2.478  0.00  0.00    +0.029 A 
ATOM     16  C   UNL     1       5.687   1.888  -1.365  0.00  0.00    +0.076 A 
ATOM     17  C   UNL     1       4.947   1.833  -0.155  0.00  0.00    +0.019 A 
ATOM     18  C   UNL     1       3.790   1.048  -0.084  0.00  0.00    +0.020 A 
ATOM     19  C   UNL     1       5.405   2.585   0.944  0.00  0.00    +0.124 A 
ATOM     20  N   UNL     1       6.498   3.304   0.801  0.00  0.00    -0.222 NA
ATOM     21  C   UNL     1       7.168   3.333  -0.350  0.00  0.00    +0.215 A 
ATOM     22  N   UNL     1       6.787   2.650  -1.412  0.00  0.00    -0.215 NA
ATOM     23  N   UNL     1       8.309   4.109  -0.434  0.00  0.00    -0.317 N 
ATOM     24  C   UNL     1       8.759   4.880   0.728  0.00  0.00    +0.128 C 
ATOM     25  H   UNL     1       8.812   4.144  -1.263  0.00  0.00    +0.149 HD
ENDBRANCH   7  13
BRANCH  11  26
ATOM     26  N   UNL     1       0.064  -4.898  -1.255  0.00  0.00    -0.286 N 
ATOM     27  H   UNL     1      -0.815  -4.490  -1.220  0.00  0.00    +0.155 HD
BRANCH  26  28
ATOM     28  C   UNL     1       0.189  -6.285  -1.251  0.00  0.00    +0.122 A 
ATOM     29  C   UNL     1       0.214  -7.089  -0.152  0.00  0.00    +0.069 A 
ATOM     30  C   UNL     1       0.351  -8.409  -0.589  0.00  0.00    +0.070 A 
ATOM     31  N   UNL     1       0.408  -8.408  -1.896  0.00  0.00    -0.174 NA
ATOM     32  N   UNL     1       0.303  -7.085  -2.343  0.00  0.00    -0.253 N 
ATOM     33  C   UNL     1       0.316  -6.642  -3.740  0.00  0.00    +0.174 C 
BRANCH  30  34
ATOM     34  C   UNL     1       0.423  -9.627   0.295  0.00  0.00    +0.006 C 
ATOM     35  C   UNL     1      -0.972  -9.947   0.837  0.00  0.00    +0.017 C 
ATOM     36  C   UNL     1       0.940 -10.816  -0.516  0.00  0.00    +0.017 C 
ATOM     37  C   UNL     1       1.373  -9.354   1.463  0.00  0.00    +0.017 C 
ENDBRANCH  30  34
ENDBRANCH  26  28
ENDBRANCH  11  26
TORSDOF 4
