REMARK  Name = CHEMBL1081647
REMARK  8 active torsions:
REMARK  status: ('A' for Active; 'I' for Inactive)
REMARK    1  A    between atoms: C_3  and  C_20
REMARK    2  A    between atoms: C_5  and  N_7
REMARK    3  A    between atoms: C_8  and  C_10
REMARK    4  A    between atoms: C_14  and  C_16
REMARK    5  A    between atoms: C_28  and  C_29
REMARK    6  A    between atoms: N_32  and  C_34
REMARK    7  A    between atoms: C_34  and  C_35
REMARK    8  A    between atoms: C_35  and  N_36
REMARK                            x       y       z     vdW  Elec       q    Type
REMARK                         _______ _______ _______ _____ _____    ______ ____
ROOT
ATOM      1  C   UNL     1       3.632   2.166  -0.404  0.00  0.00    +0.076 A 
ATOM      2  C   UNL     1       4.654   2.091   0.519  0.00  0.00    +0.048 A 
ATOM      3  C   UNL     1       5.827   2.818   0.298  0.00  0.00    +0.115 A 
ATOM      4  N   UNL     1       5.954   3.566  -0.775  0.00  0.00    -0.236 NA
ATOM      5  C   UNL     1       4.975   3.652  -1.681  0.00  0.00    +0.164 A 
ATOM      6  N   UNL     1       3.804   2.954  -1.518  0.00  0.00    -0.213 N 
ATOM      7  N   UNL     1       2.982   3.232  -2.615  0.00  0.00    -0.172 NA
ATOM      8  C   UNL     1       3.607   4.056  -3.424  0.00  0.00    +0.145 A 
ATOM      9  C   UNL     1       4.858   4.359  -2.882  0.00  0.00    +0.049 A 
ENDROOT
BRANCH   1  12
ATOM     10  C   UNL     1       0.005   1.380   0.175  0.00  0.00    +0.002 A 
ATOM     11  C   UNL     1       1.174   2.089  -0.011  0.00  0.00    +0.010 A 
ATOM     12  C   UNL     1       2.379   1.410  -0.204  0.00  0.00    +0.002 A 
ATOM     13  C   UNL     1       2.395   0.015  -0.207  0.00  0.00    +0.033 A 
ATOM     14  C   UNL     1       1.215  -0.688  -0.019  0.00  0.00    +0.034 A 
ATOM     15  C   UNL     1       0.021  -0.002   0.172  0.00  0.00    +0.023 A 
BRANCH  14  16
ATOM     16  N   UNL     1       1.226  -2.086  -0.021  0.00  0.00    -0.281 N 
ATOM     17  C   UNL     1       2.295  -2.753   0.459  0.00  0.00    +0.248 C 
ATOM     18  O   UNL     1       3.207  -2.143   0.981  0.00  0.00    -0.270 OA
ATOM     19  H   UNL     1       0.464  -2.577  -0.367  0.00  0.00    +0.155 HD
BRANCH  17  20
ATOM     20  C   UNL     1       2.357  -4.226   0.350  0.00  0.00    +0.038 A 
ATOM     21  C   UNL     1       1.313  -4.929  -0.254  0.00  0.00    +0.013 A 
ATOM     22  C   UNL     1       1.378  -6.303  -0.352  0.00  0.00    +0.001 A 
ATOM     23  C   UNL     1       2.474  -6.985   0.146  0.00  0.00    +0.012 A 
ATOM     24  C   UNL     1       3.512  -6.294   0.746  0.00  0.00    +0.056 A 
ATOM     25  C   UNL     1       3.462  -4.919   0.846  0.00  0.00    +0.025 A 
BRANCH  24  26
ATOM     26  C   UNL     1       4.702  -7.045   1.286  0.00  0.00    +0.417 C 
ATOM     27  F   UNL     1       4.528  -8.415   1.065  0.00  0.00    -0.166 F 
ATOM     28  F   UNL     1       5.862  -6.611   0.634  0.00  0.00    -0.166 F 
ATOM     29  F   UNL     1       4.821  -6.805   2.659  0.00  0.00    -0.166 F 
ENDBRANCH  24  26
ENDBRANCH  17  20
ENDBRANCH  14  16
ENDBRANCH   1  12
BRANCH   9  30
ATOM     30  C   UNL     1       5.882   5.253  -3.480  0.00  0.00    +0.025 A 
ATOM     31  C   UNL     1       6.567   6.292  -2.819  0.00  0.00    +0.143 A 
ATOM     32  N   UNL     1       7.384   6.848  -3.674  0.00  0.00    -0.179 NA
ATOM     33  N   UNL     1       7.255   6.193  -4.905  0.00  0.00    -0.273 N 
ATOM     34  C   UNL     1       6.334   5.214  -4.766  0.00  0.00    +0.117 A 
BRANCH  33  35
ATOM     35  C   UNL     1       7.995   6.510  -6.129  0.00  0.00    +0.125 C 
BRANCH  35  36
ATOM     36  C   UNL     1       7.802   7.988  -6.474  0.00  0.00    -0.055 C 
BRANCH  36  37
ATOM     37  N   UNL     1       8.543   8.306  -7.701  0.00  0.00    +0.381 N 
ATOM     38  C   UNL     1       7.916   7.633  -8.867  0.00  0.00    -0.079 C 
ATOM     39  C   UNL     1       8.411   8.474 -10.071  0.00  0.00    -0.020 C 
ATOM     40  C   UNL     1       8.399   9.916  -9.513  0.00  0.00    -0.020 C 
ATOM     41  C   UNL     1       8.466   9.756  -7.983  0.00  0.00    -0.079 C 
ATOM     42  H   UNL     1       9.507   8.020  -7.610  0.00  0.00    -0.082 HD
ENDBRANCH  36  37
ENDBRANCH  35  36
ENDBRANCH  33  35
ENDBRANCH   9  30
TORSDOF 8
