REMARK  Name = CHEMBL1087781
REMARK  10 active torsions:
REMARK  status: ('A' for Active; 'I' for Inactive)
REMARK    1  A    between atoms: C_1  and  N_2
REMARK    2  A    between atoms: N_2  and  C_3
REMARK    3  A    between atoms: N_2  and  C_4
REMARK    4  A    between atoms: C_4  and  C_5
REMARK    5  A    between atoms: C_5  and  N_6
REMARK    6  A    between atoms: C_10  and  C_13
REMARK    7  A    between atoms: C_21  and  C_22
REMARK    8  A    between atoms: C_26  and  N_28
REMARK    9  A    between atoms: C_29  and  C_31
REMARK   10  A    between atoms: C_35  and  C_37
REMARK                            x       y       z     vdW  Elec       q    Type
REMARK                         _______ _______ _______ _____ _____    ______ ____
ROOT
ATOM      1  C   UNL     1      -4.100  -7.972   0.089  0.00  0.00    +0.047 A 
ATOM      2  C   UNL     1      -3.605  -8.702  -0.996  0.00  0.00    +0.145 A 
ATOM      3  N   UNL     1      -4.032  -9.939  -0.905  0.00  0.00    -0.172 NA
ATOM      4  N   UNL     1      -4.823 -10.070   0.241  0.00  0.00    -0.213 N 
ATOM      5  C   UNL     1      -4.864  -8.851   0.867  0.00  0.00    +0.164 A 
ATOM      6  N   UNL     1      -5.551  -8.687   2.001  0.00  0.00    -0.236 NA
ATOM      7  C   UNL     1      -6.205  -9.685   2.553  0.00  0.00    +0.115 A 
ATOM      8  C   UNL     1      -6.195 -10.950   1.961  0.00  0.00    +0.048 A 
ATOM      9  C   UNL     1      -5.497 -11.137   0.785  0.00  0.00    +0.076 A 
ENDROOT
BRANCH   1  14
ATOM     10  N   UNL     1      -3.316  -2.532   1.157  0.00  0.00    -0.331 N 
ATOM     11  C   UNL     1      -3.488  -3.886   0.889  0.00  0.00    +0.119 A 
ATOM     12  C   UNL     1      -2.376  -4.677   0.612  0.00  0.00    +0.044 A 
ATOM     13  C   UNL     1      -2.554  -6.021   0.346  0.00  0.00    +0.013 A 
ATOM     14  C   UNL     1      -3.856  -6.537   0.367  0.00  0.00    +0.005 A 
ATOM     15  C   UNL     1      -4.918  -5.683   0.653  0.00  0.00    +0.121 A 
ATOM     16  N   UNL     1      -4.705  -4.406   0.906  0.00  0.00    -0.240 NA
ATOM     17  H   UNL     1      -4.086  -1.975   1.355  0.00  0.00    +0.147 HD
BRANCH  10  18
ATOM     18  C   UNL     1      -1.974  -1.946   1.140  0.00  0.00    +0.084 C 
BRANCH  18  19
ATOM     19  C   UNL     1      -2.064  -0.454   1.465  0.00  0.00    -0.061 C 
BRANCH  19  21
ATOM     20  C   UNL     1      -0.815   1.587   1.641  0.00  0.00    -0.097 C 
ATOM     21  N   UNL     1      -0.718   0.134   1.448  0.00  0.00    +0.377 N 
ATOM     22  C   UNL     1       0.085  -0.451   2.530  0.00  0.00    -0.097 C 
ATOM     23  H   UNL     1      -0.278  -0.059   0.561  0.00  0.00    -0.083 HD
ENDBRANCH  19  21
ENDBRANCH  18  19
ENDBRANCH  10  18
ENDBRANCH   1  14
BRANCH   9  24
ATOM     24  C   UNL     1      -5.463 -12.462   0.132  0.00  0.00    +0.002 A 
ATOM     25  C   UNL     1      -4.260 -13.168   0.042  0.00  0.00    +0.010 A 
ATOM     26  C   UNL     1      -4.231 -14.405  -0.568  0.00  0.00    +0.002 A 
ATOM     27  C   UNL     1      -5.388 -14.950  -1.092  0.00  0.00    +0.023 A 
ATOM     28  C   UNL     1      -6.590 -14.256  -1.008  0.00  0.00    +0.034 A 
ATOM     29  C   UNL     1      -6.631 -13.015  -0.391  0.00  0.00    +0.033 A 
BRANCH  28  30
ATOM     30  N   UNL     1      -7.757 -14.812  -1.540  0.00  0.00    -0.281 N 
ATOM     31  C   UNL     1      -8.701 -14.013  -2.076  0.00  0.00    +0.248 C 
ATOM     32  O   UNL     1      -8.497 -12.820  -2.184  0.00  0.00    -0.270 OA
ATOM     33  H   UNL     1      -7.888 -15.773  -1.523  0.00  0.00    +0.155 HD
BRANCH  31  34
ATOM     34  C   UNL     1      -9.984 -14.588  -2.531  0.00  0.00    +0.038 A 
ATOM     35  C   UNL     1     -10.225 -15.957  -2.403  0.00  0.00    +0.013 A 
ATOM     36  C   UNL     1     -11.424 -16.487  -2.830  0.00  0.00    +0.001 A 
ATOM     37  C   UNL     1     -12.389 -15.664  -3.384  0.00  0.00    +0.012 A 
ATOM     38  C   UNL     1     -12.157 -14.307  -3.515  0.00  0.00    +0.056 A 
ATOM     39  C   UNL     1     -10.964 -13.763  -3.087  0.00  0.00    +0.025 A 
BRANCH  38  40
ATOM     40  C   UNL     1     -13.214 -13.418  -4.121  0.00  0.00    +0.417 C 
ATOM     41  F   UNL     1     -14.327 -14.190  -4.470  0.00  0.00    -0.166 F 
ATOM     42  F   UNL     1     -13.593 -12.445  -3.191  0.00  0.00    -0.166 F 
ATOM     43  F   UNL     1     -12.700 -12.797  -5.264  0.00  0.00    -0.166 F 
ENDBRANCH  38  40
ENDBRANCH  31  34
ENDBRANCH  28  30
ENDBRANCH   9  24
TORSDOF 8
