REMARK  Name = CHEMBL477149
REMARK  4 active torsions:
REMARK  status: ('A' for Active; 'I' for Inactive)
REMARK    1  A    between atoms: C_6  and  C_7
REMARK    2  A    between atoms: C_9  and  C_18
REMARK    3  A    between atoms: C_11  and  C_12
REMARK    4  A    between atoms: N_27  and  O_28
REMARK                            x       y       z     vdW  Elec       q    Type
REMARK                         _______ _______ _______ _____ _____    ______ ____
ROOT
ATOM      1  C   UNL     1      -1.334  -0.671  -0.065  0.00  0.00    +0.028 A 
ATOM      2  C   UNL     1      -1.709  -1.706  -0.961  0.00  0.00    +0.054 A 
ATOM      3  C   UNL     1      -2.848  -2.241  -0.489  0.00  0.00    +0.109 A 
ATOM      4  O   UNL     1      -3.203  -1.605   0.639  0.00  0.00    -0.459 OA
ATOM      5  C   UNL     1      -2.299  -0.649   0.926  0.00  0.00    +0.143 A 
ENDROOT
BRANCH   1  11
ATOM      6  C   UNL     1      -0.297   1.593  -0.175  0.00  0.00    +0.009 A 
ATOM      7  C   UNL     1       0.808   2.405  -0.271  0.00  0.00    +0.010 A 
ATOM      8  C   UNL     1       2.091   1.845  -0.359  0.00  0.00    +0.003 A 
ATOM      9  C   UNL     1       2.240   0.459  -0.350  0.00  0.00    -0.037 A 
ATOM     10  C   UNL     1       1.131  -0.354  -0.254  0.00  0.00    +0.013 A 
ATOM     11  C   UNL     1      -0.145   0.205  -0.167  0.00  0.00    -0.014 A 
ATOM     12  C   UNL     1       3.705   0.105  -0.455  0.00  0.00    +0.042 C 
ATOM     13  C   UNL     1       4.466   1.435  -0.532  0.00  0.00    +0.064 C 
ATOM     14  C   UNL     1       3.406   2.508  -0.468  0.00  0.00    +0.088 C 
ATOM     15  N   UNL     1       3.613   3.785  -0.502  0.00  0.00    -0.092 NA
BRANCH  15  16
ATOM     16  O   UNL     1       4.934   4.285  -0.609  0.00  0.00    -0.409 OA
ATOM     17  H   UNL     1       4.988   5.250  -0.627  0.00  0.00    +0.328 HD
ENDBRANCH  15  16
ENDBRANCH   1  11
BRANCH   3  18
ATOM     18  C   UNL     1      -3.608  -3.376  -1.127  0.00  0.00    +0.052 C 
ATOM     19  C   UNL     1      -5.024  -2.910  -1.478  0.00  0.00    -0.008 C 
ATOM     20  C   UNL     1      -5.815  -4.088  -2.051  0.00  0.00    -0.082 C 
ATOM     21  N   UNL     1      -5.885  -5.165  -1.057  0.00  0.00    +0.379 N 
ATOM     22  C   UNL     1      -4.536  -5.665  -0.768  0.00  0.00    -0.082 C 
ATOM     23  C   UNL     1      -3.696  -4.548  -0.146  0.00  0.00    -0.008 C 
ATOM     24  H   UNL     1      -6.300  -4.811  -0.208  0.00  0.00    -0.086 HD
ATOM     25  H   UNL     1      -6.452  -5.918  -1.417  0.00  0.00    -0.086 HD
ENDBRANCH   3  18
BRANCH   5  26
ATOM     26  C   UNL     1      -2.334   0.260   2.086  0.00  0.00    +0.021 A 
ATOM     27  C   UNL     1      -3.515   0.925   2.445  0.00  0.00    +0.031 A 
ATOM     28  C   UNL     1      -3.502   1.766   3.537  0.00  0.00    +0.111 A 
ATOM     29  N   UNL     1      -2.399   1.949   4.240  0.00  0.00    -0.263 NA
ATOM     30  C   UNL     1      -1.266   1.343   3.937  0.00  0.00    +0.111 A 
ATOM     31  C   UNL     1      -1.189   0.480   2.864  0.00  0.00    +0.031 A 
ENDBRANCH   5  26
TORSDOF 4
