REMARK  Name = CHEMBL200164
REMARK  4 active torsions:
REMARK  status: ('A' for Active; 'I' for Inactive)
REMARK    1  A    between atoms: C_4  and  C_7
REMARK    2  A    between atoms: C_10  and  C_19
REMARK    3  A    between atoms: C_11  and  C_13
REMARK    4  A    between atoms: N_29  and  O_30
REMARK                            x       y       z     vdW  Elec       q    Type
REMARK                         _______ _______ _______ _____ _____    ______ ____
ROOT
ATOM      1  C   UNL     1       3.722  -0.972  -0.302  0.00  0.00    +0.139 A 
ATOM      2  N   UNL     1       4.885  -0.363  -0.253  0.00  0.00    -0.227 NA
ATOM      3  H   UNL     1       3.237  -3.004  -0.388  0.00  0.00    +0.167 HD
ATOM      4  C   UNL     1       5.870  -1.274  -0.272  0.00  0.00    +0.097 A 
ATOM      5  C   UNL     1       5.283  -2.529  -0.337  0.00  0.00    +0.074 A 
ATOM      6  N   UNL     1       3.924  -2.321  -0.350  0.00  0.00    -0.337 N 
ENDROOT
BRANCH   4   7
ATOM      7  C   UNL     1       7.322  -0.991  -0.232  0.00  0.00    +0.003 A 
ATOM      8  C   UNL     1       8.184  -1.862   0.439  0.00  0.00    +0.011 A 
ATOM      9  C   UNL     1       9.533  -1.595   0.476  0.00  0.00    +0.011 A 
ATOM     10  C   UNL     1      10.037  -0.455  -0.156  0.00  0.00    +0.003 A 
ATOM     11  C   UNL     1       9.181   0.416  -0.831  0.00  0.00    -0.038 A 
ATOM     12  C   UNL     1       7.828   0.142  -0.868  0.00  0.00    +0.014 A 
ATOM     13  C   UNL     1       9.696   1.643  -1.532  0.00  0.00    +0.036 C 
ATOM     14  C   UNL     1      11.040   2.085  -0.959  0.00  0.00    +0.011 C 
ATOM     15  C   UNL     1      12.027   0.912  -1.013  0.00  0.00    +0.060 C 
ATOM     16  C   UNL     1      11.489  -0.174  -0.104  0.00  0.00    +0.087 C 
ATOM     17  N   UNL     1      12.271  -0.832   0.689  0.00  0.00    -0.092 NA
BRANCH  17  18
ATOM     18  O   UNL     1      11.724  -1.712   1.654  0.00  0.00    -0.409 OA
ATOM     19  H   UNL     1      12.385  -2.158   2.200  0.00  0.00    +0.328 HD
ENDBRANCH  17  18
ENDBRANCH   4   7
BRANCH   1  23
ATOM     20  C   UNL     1      -0.065   0.952  -0.297  0.00  0.00    +0.000 A 
ATOM     21  C   UNL     1       1.092   1.708  -0.241  0.00  0.00    +0.001 A 
ATOM     22  C   UNL     1       2.325   1.090  -0.243  0.00  0.00    +0.011 A 
ATOM     23  C   UNL     1       2.404  -0.302  -0.300  0.00  0.00    +0.017 A 
ATOM     24  C   UNL     1       1.233  -1.060  -0.355  0.00  0.00    +0.011 A 
ATOM     25  C   UNL     1       0.006  -0.429  -0.354  0.00  0.00    +0.001 A 
ENDBRANCH   1  23
BRANCH   5  26
ATOM     26  C   UNL     1       5.979  -3.829  -0.378  0.00  0.00    +0.003 A 
ATOM     27  C   UNL     1       7.089  -4.027  -1.211  0.00  0.00    +0.030 A 
ATOM     28  C   UNL     1       7.708  -5.258  -1.217  0.00  0.00    +0.111 A 
ATOM     29  N   UNL     1       7.269  -6.242  -0.454  0.00  0.00    -0.263 NA
ATOM     30  C   UNL     1       6.228  -6.099   0.344  0.00  0.00    +0.111 A 
ATOM     31  C   UNL     1       5.552  -4.900   0.419  0.00  0.00    +0.030 A 
ENDBRANCH   5  26
TORSDOF 4
