REMARK  Name = CHEMBL397345
REMARK  6 active torsions:
REMARK  status: ('A' for Active; 'I' for Inactive)
REMARK    1  A    between atoms: C_4  and  N_7
REMARK    2  A    between atoms: C_13  and  C_17
REMARK    3  A    between atoms: C_17  and  N_18
REMARK    4  A    between atoms: N_18  and  C_19
REMARK    5  A    between atoms: C_24  and  C_25
REMARK    6  A    between atoms: N_27  and  C_28
REMARK                            x       y       z     vdW  Elec       q    Type
REMARK                         _______ _______ _______ _____ _____    ______ ____
ROOT
ATOM      1  N   UNL     1       1.939  -7.157  -1.653  0.00  0.00    -0.339 N 
ATOM      2  H   UNL     1       2.462  -6.809  -2.392  0.00  0.00    +0.146 HD
ENDROOT
BRANCH   1   3
ATOM      3  C   UNL     1       0.786  -7.890  -1.904  0.00  0.00    +0.040 A 
ATOM      4  C   UNL     1      -0.030  -8.289  -0.853  0.00  0.00    +0.024 A 
ATOM      5  C   UNL     1      -1.175  -9.017  -1.105  0.00  0.00    +0.002 A 
ATOM      6  C   UNL     1      -1.520  -9.355  -2.404  0.00  0.00    +0.001 A 
ATOM      7  C   UNL     1      -0.724  -8.969  -3.459  0.00  0.00    +0.015 A 
ATOM      8  C   UNL     1       0.436  -8.227  -3.221  0.00  0.00    +0.058 A 
BRANCH   8   9
ATOM      9  C   UNL     1       1.291  -7.805  -4.346  0.00  0.00    +0.250 C 
ATOM     10  O   UNL     1       2.350  -7.249  -4.130  0.00  0.00    -0.270 OA
ATOM     11  N   UNL     1       0.897  -8.036  -5.614  0.00  0.00    -0.281 N 
ATOM     12  H   UNL     1       0.018  -8.406  -5.790  0.00  0.00    +0.155 HD
BRANCH  11  13
ATOM     13  C   UNL     1       1.758  -7.740  -6.679  0.00  0.00    +0.037 A 
ATOM     14  C   UNL     1       1.241  -7.271  -7.880  0.00  0.00    +0.027 A 
ATOM     15  C   UNL     1       2.089  -6.979  -8.931  0.00  0.00    +0.051 A 
ATOM     16  C   UNL     1       3.456  -7.153  -8.790  0.00  0.00    +0.173 A 
ATOM     17  C   UNL     1       3.978  -7.623  -7.587  0.00  0.00    +0.174 A 
ATOM     18  C   UNL     1       3.127  -7.911  -6.532  0.00  0.00    +0.073 A 
ATOM     19  O   UNL     1       5.335  -7.706  -7.702  0.00  0.00    -0.395 OA
ATOM     20  C   UNL     1       5.604  -7.673  -9.117  0.00  0.00    +0.589 C 
ATOM     21  O   UNL     1       4.489  -6.942  -9.660  0.00  0.00    -0.395 OA
ATOM     22  F   UNL     1       6.804  -7.001  -9.373  0.00  0.00    -0.125 F 
ATOM     23  F   UNL     1       5.643  -8.970  -9.640  0.00  0.00    -0.125 F 
ENDBRANCH  11  13
ENDBRANCH   8   9
ENDBRANCH   1   3
BRANCH   1  24
ATOM     24  C   UNL     1       2.364  -6.910  -0.273  0.00  0.00    +0.137 C 
BRANCH  24  31
ATOM     25  N   UNL     1       5.863  -0.566  -0.029  0.00  0.00    -0.269 N 
ATOM     26  C   UNL     1       5.899  -1.908  -0.147  0.00  0.00    +0.309 C 
ATOM     27  O   UNL     1       6.967  -2.489  -0.164  0.00  0.00    -0.252 OA
ATOM     28  N   UNL     1       4.750  -2.606  -0.247  0.00  0.00    -0.254 N 
ATOM     29  C   UNL     1       4.781  -4.000  -0.263  0.00  0.00    +0.126 A 
ATOM     30  C   UNL     1       3.589  -4.715  -0.260  0.00  0.00    +0.049 A 
ATOM     31  C   UNL     1       3.633  -6.098  -0.277  0.00  0.00    -0.026 A 
ATOM     32  C   UNL     1       4.874  -6.720  -0.296  0.00  0.00    +0.025 A 
ATOM     33  C   UNL     1       6.018  -5.947  -0.298  0.00  0.00    +0.113 A 
ATOM     34  N   UNL     1       5.945  -4.630  -0.287  0.00  0.00    -0.240 NA
ATOM     35  H   UNL     1       5.013  -0.111   0.073  0.00  0.00    +0.156 HD
ATOM     36  H   UNL     1       3.902  -2.139  -0.308  0.00  0.00    +0.158 HD
BRANCH  25  40
ATOM     37  C   UNL     1       9.405   1.626  -0.099  0.00  0.00    +0.000 A 
ATOM     38  C   UNL     1       9.341   0.399  -0.733  0.00  0.00    +0.002 A 
ATOM     39  C   UNL     1       8.168  -0.330  -0.712  0.00  0.00    +0.023 A 
ATOM     40  C   UNL     1       7.053   0.170  -0.052  0.00  0.00    +0.035 A 
ATOM     41  C   UNL     1       7.121   1.403   0.584  0.00  0.00    +0.023 A 
ATOM     42  C   UNL     1       8.297   2.127   0.559  0.00  0.00    +0.002 A 
ENDBRANCH  25  40
ENDBRANCH  24  31
ENDBRANCH   1  24
TORSDOF 6
