REMARK  Name = CHEMBL500660
REMARK  4 active torsions:
REMARK  status: ('A' for Active; 'I' for Inactive)
REMARK    1  A    between atoms: C_1  and  N_2
REMARK    2  A    between atoms: C_3  and  C_18
REMARK    3  A    between atoms: C_4  and  C_7
REMARK    4  A    between atoms: N_16  and  O_17
REMARK                            x       y       z     vdW  Elec       q    Type
REMARK                         _______ _______ _______ _____ _____    ______ ____
ROOT
ATOM      1  C   UNL     1      -0.018   1.461   0.010  0.00  0.00    +0.173 C 
ATOM      2  N   UNL     1       0.002  -0.004   0.002  0.00  0.00    -0.266 N 
ATOM      3  C   UNL     1       0.008  -0.798  -1.105  0.00  0.00    +0.076 A 
ATOM      4  C   UNL     1       0.028  -2.114  -0.661  0.00  0.00    +0.027 A 
ATOM      5  C   UNL     1       0.034  -2.080   0.745  0.00  0.00    +0.143 A 
ATOM      6  N   UNL     1       0.025  -0.832   1.130  0.00  0.00    -0.179 NA
ENDROOT
BRANCH   4   7
ATOM      7  C   UNL     1       0.040  -3.328  -1.510  0.00  0.00    -0.014 A 
ATOM      8  C   UNL     1      -0.885  -3.466  -2.546  0.00  0.00    +0.009 A 
ATOM      9  C   UNL     1      -0.873  -4.592  -3.333  0.00  0.00    +0.010 A 
ATOM     10  C   UNL     1       0.068  -5.608  -3.100  0.00  0.00    +0.003 A 
ATOM     11  C   UNL     1       0.991  -5.467  -2.065  0.00  0.00    -0.037 A 
ATOM     12  C   UNL     1       0.980  -4.332  -1.280  0.00  0.00    +0.013 A 
ATOM     13  C   UNL     1       1.889  -6.680  -2.017  0.00  0.00    +0.042 C 
ATOM     14  C   UNL     1       1.423  -7.607  -3.147  0.00  0.00    +0.064 C 
ATOM     15  C   UNL     1       0.270  -6.889  -3.805  0.00  0.00    +0.088 C 
ATOM     16  N   UNL     1      -0.420  -7.320  -4.811  0.00  0.00    -0.092 NA
BRANCH  16  17
ATOM     17  O   UNL     1      -0.115  -8.574  -5.393  0.00  0.00    -0.409 OA
ATOM     18  H   UNL     1      -0.685  -8.811  -6.138  0.00  0.00    +0.328 HD
ENDBRANCH  16  17
ENDBRANCH   4   7
BRANCH   3  19
ATOM     19  C   UNL     1      -0.005  -0.345  -2.511  0.00  0.00    +0.003 A 
ATOM     20  C   UNL     1       0.844  -0.926  -3.462  0.00  0.00    +0.030 A 
ATOM     21  C   UNL     1       0.798  -0.473  -4.764  0.00  0.00    +0.111 A 
ATOM     22  N   UNL     1      -0.029   0.493  -5.117  0.00  0.00    -0.263 NA
ATOM     23  C   UNL     1      -0.845   1.067  -4.253  0.00  0.00    +0.111 A 
ATOM     24  C   UNL     1      -0.870   0.672  -2.932  0.00  0.00    +0.030 A 
ENDBRANCH   3  19
TORSDOF 3
