REMARK  Name = CHEMBL247424
REMARK  9 active torsions:
REMARK  status: ('A' for Active; 'I' for Inactive)
REMARK    1  A    between atoms: C_4  and  N_21
REMARK    2  A    between atoms: C_5  and  C_7
REMARK    3  A    between atoms: N_9  and  C_10
REMARK    4  A    between atoms: N_21  and  C_22
REMARK    5  A    between atoms: C_22  and  C_23
REMARK    6  A    between atoms: N_29  and  C_30
REMARK    7  A    between atoms: C_30  and  C_31
REMARK    8  A    between atoms: C_31  and  C_32
REMARK    9  A    between atoms: C_32  and  N_33
REMARK                            x       y       z     vdW  Elec       q    Type
REMARK                         _______ _______ _______ _____ _____    ______ ____
ROOT
ATOM      1  C   UNL     1      -0.004   1.285   0.042  0.00  0.00    +0.001 A 
ATOM      2  C   UNL     1       1.143   2.040  -0.147  0.00  0.00    +0.002 A 
ATOM      3  C   UNL     1       2.359   1.423  -0.357  0.00  0.00    +0.024 A 
ATOM      4  C   UNL     1       2.441   0.036  -0.381  0.00  0.00    +0.040 A 
ATOM      5  C   UNL     1       1.282  -0.732  -0.190  0.00  0.00    +0.058 A 
ATOM      6  C   UNL     1       0.058  -0.091   0.021  0.00  0.00    +0.015 A 
ENDROOT
BRANCH   5   7
ATOM      7  C   UNL     1       1.355  -2.204  -0.214  0.00  0.00    +0.250 C 
ATOM      8  O   UNL     1       2.434  -2.758  -0.292  0.00  0.00    -0.270 OA
ATOM      9  N   UNL     1       0.225  -2.935  -0.148  0.00  0.00    -0.281 N 
ATOM     10  H   UNL     1      -0.640  -2.495  -0.162  0.00  0.00    +0.155 HD
BRANCH   9  11
ATOM     11  C   UNL     1       0.298  -4.331  -0.061  0.00  0.00    +0.037 A 
ATOM     12  C   UNL     1      -0.677  -5.117  -0.660  0.00  0.00    +0.027 A 
ATOM     13  C   UNL     1      -0.606  -6.494  -0.575  0.00  0.00    +0.051 A 
ATOM     14  C   UNL     1       0.439  -7.095   0.108  0.00  0.00    +0.173 A 
ATOM     15  C   UNL     1       1.419  -6.310   0.710  0.00  0.00    +0.174 A 
ATOM     16  C   UNL     1       1.350  -4.929   0.619  0.00  0.00    +0.073 A 
ATOM     17  O   UNL     1       2.328  -7.131   1.313  0.00  0.00    -0.395 OA
ATOM     18  C   UNL     1       1.675  -8.410   1.423  0.00  0.00    +0.589 C 
ATOM     19  O   UNL     1       0.734  -8.409   0.334  0.00  0.00    -0.395 OA
ATOM     20  F   UNL     1       2.601  -9.449   1.273  0.00  0.00    -0.125 F 
ATOM     21  F   UNL     1       1.009  -8.518   2.649  0.00  0.00    -0.125 F 
ENDBRANCH   9  11
ENDBRANCH   5   7
BRANCH   4  22
ATOM     22  N   UNL     1       3.664  -0.587  -0.593  0.00  0.00    -0.339 N 
ATOM     23  H   UNL     1       3.735  -1.552  -0.524  0.00  0.00    +0.146 HD
BRANCH  22  24
ATOM     24  C   UNL     1       4.847   0.212  -0.922  0.00  0.00    +0.137 C 
BRANCH  24  25
ATOM     25  C   UNL     1       6.035  -0.698  -1.101  0.00  0.00    -0.026 A 
ATOM     26  C   UNL     1       6.844  -1.029  -0.022  0.00  0.00    +0.023 A 
ATOM     27  C   UNL     1       7.925  -1.865  -0.219  0.00  0.00    +0.084 A 
ATOM     28  N   UNL     1       8.195  -2.351  -1.416  0.00  0.00    -0.350 N 
ATOM     29  C   UNL     1       7.447  -2.059  -2.469  0.00  0.00    +0.096 A 
ATOM     30  C   UNL     1       6.339  -1.227  -2.342  0.00  0.00    +0.046 A 
ATOM     31  N   UNL     1       7.768  -2.593  -3.711  0.00  0.00    -0.330 N 
ATOM     32  H   UNL     1       8.537  -3.177  -3.804  0.00  0.00    +0.147 HD
ATOM     33  H   UNL     1       8.960  -2.937  -1.527  0.00  0.00    +0.166 HD
BRANCH  31  34
ATOM     34  C   UNL     1       6.946  -2.274  -4.881  0.00  0.00    +0.104 C 
BRANCH  34  35
ATOM     35  C   UNL     1       7.512  -2.984  -6.112  0.00  0.00    +0.040 C 
BRANCH  35  36
ATOM     36  C   UNL     1       6.653  -2.651  -7.333  0.00  0.00    +0.124 C 
BRANCH  36  37
ATOM     37  N   UNL     1       7.195  -3.330  -8.512  0.00  0.00    -0.337 N 
ATOM     38  C   UNL     1       8.138  -2.836  -9.373  0.00  0.00    +0.106 A 
ATOM     39  C   UNL     1       8.345  -3.782 -10.309  0.00  0.00    +0.130 A 
ATOM     40  N   UNL     1       7.551  -4.826 -10.027  0.00  0.00    -0.244 NA
ATOM     41  C   UNL     1       6.863  -4.564  -8.949  0.00  0.00    +0.199 A 
ENDBRANCH  36  37
ENDBRANCH  35  36
ENDBRANCH  34  35
ENDBRANCH  31  34
ENDBRANCH  24  25
ENDBRANCH  22  24
ENDBRANCH   4  22
TORSDOF 9
