REMARK  Name = CHEMBL402029
REMARK  8 active torsions:
REMARK  status: ('A' for Active; 'I' for Inactive)
REMARK    1  A    between atoms: C_1  and  N_2
REMARK    2  A    between atoms: C_7  and  C_9
REMARK    3  A    between atoms: C_10  and  C_18
REMARK    4  A    between atoms: C_12  and  C_15
REMARK    5  A    between atoms: C_22  and  N_24
REMARK    6  A    between atoms: N_24  and  S_25
REMARK    7  A    between atoms: S_25  and  C_28
REMARK    8  A    between atoms: C_28  and  C_29
REMARK                            x       y       z     vdW  Elec       q    Type
REMARK                         _______ _______ _______ _____ _____    ______ ____
ROOT
ATOM      1  C   UNL     1       0.964  -4.553   0.493  0.00  0.00    +0.002 A 
ATOM      2  C   UNL     1       1.772  -3.526   0.981  0.00  0.00    +0.010 A 
ATOM      3  C   UNL     1       1.659  -3.123   2.296  0.00  0.00    +0.002 A 
ATOM      4  C   UNL     1       0.745  -3.734   3.134  0.00  0.00    +0.024 A 
ATOM      5  C   UNL     1      -0.065  -4.758   2.658  0.00  0.00    +0.048 A 
ATOM      6  C   UNL     1       0.038  -5.165   1.336  0.00  0.00    +0.034 A 
ENDROOT
BRANCH   1   8
ATOM      7  C   UNL     1       1.177  -4.162  -2.025  0.00  0.00    +0.091 A 
ATOM      8  C   UNL     1       1.085  -4.988  -0.918  0.00  0.00    +0.073 A 
ATOM      9  N   UNL     1       1.126  -6.257  -1.360  0.00  0.00    -0.343 N 
ATOM     10  C   UNL     1       1.236  -6.264  -2.660  0.00  0.00    +0.088 A 
ATOM     11  N   UNL     1       1.266  -4.996  -3.118  0.00  0.00    -0.341 N 
ATOM     12  H   UNL     1       1.339  -4.721  -4.045  0.00  0.00    +0.167 HD
ATOM     13  H   UNL     1       1.081  -7.047  -0.798  0.00  0.00    +0.167 HD
BRANCH   7  20
ATOM     14  C   UNL     1      -0.018   1.461   0.010  0.00  0.00    +0.128 C 
ATOM     15  N   UNL     1       0.002  -0.004   0.002  0.00  0.00    -0.317 N 
ATOM     16  C   UNL     1       0.601  -0.682  -1.046  0.00  0.00    +0.215 A 
ATOM     17  N   UNL     1       1.156   0.011  -2.030  0.00  0.00    -0.223 NA
ATOM     18  C   UNL     1       1.739  -0.599  -3.051  0.00  0.00    +0.116 A 
ATOM     19  C   UNL     1       1.768  -1.980  -3.087  0.00  0.00    +0.050 A 
ATOM     20  C   UNL     1       1.173  -2.688  -2.034  0.00  0.00    +0.094 A 
ATOM     21  N   UNL     1       0.609  -2.005  -1.036  0.00  0.00    -0.213 NA
ATOM     22  H   UNL     1      -0.404  -0.499   0.731  0.00  0.00    +0.149 HD
ENDBRANCH   7  20
BRANCH  10  23
ATOM     23  C   UNL     1       1.313  -7.500  -3.519  0.00  0.00    +0.053 C 
ATOM     24  C   UNL     1       2.175  -7.431  -4.781  0.00  0.00    +0.012 C 
ATOM     25  C   UNL     1       0.649  -7.446  -4.896  0.00  0.00    +0.012 C 
ENDBRANCH  10  23
ENDBRANCH   1   8
BRANCH   5  26
ATOM     26  N   UNL     1      -0.988  -5.373   3.508  0.00  0.00    -0.220 N 
ATOM     27  H   UNL     1      -1.070  -6.339   3.517  0.00  0.00    +0.173 HD
BRANCH  26  28
ATOM     28  S   UNL     1      -1.940  -4.451   4.501  0.00  0.00    +0.047 S 
ATOM     29  O   UNL     1      -2.722  -5.390   5.226  0.00  0.00    -0.155 OA
ATOM     30  O   UNL     1      -1.033  -3.590   5.176  0.00  0.00    -0.155 OA
BRANCH  28  31
ATOM     31  C   UNL     1      -2.995  -3.494   3.379  0.00  0.00    +0.223 C 
BRANCH  31  32
ATOM     32  C   UNL     1      -3.913  -2.610   4.184  0.00  0.00    -0.023 A 
ATOM     33  C   UNL     1      -5.150  -3.080   4.582  0.00  0.00    +0.007 A 
ATOM     34  C   UNL     1      -5.993  -2.271   5.320  0.00  0.00    +0.022 A 
ATOM     35  C   UNL     1      -5.599  -0.989   5.660  0.00  0.00    +0.059 A 
ATOM     36  C   UNL     1      -4.359  -0.519   5.262  0.00  0.00    +0.060 A 
ATOM     37  C   UNL     1      -3.515  -1.332   4.528  0.00  0.00    +0.026 A 
ATOM     38 CL   UNL     1      -3.863   1.089   5.688  0.00  0.00    -0.082 Cl
ATOM     39 CL   UNL     1      -6.657   0.028   6.587  0.00  0.00    -0.082 Cl
ENDBRANCH  31  32
ENDBRANCH  28  31
ENDBRANCH  26  28
ENDBRANCH   5  26
TORSDOF 7
