REMARK  Name = CHEMBL199948
REMARK  5 active torsions:
REMARK  status: ('A' for Active; 'I' for Inactive)
REMARK    1  A    between atoms: C_1  and  C_2
REMARK    2  A    between atoms: N_4  and  C_5
REMARK    3  A    between atoms: C_9  and  C_11
REMARK    4  A    between atoms: C_15  and  N_17
REMARK    5  A    between atoms: N_17  and  C_18
REMARK                            x       y       z     vdW  Elec       q    Type
REMARK                         _______ _______ _______ _____ _____    ______ ____
ROOT
ATOM      1  C   UNL     1       0.847  -4.772  -3.798  0.00  0.00    +0.091 A 
ATOM      2  C   UNL     1       0.832  -4.016  -4.968  0.00  0.00    +0.139 A 
ATOM      3  N   UNL     1       0.779  -4.617  -6.143  0.00  0.00    -0.258 NA
ATOM      4  C   UNL     1       0.741  -5.934  -6.214  0.00  0.00    +0.154 A 
ATOM      5  C   UNL     1       0.755  -6.698  -5.048  0.00  0.00    +0.142 A 
ATOM      6  N   UNL     1       0.814  -6.100  -3.866  0.00  0.00    -0.229 NA
ENDROOT
BRANCH   1  11
ATOM      7  C   UNL     1       0.998  -2.083  -1.169  0.00  0.00    +0.034 A 
ATOM      8  C   UNL     1       1.019  -2.845  -0.007  0.00  0.00    +0.023 A 
ATOM      9  C   UNL     1       0.984  -4.224  -0.080  0.00  0.00    +0.002 A 
ATOM     10  C   UNL     1       0.928  -4.854  -1.307  0.00  0.00    +0.010 A 
ATOM     11  C   UNL     1       0.907  -4.098  -2.478  0.00  0.00    +0.004 A 
ATOM     12  C   UNL     1       0.936  -2.707  -2.405  0.00  0.00    +0.033 A 
BRANCH   7  16
ATOM     13  C   UNL     1       1.889   1.419  -0.113  0.00  0.00    +0.109 C 
ATOM     14  C   UNL     1       1.763  -0.083  -0.132  0.00  0.00    +0.214 C 
ATOM     15  O   UNL     1       2.319  -0.749   0.716  0.00  0.00    -0.276 OA
ATOM     16  N   UNL     1       1.033  -0.686  -1.091  0.00  0.00    -0.286 N 
ATOM     17  H   UNL     1       0.533  -0.152  -1.727  0.00  0.00    +0.155 HD
ENDBRANCH   7  16
ENDBRANCH   1  11
BRANCH   5  18
ATOM     18  N   UNL     1       0.714  -8.086  -5.125  0.00  0.00    -0.298 N 
ATOM     19  H   UNL     1       0.756  -8.526  -5.989  0.00  0.00    +0.154 HD
BRANCH  18  20
ATOM     20  C   UNL     1       0.612  -8.845  -3.961  0.00  0.00    +0.038 A 
ATOM     21  C   UNL     1      -0.083  -8.364  -2.852  0.00  0.00    +0.063 A 
ATOM     22  C   UNL     1      -0.162  -9.147  -1.718  0.00  0.00    +0.133 A 
ATOM     23  N   UNL     1       0.412 -10.337  -1.676  0.00  0.00    -0.224 NA
ATOM     24  C   UNL     1       1.079 -10.827  -2.705  0.00  0.00    +0.133 A 
ATOM     25  C   UNL     1       1.198 -10.108  -3.878  0.00  0.00    +0.063 A 
ATOM     26 CL   UNL     1       1.809 -12.397  -2.584  0.00  0.00    -0.062 Cl
ATOM     27 CL   UNL     1      -1.024  -8.561  -0.330  0.00  0.00    -0.062 Cl
ENDBRANCH  18  20
ENDBRANCH   5  18
TORSDOF 4
