REMARK  Name = CHEMBL514536
REMARK  9 active torsions:
REMARK  status: ('A' for Active; 'I' for Inactive)
REMARK    1  A    between atoms: C_1  and  N_2
REMARK    2  A    between atoms: N_2  and  C_3
REMARK    3  A    between atoms: N_2  and  C_4
REMARK    4  A    between atoms: C_4  and  C_5
REMARK    5  A    between atoms: C_5  and  O_6
REMARK    6  A    between atoms: O_6  and  C_7
REMARK    7  A    between atoms: C_9  and  C_24
REMARK    8  A    between atoms: C_10  and  C_13
REMARK    9  A    between atoms: N_22  and  O_23
REMARK                            x       y       z     vdW  Elec       q    Type
REMARK                         _______ _______ _______ _____ _____    ______ ____
ROOT
ATOM      1  C   UNL     1       4.126  -0.445   0.116  0.00  0.00    +0.194 A 
ATOM      2  C   UNL     1       4.909  -0.976   1.085  0.00  0.00    +0.075 A 
ATOM      3  C   UNL     1       6.208  -0.440   0.930  0.00  0.00    +0.011 A 
ATOM      4  C   UNL     1       6.162   0.420  -0.157  0.00  0.00    +0.057 A 
ATOM      5  N   UNL     1       4.878   0.400  -0.647  0.00  0.00    -0.325 N 
ATOM      6  H   UNL     1       4.557   0.906  -1.411  0.00  0.00    +0.169 HD
ENDROOT
BRANCH   4   7
ATOM      7  C   UNL     1       7.286   1.207  -0.693  0.00  0.00    -0.001 A 
ATOM      8  C   UNL     1       8.133   1.903   0.177  0.00  0.00    +0.010 A 
ATOM      9  C   UNL     1       9.173   2.630  -0.321  0.00  0.00    +0.011 A 
ATOM     10  C   UNL     1       9.398   2.687  -1.706  0.00  0.00    +0.003 A 
ATOM     11  C   UNL     1       8.552   1.993  -2.572  0.00  0.00    -0.037 A 
ATOM     12  C   UNL     1       7.512   1.257  -2.071  0.00  0.00    +0.014 A 
ATOM     13  C   UNL     1       8.999   2.209  -3.998  0.00  0.00    +0.042 C 
ATOM     14  C   UNL     1      10.230   3.123  -3.932  0.00  0.00    +0.064 C 
ATOM     15  C   UNL     1      10.445   3.399  -2.464  0.00  0.00    +0.088 C 
ATOM     16  N   UNL     1      11.383   4.133  -1.958  0.00  0.00    -0.092 NA
BRANCH  16  17
ATOM     17  O   UNL     1      12.326   4.762  -2.807  0.00  0.00    -0.409 OA
ATOM     18  H   UNL     1      12.988   5.289  -2.339  0.00  0.00    +0.328 HD
ENDBRANCH  16  17
ENDBRANCH   4   7
BRANCH   3  19
ATOM     19  C   UNL     1       7.392  -0.738   1.768  0.00  0.00    -0.013 A 
ATOM     20  C   UNL     1       8.614  -1.093   1.186  0.00  0.00    +0.028 A 
ATOM     21  C   UNL     1       9.691  -1.363   2.005  0.00  0.00    +0.111 A 
ATOM     22  N   UNL     1       9.579  -1.292   3.317  0.00  0.00    -0.263 NA
ATOM     23  C   UNL     1       8.445  -0.961   3.907  0.00  0.00    +0.111 A 
ATOM     24  C   UNL     1       7.320  -0.668   3.164  0.00  0.00    +0.028 A 
ENDBRANCH   3  19
BRANCH   1  25
ATOM     25  O   UNL     1       2.809  -0.713  -0.069  0.00  0.00    -0.479 OA
BRANCH  25  26
ATOM     26  C   UNL     1       2.159  -0.053  -1.157  0.00  0.00    +0.212 C 
BRANCH  26  27
ATOM     27  C   UNL     1       0.690  -0.478  -1.207  0.00  0.00    -0.038 C 
BRANCH  27  29
ATOM     28  C   UNL     1      -0.018   1.465   0.010  0.00  0.00    -0.096 C 
ATOM     29  N   UNL     1       0.002  -0.004   0.002  0.00  0.00    +0.378 N 
ATOM     30  C   UNL     1      -1.376  -0.512   0.012  0.00  0.00    -0.096 C 
ATOM     31  H   UNL     1       0.490  -0.338   0.820  0.00  0.00    -0.082 HD
ENDBRANCH  27  29
ENDBRANCH  26  27
ENDBRANCH  25  26
ENDBRANCH   1  25
TORSDOF 7
