REMARK  Name = CHEMBL46176
REMARK  11 active torsions:
REMARK  status: ('A' for Active; 'I' for Inactive)
REMARK    1  A    between atoms: C_1  and  N_2
REMARK    2  A    between atoms: N_5  and  C_8
REMARK    3  A    between atoms: C_11  and  N_14
REMARK    4  A    between atoms: C_17  and  C_19
REMARK    5  A    between atoms: C_22  and  N_27
REMARK    6  A    between atoms: C_23  and  O_25
REMARK    7  A    between atoms: O_25  and  C_26
REMARK    8  A    between atoms: N_27  and  S_28
REMARK    9  A    between atoms: S_28  and  N_31
REMARK   10  A    between atoms: N_31  and  C_32
REMARK   11  A    between atoms: C_38  and  N_42
REMARK                            x       y       z     vdW  Elec       q    Type
REMARK                         _______ _______ _______ _____ _____    ______ ____
ROOT
ATOM      1  N   UNL     1      -1.897  -7.840   0.827  0.00  0.00    -0.243 N 
ATOM      2  C   UNL     1      -2.050  -8.671   1.897  0.00  0.00    +0.164 A 
ATOM      3  C   UNL     1      -1.725  -9.968   1.457  0.00  0.00    +0.086 A 
ATOM      4  C   UNL     1      -1.367  -9.848   0.044  0.00  0.00    +0.105 A 
ATOM      5  N   UNL     1      -1.487  -8.584  -0.284  0.00  0.00    -0.168 NA
ATOM      6  C   UNL     1      -1.802 -11.027   2.376  0.00  0.00    +0.131 A 
ATOM      7  N   UNL     1      -2.179 -10.756   3.622  0.00  0.00    -0.220 NA
ATOM      8  C   UNL     1      -2.475  -9.523   3.992  0.00  0.00    +0.225 A 
ATOM      9  N   UNL     1      -2.418  -8.500   3.167  0.00  0.00    -0.216 NA
ENDROOT
BRANCH   1  13
ATOM     10  C   UNL     1      -2.185  -3.809  -0.538  0.00  0.00    -0.068 C 
ATOM     11  C   UNL     1      -3.475  -4.537  -0.157  0.00  0.00    -0.013 C 
ATOM     12  C   UNL     1      -3.230  -6.048  -0.169  0.00  0.00    +0.025 C 
ATOM     13  C   UNL     1      -2.132  -6.394   0.839  0.00  0.00    +0.109 C 
ATOM     14  C   UNL     1      -0.842  -5.665   0.457  0.00  0.00    +0.025 C 
ATOM     15  C   UNL     1      -1.086  -4.155   0.469  0.00  0.00    -0.013 C 
BRANCH  10  20
ATOM     16  C   UNL     1      -2.713   1.646  -1.849  0.00  0.00    +0.104 C 
ATOM     17  N   UNL     1      -2.492   0.194  -1.807  0.00  0.00    -0.309 NA
ATOM     18  C   UNL     1      -3.732  -0.518  -1.469  0.00  0.00    +0.065 C 
ATOM     19  C   UNL     1      -3.474  -2.026  -1.494  0.00  0.00    -0.063 C 
ATOM     20  N   UNL     1      -2.420  -2.358  -0.527  0.00  0.00    +0.383 N 
ATOM     21  C   UNL     1      -1.180  -1.659  -0.891  0.00  0.00    -0.063 C 
ATOM     22  C   UNL     1      -1.420  -0.148  -0.862  0.00  0.00    +0.065 C 
ATOM     23  H   UNL     1      -2.708  -2.072   0.396  0.00  0.00    -0.081 HD
ENDBRANCH  10  20
ENDBRANCH   1  13
BRANCH   4  24
ATOM     24  C   UNL     1      -0.950 -10.952  -0.852  0.00  0.00    +0.006 A 
ATOM     25  C   UNL     1      -1.641 -12.163  -0.837  0.00  0.00    +0.012 A 
ATOM     26  C   UNL     1      -1.252 -13.191  -1.671  0.00  0.00    +0.029 A 
ATOM     27  C   UNL     1      -0.172 -13.023  -2.527  0.00  0.00    +0.091 A 
ATOM     28  C   UNL     1       0.522 -11.814  -2.547  0.00  0.00    +0.143 A 
ATOM     29  C   UNL     1       0.132 -10.780  -1.716  0.00  0.00    +0.057 A 
BRANCH  28  30
ATOM     30  O   UNL     1       1.580 -11.650  -3.386  0.00  0.00    -0.493 OA
ATOM     31  C   UNL     1       2.245 -10.386  -3.353  0.00  0.00    +0.277 C 
ENDBRANCH  28  30
BRANCH  27  32
ATOM     32  N   UNL     1       0.219 -14.067  -3.371  0.00  0.00    -0.200 N 
ATOM     33  H   UNL     1       0.568 -13.872  -4.254  0.00  0.00    +0.175 HD
BRANCH  32  34
ATOM     34  S   UNL     1       0.088 -15.637  -2.861  0.00  0.00    +0.124 S 
ATOM     35  O   UNL     1       0.572 -16.450  -3.921  0.00  0.00    -0.135 OA
ATOM     36  O   UNL     1       0.637 -15.686  -1.551  0.00  0.00    -0.135 OA
BRANCH  34  37
ATOM     37  N   UNL     1      -1.527 -15.969  -2.709  0.00  0.00    -0.204 N 
ATOM     38  H   UNL     1      -1.903 -16.163  -1.835  0.00  0.00    +0.175 HD
BRANCH  37  39
ATOM     39  C   UNL     1      -2.349 -15.969  -3.838  0.00  0.00    +0.049 A 
ATOM     40  C   UNL     1      -2.246 -14.949  -4.775  0.00  0.00    +0.024 A 
ATOM     41  C   UNL     1      -3.060 -14.953  -5.891  0.00  0.00    +0.002 A 
ATOM     42  C   UNL     1      -3.978 -15.971  -6.075  0.00  0.00    +0.000 A 
ATOM     43  C   UNL     1      -4.084 -16.988  -5.144  0.00  0.00    +0.002 A 
ATOM     44  C   UNL     1      -3.269 -16.993  -4.029  0.00  0.00    +0.024 A 
ENDBRANCH  37  39
ENDBRANCH  34  37
ENDBRANCH  32  34
ENDBRANCH  27  32
ENDBRANCH   4  24
BRANCH   6  45
ATOM     45  N   UNL     1      -1.494 -12.319   1.995  0.00  0.00    -0.342 N 
ATOM     46  H   UNL     1      -1.062 -12.483   1.143  0.00  0.00    +0.144 HD
ATOM     47  H   UNL     1      -1.710 -13.062   2.580  0.00  0.00    +0.144 HD
ENDBRANCH   6  45
TORSDOF 9
