REMARK  Name = CHEMBL230508
REMARK  8 active torsions:
REMARK  status: ('A' for Active; 'I' for Inactive)
REMARK    1  A    between atoms: C_1  and  C_2
REMARK    2  A    between atoms: C_7  and  N_8
REMARK    3  A    between atoms: N_13  and  C_14
REMARK    4  A    between atoms: C_17  and  S_20
REMARK    5  A    between atoms: S_20  and  N_23
REMARK    6  A    between atoms: N_23  and  C_24
REMARK    7  A    between atoms: C_24  and  C_25
REMARK    8  A    between atoms: C_25  and  N_26
REMARK                            x       y       z     vdW  Elec       q    Type
REMARK                         _______ _______ _______ _____ _____    ______ ____
ROOT
ATOM      1  C   UNL     1       0.164  -6.196  -3.507  0.00  0.00    +0.034 A 
ATOM      2  C   UNL     1       0.169  -6.914  -2.318  0.00  0.00    +0.025 A 
ATOM      3  C   UNL     1       0.278  -8.290  -2.345  0.00  0.00    +0.030 A 
ATOM      4  C   UNL     1       0.383  -8.954  -3.554  0.00  0.00    +0.105 A 
ATOM      5  C   UNL     1       0.380  -8.242  -4.739  0.00  0.00    +0.030 A 
ATOM      6  C   UNL     1       0.264  -6.865  -4.720  0.00  0.00    +0.025 A 
ENDROOT
BRANCH   1  18
ATOM      7  C   UNL     1       1.457   1.485  -0.249  0.00  0.00    +0.046 C 
ATOM      8  C   UNL     1       1.647  -0.004  -0.384  0.00  0.00    -0.028 A 
ATOM      9  C   UNL     1       0.978  -0.680  -1.356  0.00  0.00    +0.035 A 
ATOM     10  C   UNL     1       1.151  -2.066  -1.488  0.00  0.00    +0.095 A 
ATOM     11  C   UNL     1       2.024  -2.753  -0.603  0.00  0.00    +0.113 A 
ATOM     12  C   UNL     1       2.702  -2.033   0.392  0.00  0.00    +0.054 A 
ATOM     13  C   UNL     1       2.514  -0.671   0.490  0.00  0.00    +0.030 A 
ATOM     14  N   UNL     1       2.178  -4.074  -0.741  0.00  0.00    -0.144 NA
ATOM     15  N   UNL     1       1.537  -4.701  -1.668  0.00  0.00    -0.112 NA
ATOM     16  C   UNL     1       0.713  -4.072  -2.508  0.00  0.00    +0.240 A 
ATOM     17  N   UNL     1       0.511  -2.769  -2.431  0.00  0.00    -0.211 NA
ATOM     18  N   UNL     1       0.054  -4.802  -3.483  0.00  0.00    -0.282 N 
ATOM     19  H   UNL     1      -0.484  -4.347  -4.149  0.00  0.00    +0.155 HD
BRANCH  13  20
ATOM     20  N   UNL     1       3.192   0.050   1.475  0.00  0.00    -0.358 N 
ATOM     21  H   UNL     1       3.061   1.008   1.551  0.00  0.00    +0.142 HD
ATOM     22  H   UNL     1       3.794  -0.407   2.083  0.00  0.00    +0.142 HD
ENDBRANCH  13  20
ENDBRANCH   1  18
BRANCH   4  23
ATOM     23  S   UNL     1       0.524 -10.710  -3.584  0.00  0.00    +0.058 S 
ATOM     24  O   UNL     1       1.157 -11.046  -4.811  0.00  0.00    -0.153 OA
ATOM     25  O   UNL     1       1.052 -11.096  -2.323  0.00  0.00    -0.153 OA
BRANCH  23  26
ATOM     26  N   UNL     1      -1.013 -11.323  -3.661  0.00  0.00    -0.192 NA
ATOM     27  H   UNL     1      -1.363 -11.847  -2.925  0.00  0.00    +0.148 HD
BRANCH  26  28
ATOM     28  C   UNL     1      -1.842 -11.072  -4.842  0.00  0.00    +0.087 C 
BRANCH  28  29
ATOM     29  C   UNL     1      -3.036 -12.029  -4.839  0.00  0.00    -0.062 C 
BRANCH  29  30
ATOM     30  N   UNL     1      -3.868 -11.778  -6.023  0.00  0.00    +0.381 N 
ATOM     31  C   UNL     1      -3.146 -12.191  -7.254  0.00  0.00    -0.079 C 
ATOM     32  C   UNL     1      -4.287 -12.403  -8.280  0.00  0.00    -0.020 C 
ATOM     33  C   UNL     1      -5.413 -13.024  -7.422  0.00  0.00    -0.020 C 
ATOM     34  C   UNL     1      -5.090 -12.611  -5.974  0.00  0.00    -0.079 C 
ATOM     35  H   UNL     1      -4.115 -10.801  -6.075  0.00  0.00    -0.082 HD
ENDBRANCH  29  30
ENDBRANCH  28  29
ENDBRANCH  26  28
ENDBRANCH  23  26
ENDBRANCH   4  23
TORSDOF 7
