REMARK  Name = CHEMBL550281
REMARK  5 active torsions:
REMARK  status: ('A' for Active; 'I' for Inactive)
REMARK    1  A    between atoms: C_1  and  C_2
REMARK    2  A    between atoms: C_5  and  C_19
REMARK    3  A    between atoms: C_7  and  C_8
REMARK    4  A    between atoms: C_9  and  N_10
REMARK    5  A    between atoms: C_24  and  C_28
REMARK                            x       y       z     vdW  Elec       q    Type
REMARK                         _______ _______ _______ _____ _____    ______ ____
ROOT
ATOM      1  C   UNL     1      -0.009   1.503   0.010  0.00  0.00    +0.044 C 
ATOM      2  C   UNL     1       0.009  -0.004   0.002  0.00  0.00    -0.043 A 
ATOM      3  C   UNL     1       0.012  -0.686  -1.199  0.00  0.00    +0.004 A 
ATOM      4  C   UNL     1       0.029  -2.067  -1.216  0.00  0.00    +0.013 A 
ATOM      5  C   UNL     1       0.043  -2.783  -0.016  0.00  0.00    +0.038 A 
ATOM      6  C   UNL     1       0.041  -2.101   1.199  0.00  0.00    +0.021 A 
ATOM      7  C   UNL     1       0.029  -0.707   1.209  0.00  0.00    -0.020 A 
ENDROOT
BRANCH   5   8
ATOM      8  C   UNL     1       0.061  -4.261  -0.036  0.00  0.00    +0.249 C 
ATOM      9  O   UNL     1       0.074  -4.883   1.008  0.00  0.00    -0.270 OA
ATOM     10  N   UNL     1       0.063  -4.919  -1.213  0.00  0.00    -0.266 N 
ATOM     11  C   UNL     1       0.186  -6.306  -1.234  0.00  0.00    +0.126 A 
ATOM     12  C   UNL     1       0.293  -6.970  -2.452  0.00  0.00    +0.056 A 
ATOM     13  C   UNL     1       0.416  -8.348  -2.459  0.00  0.00    +0.059 A 
ATOM     14  C   UNL     1       0.427  -9.018  -1.244  0.00  0.00    +0.032 A 
ATOM     15  C   UNL     1       0.316  -8.296  -0.072  0.00  0.00    +0.113 A 
ATOM     16  N   UNL     1       0.206  -6.981  -0.096  0.00  0.00    -0.240 NA
ATOM     17  H   UNL     1      -0.022  -4.426  -2.044  0.00  0.00    +0.157 HD
BRANCH  13  18
ATOM     18  C   UNL     1       0.534  -9.104  -3.758  0.00  0.00    +0.418 C 
ATOM     19  F   UNL     1       1.884  -9.221  -4.107  0.00  0.00    -0.166 F 
ATOM     20  F   UNL     1      -0.021 -10.379  -3.607  0.00  0.00    -0.166 F 
ATOM     21  F   UNL     1      -0.150  -8.413  -4.764  0.00  0.00    -0.166 F 
ENDBRANCH  13  18
ENDBRANCH   5   8
BRANCH   7  22
ATOM     22  C   UNL     1       0.033   0.024   2.491  0.00  0.00    +0.026 C 
ATOM     23  C   UNL     1       0.052  -0.650   3.643  0.00  0.00    +0.095 C 
BRANCH  23  24
ATOM     24  N   UNL     1       0.055   0.038   4.851  0.00  0.00    -0.290 N 
ATOM     25  C   UNL     1       0.033   1.395   5.009  0.00  0.00    +0.206 A 
ATOM     26  N   UNL     1       0.043   1.697   6.275  0.00  0.00    -0.232 NA
ATOM     27  C   UNL     1       0.071   0.560   7.013  0.00  0.00    +0.126 A 
ATOM     28  C   UNL     1       0.074  -0.521   6.107  0.00  0.00    +0.167 A 
ATOM     29  N   UNL     1       0.095  -1.758   6.583  0.00  0.00    -0.216 NA
ATOM     30  C   UNL     1       0.111  -1.973   7.882  0.00  0.00    +0.223 A 
ATOM     31  N   UNL     1       0.106  -0.989   8.762  0.00  0.00    -0.241 NA
ATOM     32  C   UNL     1       0.091   0.277   8.379  0.00  0.00    +0.144 A 
ENDBRANCH  23  24
ENDBRANCH   7  22
TORSDOF 4
