REMARK  Name = CHEMBL70346
REMARK  4 active torsions:
REMARK  status: ('A' for Active; 'I' for Inactive)
REMARK    1  A    between atoms: C_5  and  O_8
REMARK    2  A    between atoms: C_6  and  O_7
REMARK    3  A    between atoms: C_15  and  O_18
REMARK    4  A    between atoms: C_16  and  O_17
REMARK                            x       y       z     vdW  Elec       q    Type
REMARK                         _______ _______ _______ _____ _____    ______ ____
ROOT
ATOM      1  C   UNL     1      -0.017   1.377   0.010  0.00  0.00    +0.059 A 
ATOM      2  C   UNL     1       1.184   2.086   0.002  0.00  0.00    +0.012 A 
ATOM      3  C   UNL     1       2.407   1.401  -0.013  0.00  0.00    +0.051 A 
ATOM      4  C   UNL     1       2.412   0.010  -0.021  0.00  0.00    +0.075 A 
ATOM      5  C   UNL     1       1.218  -0.687  -0.014  0.00  0.00    +0.160 A 
ATOM      6  C   UNL     1       0.002  -0.004   0.002  0.00  0.00    +0.159 A 
ATOM      7  N   UNL     1       3.430   2.335  -0.018  0.00  0.00    -0.351 N 
ATOM      8  H   UNL     1       4.377   2.121  -0.029  0.00  0.00    +0.166 HD
ATOM      9  C   UNL     1       2.907   3.618  -0.006  0.00  0.00    +0.094 A 
ATOM     10  C   UNL     1       1.508   3.525   0.007  0.00  0.00    +0.025 A 
ATOM     11  C   UNL     1       0.730   4.682   0.020  0.00  0.00    +0.031 A 
ATOM     12  C   UNL     1       1.337   5.920   0.020  0.00  0.00    +0.065 A 
ATOM     13  C   UNL     1       2.723   6.019   0.008  0.00  0.00    +0.161 A 
ATOM     14  C   UNL     1       3.509   4.876  -0.006  0.00  0.00    +0.183 A 
ATOM     15 BR   UNL     1      -1.157   4.553   0.036  0.00  0.00    -0.049 Br
ENDROOT
BRANCH   6  16
ATOM     16  O   UNL     1      -1.168  -0.699   0.009  0.00  0.00    -0.503 OA
ATOM     17  H   UNL     1      -1.514  -0.896  -0.872  0.00  0.00    +0.292 HD
ENDBRANCH   6  16
BRANCH   5  18
ATOM     18  O   UNL     1       1.230  -2.047  -0.022  0.00  0.00    -0.503 OA
ATOM     19  H   UNL     1       1.242  -2.446   0.859  0.00  0.00    +0.292 HD
ENDBRANCH   5  18
BRANCH  14  20
ATOM     20  O   UNL     1       4.865   4.982  -0.018  0.00  0.00    -0.502 OA
ATOM     21  H   UNL     1       5.249   5.016  -0.905  0.00  0.00    +0.292 HD
ENDBRANCH  14  20
BRANCH  13  22
ATOM     22  O   UNL     1       3.313   7.244   0.008  0.00  0.00    -0.503 OA
ATOM     23  H   UNL     1       3.492   7.594   0.892  0.00  0.00    +0.292 HD
ENDBRANCH  13  22
TORSDOF 4
