REMARK  Name = CHEMBL199110
REMARK  11 active torsions:
REMARK  status: ('A' for Active; 'I' for Inactive)
REMARK    1  A    between atoms: C_1  and  C_2
REMARK    2  A    between atoms: C_2  and  C_3
REMARK    3  A    between atoms: C_2  and  O_4
REMARK    4  A    between atoms: O_4  and  C_5
REMARK    5  A    between atoms: C_7  and  O_25
REMARK    6  A    between atoms: C_20  and  O_22
REMARK    7  A    between atoms: O_22  and  C_23
REMARK    8  A    between atoms: O_25  and  C_26
REMARK    9  A    between atoms: C_26  and  C_27
REMARK   10  A    between atoms: C_27  and  N_28
REMARK   11  A    between atoms: C_34  and  C_36
REMARK                            x       y       z     vdW  Elec       q    Type
REMARK                         _______ _______ _______ _____ _____    ______ ____
ROOT
ATOM      1  C   UNL     1      -1.496  -1.484  -0.975  0.00  0.00    +0.137 A 
ATOM      2  C   UNL     1      -0.499  -2.227  -1.571  0.00  0.00    +0.092 A 
ATOM      3  C   UNL     1      -0.788  -3.454  -2.167  0.00  0.00    +0.126 A 
ATOM      4  C   UNL     1      -2.075  -3.953  -2.174  0.00  0.00    +0.074 A 
ATOM      5  C   UNL     1      -3.105  -3.219  -1.576  0.00  0.00    +0.083 A 
ATOM      6  C   UNL     1      -2.812  -1.974  -0.966  0.00  0.00    +0.082 A 
ATOM      7  C   UNL     1      -3.872  -1.259  -0.366  0.00  0.00    +0.139 A 
ATOM      8  N   UNL     1      -5.088  -1.792  -0.400  0.00  0.00    -0.220 NA
ATOM      9  C   UNL     1      -5.315  -2.961  -0.977  0.00  0.00    +0.223 A 
ATOM     10  N   UNL     1      -4.372  -3.663  -1.559  0.00  0.00    -0.235 NA
ATOM     11  N   UNL     1      -3.650  -0.038   0.240  0.00  0.00    -0.281 N 
ATOM     12  C   UNL     1      -4.686   0.602   0.915  0.00  0.00    +0.165 A 
ATOM     13  C   UNL     1      -4.464   1.837   1.522  0.00  0.00    +0.169 A 
ATOM     14  N   UNL     1      -5.447   2.443   2.163  0.00  0.00    -0.235 NA
ATOM     15  C   UNL     1      -6.642   1.882   2.229  0.00  0.00    +0.179 A 
ATOM     16  C   UNL     1      -6.868   0.652   1.626  0.00  0.00    +0.235 A 
ATOM     17  N   UNL     1      -5.886   0.041   0.977  0.00  0.00    -0.193 NA
ATOM     18 CL   UNL     1      -2.896   2.576   1.438  0.00  0.00    -0.058 Cl
ATOM     19  H   UNL     1      -2.773   0.372   0.196  0.00  0.00    +0.155 HD
ENDROOT
BRANCH  16  20
ATOM     20  O   UNL     1      -8.096   0.077   1.696  0.00  0.00    -0.479 OA
ATOM     21  C   UNL     1      -8.257  -1.189   1.054  0.00  0.00    +0.279 C 
ENDBRANCH  16  20
BRANCH   1  22
ATOM     22  O   UNL     1      -1.206  -0.290  -0.397  0.00  0.00    -0.488 OA
BRANCH  22  24
ATOM     23  C   UNL     1       0.132   1.718  -0.529  0.00  0.00    +0.051 C 
ATOM     24  C   UNL     1       0.134   0.188  -0.532  0.00  0.00    +0.167 C 
ATOM     25  C   UNL     1       0.978  -0.324   0.636  0.00  0.00    +0.051 C 
ENDBRANCH  22  24
ENDBRANCH   1  22
BRANCH   3  26
ATOM     26  O   UNL     1       0.210  -4.168  -2.749  0.00  0.00    -0.491 OA
BRANCH  26  27
ATOM     27  C   UNL     1      -0.147  -5.418  -3.343  0.00  0.00    +0.244 C 
BRANCH  27  28
ATOM     28  C   UNL     1       1.099  -6.073  -3.942  0.00  0.00    +0.125 C 
BRANCH  28  29
ATOM     29  N   UNL     1       2.037  -6.418  -2.866  0.00  0.00    -0.296 NA
ATOM     30  C   UNL     1       3.399  -6.588  -3.389  0.00  0.00    +0.103 C 
ATOM     31  C   UNL     1       4.373  -6.766  -2.220  0.00  0.00    +0.123 C 
ATOM     32  N   UNL     1       3.890  -7.868  -1.374  0.00  0.00    -0.299 N 
ATOM     33  C   UNL     1       2.490  -7.837  -0.923  0.00  0.00    +0.123 C 
ATOM     34  C   UNL     1       1.591  -7.616  -2.143  0.00  0.00    +0.103 C 
ATOM     35  C   UNL     1       4.708  -8.879  -1.020  0.00  0.00    +0.213 C 
ATOM     36  O   UNL     1       5.883  -8.843  -1.323  0.00  0.00    -0.276 OA
ATOM     37  C   UNL     1       4.165 -10.055  -0.251  0.00  0.00    +0.109 C 
ENDBRANCH  28  29
ENDBRANCH  27  28
ENDBRANCH  26  27
ENDBRANCH   3  26
TORSDOF 7
