REMARK  Name = CHEMBL375433
REMARK  11 active torsions:
REMARK  status: ('A' for Active; 'I' for Inactive)
REMARK    1  A    between atoms: C_1  and  C_2
REMARK    2  A    between atoms: C_2  and  C_3
REMARK    3  A    between atoms: C_3  and  O_4
REMARK    4  A    between atoms: O_4  and  C_5
REMARK    5  A    between atoms: N_7  and  C_37
REMARK    6  A    between atoms: N_10  and  C_11
REMARK    7  A    between atoms: C_15  and  N_17
REMARK    8  A    between atoms: C_21  and  C_36
REMARK    9  A    between atoms: C_23  and  C_28
REMARK   10  A    between atoms: C_29  and  C_35
REMARK   11  A    between atoms: C_33  and  C_34
REMARK                            x       y       z     vdW  Elec       q    Type
REMARK                         _______ _______ _______ _____ _____    ______ ____
ROOT
ATOM      1  N   UNL     1      -3.641  -0.541  -5.628  0.00  0.00    -0.282 N 
ATOM      2  C   UNL     1      -4.492   0.541  -5.775  0.00  0.00    +0.240 A 
ATOM      3  N   UNL     1      -5.378   0.536  -6.755  0.00  0.00    -0.211 NA
ATOM      4  C   UNL     1      -6.199   1.584  -6.894  0.00  0.00    +0.097 A 
ATOM      5  C   UNL     1      -7.160   1.636  -7.916  0.00  0.00    -0.022 A 
ATOM      6  C   UNL     1      -7.976   2.717  -8.024  0.00  0.00    +0.014 A 
ATOM      7  C   UNL     1      -7.873   3.791  -7.125  0.00  0.00    -0.015 A 
ATOM      8  C   UNL     1      -6.937   3.770  -6.108  0.00  0.00    +0.040 A 
ATOM      9  C   UNL     1      -6.085   2.664  -5.979  0.00  0.00    +0.112 A 
ATOM     10  N   UNL     1      -5.163   2.598  -5.011  0.00  0.00    -0.144 NA
ATOM     11  N   UNL     1      -4.402   1.562  -4.920  0.00  0.00    -0.112 NA
ATOM     12  C   UNL     1      -7.287   0.494  -8.892  0.00  0.00    +0.046 C 
ATOM     13  H   UNL     1      -3.643  -1.253  -6.287  0.00  0.00    +0.155 HD
ENDROOT
BRANCH   7  14
ATOM     14  C   UNL     1      -8.777   4.958  -7.268  0.00  0.00    -0.012 A 
ATOM     15  C   UNL     1      -8.701   5.768  -8.400  0.00  0.00    -0.042 A 
ATOM     16  C   UNL     1      -9.544   6.853  -8.528  0.00  0.00    +0.004 A 
ATOM     17  C   UNL     1     -10.463   7.138  -7.534  0.00  0.00    +0.001 A 
ATOM     18  C   UNL     1     -10.543   6.338  -6.408  0.00  0.00    +0.004 A 
ATOM     19  C   UNL     1      -9.710   5.247  -6.273  0.00  0.00    -0.042 A 
ATOM     20  C   UNL     1      -9.802   4.373  -5.049  0.00  0.00    +0.044 C 
ATOM     21  C   UNL     1      -7.699   5.459  -9.483  0.00  0.00    +0.044 C 
ENDBRANCH   7  14
BRANCH   1  26
ATOM     22  C   UNL     1      -0.678  -1.266  -3.569  0.00  0.00    +0.033 A 
ATOM     23  C   UNL     1      -1.075  -0.737  -2.347  0.00  0.00    +0.023 A 
ATOM     24  C   UNL     1      -2.318  -0.147  -2.219  0.00  0.00    +0.004 A 
ATOM     25  C   UNL     1      -3.169  -0.081  -3.305  0.00  0.00    +0.023 A 
ATOM     26  C   UNL     1      -2.778  -0.608  -4.530  0.00  0.00    +0.035 A 
ATOM     27  C   UNL     1      -1.528  -1.196  -4.663  0.00  0.00    +0.046 A 
BRANCH  22  33
ATOM     28  C   UNL     1       0.709  -3.304  -3.960  0.00  0.00    +0.189 C 
ATOM     29  C   UNL     1       1.656  -3.497  -5.149  0.00  0.00    -0.027 C 
ATOM     30  N   UNL     1       2.927  -2.813  -4.877  0.00  0.00    +0.382 N 
ATOM     31  C   UNL     1       2.705  -1.365  -4.781  0.00  0.00    -0.060 C 
ATOM     32  C   UNL     1       1.810  -1.066  -3.574  0.00  0.00    +0.089 C 
ATOM     33  N   UNL     1       0.579  -1.862  -3.697  0.00  0.00    -0.308 N 
ATOM     34  C   UNL     1       3.872  -3.090  -5.967  0.00  0.00    -0.096 C 
ATOM     35  H   UNL     1       3.311  -3.152  -4.008  0.00  0.00    -0.082 HD
BRANCH  28  36
ATOM     36  O   UNL     1      -0.573  -3.852  -4.272  0.00  0.00    -0.361 OA
BRANCH  36  37
ATOM     37  C   UNL     1      -1.419  -4.035  -3.136  0.00  0.00    +0.162 C 
BRANCH  37  39
ATOM     38  C   UNL     1      -3.706  -4.704  -2.382  0.00  0.00    +0.006 C 
ATOM     39  C   UNL     1      -2.799  -4.508  -3.599  0.00  0.00    +0.025 C 
ENDBRANCH  37  39
ENDBRANCH  36  37
ENDBRANCH  28  36
ENDBRANCH  22  33
ENDBRANCH   1  26
TORSDOF 6
