REMARK  Name = CHEMBL512666
REMARK  13 active torsions:
REMARK  status: ('A' for Active; 'I' for Inactive)
REMARK    1  A    between atoms: C_1  and  C_2
REMARK    2  A    between atoms: C_2  and  N_3
REMARK    3  A    between atoms: N_3  and  C_4
REMARK    4  A    between atoms: N_3  and  C_6
REMARK    5  A    between atoms: C_4  and  C_5
REMARK    6  A    between atoms: C_6  and  C_7
REMARK    7  A    between atoms: C_7  and  C_8
REMARK    8  A    between atoms: C_8  and  O_9
REMARK    9  A    between atoms: O_9  and  C_10
REMARK   10  A    between atoms: C_15  and  C_16
REMARK   11  A    between atoms: C_17  and  N_23
REMARK   12  A    between atoms: C_18  and  C_21
REMARK   13  A    between atoms: N_23  and  C_24
REMARK                            x       y       z     vdW  Elec       q    Type
REMARK                         _______ _______ _______ _____ _____    ______ ____
ROOT
ATOM      1  C   UNL     1       0.963  -7.858  -3.706  0.00  0.00    +0.125 A 
ATOM      2  C   UNL     1       1.595  -7.957  -2.485  0.00  0.00    +0.074 A 
ATOM      3  C   UNL     1       2.947  -8.324  -2.430  0.00  0.00    +0.076 A 
ATOM      4  C   UNL     1       3.639  -8.585  -3.638  0.00  0.00    +0.023 A 
ATOM      5  C   UNL     1       2.969  -8.476  -4.865  0.00  0.00    +0.018 A 
ATOM      6  C   UNL     1       1.654  -8.123  -4.891  0.00  0.00    -0.008 A 
ATOM      7  C   UNL     1       0.938  -8.013  -6.212  0.00  0.00    +0.047 C 
ATOM      8  C   UNL     1       5.003  -8.954  -3.581  0.00  0.00    +0.060 A 
ATOM      9  C   UNL     1       5.605  -9.043  -2.317  0.00  0.00    +0.091 A 
ATOM     10  C   UNL     1       4.842  -8.766  -1.171  0.00  0.00    +0.132 A 
ATOM     11  N   UNL     1       3.581  -8.427  -1.253  0.00  0.00    -0.253 NA
ENDROOT
BRANCH   9  12
ATOM     12  C   UNL     1       6.983  -9.413  -2.196  0.00  0.00    +0.103 C 
ATOM     13  N   UNL     1       8.076  -9.707  -2.100  0.00  0.00    -0.191 NA
ENDBRANCH   9  12
BRANCH   8  14
ATOM     14  N   UNL     1       5.718  -9.219  -4.731  0.00  0.00    -0.313 N 
ATOM     15  H   UNL     1       6.195  -8.504  -5.181  0.00  0.00    +0.152 HD
BRANCH  14  16
ATOM     16  C   UNL     1       5.755 -10.519  -5.248  0.00  0.00    +0.033 A 
ATOM     17  C   UNL     1       4.984 -11.528  -4.676  0.00  0.00    +0.025 A 
ATOM     18  C   UNL     1       5.003 -12.799  -5.159  0.00  0.00    +0.031 A 
ATOM     19  C   UNL     1       5.810 -13.143  -6.268  0.00  0.00    +0.080 A 
ATOM     20  C   UNL     1       6.580 -12.100  -6.830  0.00  0.00    +0.043 A 
ATOM     21  C   UNL     1       6.556 -10.817  -6.344  0.00  0.00    +0.040 A 
ATOM     22  S   UNL     1       7.424 -12.925  -8.159  0.00  0.00    -0.053 S 
ATOM     23  C   UNL     1       6.725 -14.549  -7.895  0.00  0.00    +0.157 A 
ATOM     24  N   UNL     1       5.938 -14.351  -6.863  0.00  0.00    -0.225 NA
ATOM     25  N   UNL     1       6.955 -15.714  -8.599  0.00  0.00    -0.337 N 
ATOM     26  H   UNL     1       7.570 -15.715  -9.349  0.00  0.00    +0.144 HD
ATOM     27  H   UNL     1       6.502 -16.533  -8.342  0.00  0.00    +0.144 HD
ENDBRANCH  14  16
ENDBRANCH   8  14
BRANCH   1  28
ATOM     28  O   UNL     1      -0.347  -7.503  -3.757  0.00  0.00    -0.492 OA
BRANCH  28  29
ATOM     29  C   UNL     1      -0.998  -7.245  -2.512  0.00  0.00    +0.227 C 
BRANCH  29  30
ATOM     30  C   UNL     1      -2.457  -6.863  -2.770  0.00  0.00    +0.022 C 
BRANCH  30  31
ATOM     31  C   UNL     1      -3.155  -6.587  -1.437  0.00  0.00    -0.076 C 
BRANCH  31  32
ATOM     32  N   UNL     1      -4.556  -6.220  -1.684  0.00  0.00    +0.379 N 
ATOM     33  H   UNL     1      -4.592  -5.442  -2.326  0.00  0.00    -0.082 HD
BRANCH  32  35
ATOM     34  C   UNL     1      -6.689  -6.947  -2.643  0.00  0.00    -0.017 C 
ATOM     35  C   UNL     1      -5.267  -7.367  -2.264  0.00  0.00    -0.082 C 
ENDBRANCH  32  35
BRANCH  32  36
ATOM     36  C   UNL     1      -5.193  -5.839  -0.416  0.00  0.00    -0.082 C 
ATOM     37  C   UNL     1      -4.538  -4.565   0.121  0.00  0.00    -0.017 C 
ENDBRANCH  32  36
ENDBRANCH  31  32
ENDBRANCH  30  31
ENDBRANCH  29  30
ENDBRANCH  28  29
ENDBRANCH   1  28
TORSDOF 10
