REMARK  Name = CHEMBL120077
REMARK  5 active torsions:
REMARK  status: ('A' for Active; 'I' for Inactive)
REMARK    1  A    between atoms: C_1  and  O_2
REMARK    2  A    between atoms: O_2  and  C_3
REMARK    3  A    between atoms: C_8  and  O_9
REMARK    4  A    between atoms: O_9  and  C_10
REMARK    5  A    between atoms: N_17  and  C_18
REMARK                            x       y       z     vdW  Elec       q    Type
REMARK                         _______ _______ _______ _____ _____    ______ ____
ROOT
ATOM      1  C   UNL     1      -1.274  -0.665   1.091  0.00  0.00    +0.162 A 
ATOM      2  C   UNL     1      -2.439   0.078   0.964  0.00  0.00    +0.054 A 
ATOM      3  C   UNL     1      -3.643  -0.558   0.757  0.00  0.00    -0.030 A 
ATOM      4  C   UNL     1      -3.703  -1.949   0.673  0.00  0.00    +0.007 A 
ATOM      5  C   UNL     1      -2.529  -2.696   0.801  0.00  0.00    +0.059 A 
ATOM      6  C   UNL     1      -1.321  -2.054   1.003  0.00  0.00    +0.162 A 
ATOM      7  C   UNL     1      -5.105  -2.364   0.449  0.00  0.00    +0.071 A 
ATOM      8  C   UNL     1      -5.914  -1.268   0.392  0.00  0.00    +0.024 A 
ATOM      9  C   UNL     1      -7.227  -1.707   0.180  0.00  0.00    +0.149 A 
ATOM     10  N   UNL     1      -7.217  -3.018   0.111  0.00  0.00    -0.158 NA
ATOM     11  H   UNL     1      -5.603  -4.386   0.268  0.00  0.00    +0.189 HD
ATOM     12  N   UNL     1      -5.900  -3.462   0.275  0.00  0.00    -0.275 N 
ATOM     13  N   UNL     1      -8.356  -0.888   0.063  0.00  0.00    -0.298 N 
ATOM     14  C   UNL     1      -5.051  -0.044   0.583  0.00  0.00    +0.076 C 
ATOM     15  H   UNL     1      -8.256   0.077   0.049  0.00  0.00    +0.154 HD
ENDROOT
BRANCH  13  16
ATOM     16  C   UNL     1      -9.627  -1.460  -0.033  0.00  0.00    +0.035 A 
ATOM     17  C   UNL     1      -9.884  -2.688   0.564  0.00  0.00    +0.023 A 
ATOM     18  C   UNL     1     -11.141  -3.252   0.468  0.00  0.00    +0.005 A 
ATOM     19  C   UNL     1     -12.145  -2.596  -0.222  0.00  0.00    +0.038 A 
ATOM     20  C   UNL     1     -11.892  -1.372  -0.819  0.00  0.00    +0.125 A 
ATOM     21  C   UNL     1     -10.637  -0.800  -0.721  0.00  0.00    +0.061 A 
ATOM     22  F   UNL     1     -12.874  -0.734  -1.492  0.00  0.00    -0.205 F 
ENDBRANCH  13  16
BRANCH   1  24
ATOM     23  C   UNL     1      -0.111   1.390   1.376  0.00  0.00    +0.277 C 
ATOM     24  O   UNL     1      -0.086  -0.037   1.296  0.00  0.00    -0.491 OA
ENDBRANCH   1  24
BRANCH   6  25
ATOM     25  O   UNL     1      -0.178  -2.781   1.122  0.00  0.00    -0.491 OA
ATOM     26  C   UNL     1      -0.299  -4.201   1.022  0.00  0.00    +0.277 C 
ENDBRANCH   6  25
TORSDOF 3
