REMARK  Name = CHEMBL337026
REMARK  5 active torsions:
REMARK  status: ('A' for Active; 'I' for Inactive)
REMARK    1  A    between atoms: C_1  and  C_2
REMARK    2  A    between atoms: C_3  and  O_38
REMARK    3  A    between atoms: C_5  and  N_36
REMARK    4  A    between atoms: N_36  and  C_37
REMARK    5  A    between atoms: O_38  and  C_39
REMARK                            x       y       z     vdW  Elec       q    Type
REMARK                         _______ _______ _______ _____ _____    ______ ____
ROOT
ATOM      1  C   UNL     1      -0.019   1.526   0.010  0.00  0.00    +0.069 C 
ATOM      2  C   UNL     1       0.002  -0.004   0.002  0.00  0.00    +0.174 C 
ATOM      3  C   UNL     1      -1.444  -0.472   0.115  0.00  0.00    +0.187 C 
ATOM      4  C   UNL     1      -1.469  -1.976   0.414  0.00  0.00    +0.091 C 
ATOM      5  C   UNL     1      -0.725  -2.212   1.733  0.00  0.00    +0.076 C 
ATOM      6  C   UNL     1       0.711  -1.721   1.599  0.00  0.00    +0.224 C 
ATOM      7  O   UNL     1       0.790  -0.415   1.095  0.00  0.00    -0.328 OA
ATOM      8  N   UNL     1       1.505  -2.664   0.809  0.00  0.00    -0.311 N 
ATOM      9  C   UNL     1       2.126  -3.795   1.283  0.00  0.00    +0.052 A 
ATOM     10  C   UNL     1       2.179  -4.330   2.569  0.00  0.00    +0.026 A 
ATOM     11  C   UNL     1       2.899  -5.502   2.735  0.00  0.00    +0.002 A 
ATOM     12  C   UNL     1       3.544  -6.127   1.683  0.00  0.00    +0.001 A 
ATOM     13  C   UNL     1       3.507  -5.616   0.396  0.00  0.00    +0.010 A 
ATOM     14  C   UNL     1       2.786  -4.435   0.209  0.00  0.00    +0.008 A 
ATOM     15  C   UNL     1       2.538  -3.623  -0.980  0.00  0.00    +0.023 A 
ATOM     16  C   UNL     1       1.750  -2.541  -0.551  0.00  0.00    +0.077 A 
ATOM     17  C   UNL     1       1.347  -1.560  -1.462  0.00  0.00    +0.078 A 
ATOM     18  N   UNL     1       0.568  -0.420  -1.282  0.00  0.00    -0.307 N 
ATOM     19  C   UNL     1       0.436   0.245  -2.478  0.00  0.00    +0.053 A 
ATOM     20  C   UNL     1      -0.227   1.431  -2.789  0.00  0.00    +0.026 A 
ATOM     21  C   UNL     1      -0.178   1.854  -4.107  0.00  0.00    +0.002 A 
ATOM     22  C   UNL     1       0.494   1.143  -5.086  0.00  0.00    +0.001 A 
ATOM     23  C   UNL     1       1.160  -0.038  -4.803  0.00  0.00    +0.010 A 
ATOM     24  C   UNL     1       1.123  -0.480  -3.479  0.00  0.00    +0.008 A 
ATOM     25  C   UNL     1       1.725  -1.652  -2.813  0.00  0.00    +0.023 A 
ATOM     26  C   UNL     1       2.499  -2.737  -3.245  0.00  0.00    +0.060 A 
ATOM     27  C   UNL     1       2.906  -3.723  -2.329  0.00  0.00    +0.060 A 
ATOM     28  C   UNL     1       3.689  -4.700  -3.106  0.00  0.00    +0.252 C 
ATOM     29  O   UNL     1       4.213  -5.703  -2.663  0.00  0.00    -0.270 OA
ATOM     30  N   UNL     1       3.727  -4.296  -4.388  0.00  0.00    -0.248 N 
ATOM     31  C   UNL     1       3.050  -3.146  -4.550  0.00  0.00    +0.252 C 
ATOM     32  O   UNL     1       2.914  -2.544  -5.597  0.00  0.00    -0.270 OA
ATOM     33  H   UNL     1       4.183  -4.771  -5.101  0.00  0.00    +0.158 HD
ENDROOT
BRANCH   4  34
ATOM     34  N   UNL     1      -0.803  -2.709  -0.670  0.00  0.00    -0.314 NA
ATOM     35  C   UNL     1      -1.294  -4.090  -0.751  0.00  0.00    +0.101 C 
ATOM     36  H   UNL     1      -0.917  -2.232  -1.552  0.00  0.00    +0.122 HD
ENDBRANCH   4  34
BRANCH   3  37
ATOM     37  O   UNL     1      -2.125  -0.219  -1.115  0.00  0.00    -0.373 OA
ATOM     38  C   UNL     1      -3.523   0.035  -0.964  0.00  0.00    +0.194 C 
ENDBRANCH   3  37
TORSDOF 2
