REMARK  Name = CHEMBL211613
REMARK  12 active torsions:
REMARK  status: ('A' for Active; 'I' for Inactive)
REMARK    1  A    between atoms: C_1  and  N_2
REMARK    2  A    between atoms: N_5  and  C_8
REMARK    3  A    between atoms: C_8  and  C_9
REMARK    4  A    between atoms: C_13  and  C_15
REMARK    5  A    between atoms: C_16  and  C_17
REMARK    6  A    between atoms: C_22  and  O_23
REMARK    7  A    between atoms: O_23  and  C_24
REMARK    8  A    between atoms: C_25  and  N_31
REMARK    9  A    between atoms: C_26  and  C_29
REMARK   10  A    between atoms: N_31  and  C_32
REMARK   11  A    between atoms: C_34  and  O_40
REMARK   12  A    between atoms: O_40  and  C_41
REMARK                            x       y       z     vdW  Elec       q    Type
REMARK                         _______ _______ _______ _____ _____    ______ ____
ROOT
ATOM      1  C   UNL     1       8.537  -9.240   4.378  0.00  0.00    +0.069 A 
ATOM      2  C   UNL     1       8.256  -8.335   5.391  0.00  0.00    +0.049 A 
ATOM      3  C   UNL     1       8.786  -7.039   5.331  0.00  0.00    +0.074 A 
ATOM      4  C   UNL     1       9.603  -6.676   4.233  0.00  0.00    +0.026 A 
ATOM      5  C   UNL     1       9.875  -7.606   3.219  0.00  0.00    +0.058 A 
ATOM      6  C   UNL     1       9.356  -8.866   3.292  0.00  0.00    +0.136 A 
ATOM      7  C   UNL     1      10.136  -5.366   4.178  0.00  0.00    +0.060 A 
ATOM      8  C   UNL     1       9.823  -4.488   5.226  0.00  0.00    +0.091 A 
ATOM      9  C   UNL     1       9.004  -4.934   6.277  0.00  0.00    +0.132 A 
ATOM     10  N   UNL     1       8.525  -6.151   6.303  0.00  0.00    -0.254 NA
ENDROOT
BRANCH   1  12
ATOM     11  C   UNL     1       7.553 -11.651   4.486  0.00  0.00    -0.041 C 
ATOM     12  C   UNL     1       7.996 -10.565   4.437  0.00  0.00    -0.056 C 
BRANCH  11  17
ATOM     13  C   UNL     1       6.808 -15.071   3.595  0.00  0.00    +0.026 A 
ATOM     14  C   UNL     1       5.998 -15.503   4.630  0.00  0.00    +0.021 A 
ATOM     15  C   UNL     1       5.686 -14.629   5.662  0.00  0.00    +0.004 A 
ATOM     16  C   UNL     1       6.200 -13.346   5.620  0.00  0.00    +0.037 A 
ATOM     17  C   UNL     1       7.012 -12.975   4.545  0.00  0.00    +0.114 A 
ATOM     18  N   UNL     1       7.290 -13.846   3.579  0.00  0.00    -0.245 NA
BRANCH  13  19
ATOM     19  C   UNL     1       7.148 -16.018   2.473  0.00  0.00    -0.022 C 
BRANCH  19  24
ATOM     20  C   UNL     1       4.757 -15.041  -2.535  0.00  0.00    +0.104 C 
ATOM     21  N   UNL     1       5.647 -15.256  -1.386  0.00  0.00    -0.309 NA
ATOM     22  C   UNL     1       5.484 -16.610  -0.839  0.00  0.00    +0.065 C 
ATOM     23  C   UNL     1       6.469 -16.814   0.314  0.00  0.00    -0.063 C 
ATOM     24  N   UNL     1       6.214 -15.812   1.358  0.00  0.00    +0.385 N 
ATOM     25  C   UNL     1       6.405 -14.465   0.803  0.00  0.00    -0.063 C 
ATOM     26  C   UNL     1       5.420 -14.242  -0.346  0.00  0.00    +0.065 C 
ATOM     27  H   UNL     1       5.267 -15.907   1.691  0.00  0.00    -0.081 HD
ENDBRANCH  19  24
ENDBRANCH  13  19
ENDBRANCH  11  17
ENDBRANCH   1  12
BRANCH   6  28
ATOM     28  O   UNL     1       9.627  -9.765   2.311  0.00  0.00    -0.494 OA
ATOM     29  C   UNL     1      10.464  -9.324   1.239  0.00  0.00    +0.277 C 
ENDBRANCH   6  28
BRANCH   8  30
ATOM     30  C   UNL     1      10.334  -3.150   5.226  0.00  0.00    +0.103 C 
ATOM     31  N   UNL     1      10.739  -2.088   5.225  0.00  0.00    -0.191 NA
ENDBRANCH   8  30
BRANCH   7  32
ATOM     32  N   UNL     1      10.938  -4.965   3.128  0.00  0.00    -0.312 N 
ATOM     33  H   UNL     1      10.555  -4.471   2.386  0.00  0.00    +0.152 HD
BRANCH  32  34
ATOM     34  C   UNL     1      12.302  -5.273   3.133  0.00  0.00    +0.053 A 
ATOM     35  C   UNL     1      12.829  -6.079   4.133  0.00  0.00    +0.071 A 
ATOM     36  C   UNL     1      14.181  -6.381   4.135  0.00  0.00    +0.140 A 
ATOM     37  C   UNL     1      15.007  -5.878   3.139  0.00  0.00    +0.084 A 
ATOM     38  C   UNL     1      14.481  -5.074   2.143  0.00  0.00    +0.045 A 
ATOM     39  C   UNL     1      13.131  -4.775   2.135  0.00  0.00    +0.064 A 
ATOM     40 CL   UNL     1      12.473  -3.772   0.880  0.00  0.00    -0.082 Cl
ATOM     41 CL   UNL     1      16.701  -6.256   3.143  0.00  0.00    -0.080 Cl
BRANCH  36  42
ATOM     42  O   UNL     1      14.700  -7.171   5.113  0.00  0.00    -0.494 OA
ATOM     43  C   UNL     1      13.776  -7.751   6.036  0.00  0.00    +0.277 C 
ENDBRANCH  36  42
ENDBRANCH  32  34
ENDBRANCH   7  32
TORSDOF 9
