REMARK  Name = CHEMBL192652
REMARK  9 active torsions:
REMARK  status: ('A' for Active; 'I' for Inactive)
REMARK    1  A    between atoms: C_1  and  N_2
REMARK    2  A    between atoms: N_5  and  C_8
REMARK    3  A    between atoms: C_8  and  C_9
REMARK    4  A    between atoms: C_12  and  C_14
REMARK    5  A    between atoms: C_19  and  N_25
REMARK    6  A    between atoms: C_20  and  C_23
REMARK    7  A    between atoms: N_25  and  C_26
REMARK    8  A    between atoms: C_28  and  O_34
REMARK    9  A    between atoms: O_34  and  C_35
REMARK                            x       y       z     vdW  Elec       q    Type
REMARK                         _______ _______ _______ _____ _____    ______ ____
ROOT
ATOM      1  C   UNL     1       5.158  -3.231   8.081  0.00  0.00    +0.029 A 
ATOM      2  C   UNL     1       5.593  -4.194   7.220  0.00  0.00    +0.045 A 
ATOM      3  C   UNL     1       5.319  -5.545   7.482  0.00  0.00    +0.080 A 
ATOM      4  C   UNL     1       4.587  -5.795   8.665  0.00  0.00    +0.061 A 
ATOM      5  S   UNL     1       4.327  -4.177   9.345  0.00  0.00    -0.084 S 
ATOM      6  C   UNL     1       4.242  -7.075   9.056  0.00  0.00    +0.066 A 
ATOM      7  C   UNL     1       4.646  -8.147   8.230  0.00  0.00    +0.092 A 
ATOM      8  C   UNL     1       5.370  -7.847   7.068  0.00  0.00    +0.132 A 
ATOM      9  N   UNL     1       5.674  -6.622   6.737  0.00  0.00    -0.253 NA
ENDROOT
BRANCH   1  13
ATOM     10  C   UNL     1       5.930   0.803   7.459  0.00  0.00    +0.004 A 
ATOM     11  C   UNL     1       5.132   0.522   8.522  0.00  0.00    +0.013 A 
ATOM     12  C   UNL     1       4.824  -0.789   8.802  0.00  0.00    +0.017 A 
ATOM     13  C   UNL     1       5.337  -1.773   7.994  0.00  0.00    +0.026 A 
ATOM     14  S   UNL     1       6.270  -0.823   6.805  0.00  0.00    -0.091 S 
BRANCH  10  15
ATOM     15  C   UNL     1       6.402   2.143   6.957  0.00  0.00    +0.126 C 
BRANCH  15  20
ATOM     16  C   UNL     1      11.661   3.644   8.312  0.00  0.00    -0.096 C 
ATOM     17  N   UNL     1      10.411   3.309   7.616  0.00  0.00    +0.379 N 
ATOM     18  C   UNL     1       9.346   4.218   8.061  0.00  0.00    -0.064 C 
ATOM     19  C   UNL     1       8.048   3.882   7.323  0.00  0.00    +0.066 C 
ATOM     20  N   UNL     1       7.676   2.488   7.603  0.00  0.00    -0.301 NA
ATOM     21  C   UNL     1       8.744   1.568   7.186  0.00  0.00    +0.066 C 
ATOM     22  C   UNL     1      10.036   1.923   7.925  0.00  0.00    -0.064 C 
ATOM     23  H   UNL     1      10.543   3.409   6.621  0.00  0.00    -0.082 HD
ENDBRANCH  15  20
ENDBRANCH  10  15
ENDBRANCH   1  13
BRANCH   7  24
ATOM     24  C   UNL     1       4.327  -9.501   8.570  0.00  0.00    +0.103 C 
ATOM     25  N   UNL     1       4.073 -10.575   8.840  0.00  0.00    -0.191 NA
ENDBRANCH   7  24
BRANCH   6  26
ATOM     26  N   UNL     1       3.524  -7.299  10.221  0.00  0.00    -0.311 N 
ATOM     27  H   UNL     1       3.986  -7.364  11.071  0.00  0.00    +0.152 HD
BRANCH  26  28
ATOM     28  C   UNL     1       2.133  -7.433  10.170  0.00  0.00    +0.054 A 
ATOM     29  C   UNL     1       1.481  -7.452   8.944  0.00  0.00    +0.071 A 
ATOM     30  C   UNL     1       0.103  -7.584   8.897  0.00  0.00    +0.140 A 
ATOM     31  C   UNL     1      -0.624  -7.698  10.075  0.00  0.00    +0.084 A 
ATOM     32  C   UNL     1       0.026  -7.679  11.295  0.00  0.00    +0.045 A 
ATOM     33  C   UNL     1       1.402  -7.552  11.346  0.00  0.00    +0.064 A 
ATOM     34 CL   UNL     1       2.215  -7.535  12.879  0.00  0.00    -0.082 Cl
ATOM     35 CL   UNL     1      -2.351  -7.864  10.015  0.00  0.00    -0.080 Cl
BRANCH  30  36
ATOM     36  O   UNL     1      -0.538  -7.603   7.698  0.00  0.00    -0.494 OA
ATOM     37  C   UNL     1       0.270  -7.456   6.529  0.00  0.00    +0.277 C 
ENDBRANCH  30  36
ENDBRANCH  26  28
ENDBRANCH   6  26
TORSDOF 7
