REMARK  Name = CHEMBL56983
REMARK  11 active torsions:
REMARK  status: ('A' for Active; 'I' for Inactive)
REMARK    1  A    between atoms: C_1  and  C_2
REMARK    2  A    between atoms: C_2  and  N_3
REMARK    3  A    between atoms: N_3  and  C_4
REMARK    4  A    between atoms: N_3  and  C_6
REMARK    5  A    between atoms: C_4  and  C_5
REMARK    6  A    between atoms: C_6  and  C_7
REMARK    7  A    between atoms: C_7  and  C_8
REMARK    8  A    between atoms: C_8  and  C_9
REMARK    9  A    between atoms: C_9  and  N_10
REMARK   10  A    between atoms: C_16  and  C_31
REMARK   11  A    between atoms: N_24  and  C_25
REMARK                            x       y       z     vdW  Elec       q    Type
REMARK                         _______ _______ _______ _____ _____    ______ ____
ROOT
ATOM      1  N   UNL     1      -3.384  -5.836  -1.890  0.00  0.00    -0.313 N 
ATOM      2  C   UNL     1      -4.682  -6.294  -2.016  0.00  0.00    +0.217 A 
ATOM      3  N   UNL     1      -5.675  -5.408  -2.008  0.00  0.00    -0.222 NA
ATOM      4  C   UNL     1      -6.933  -5.785  -2.125  0.00  0.00    +0.126 A 
ATOM      5  C   UNL     1      -7.212  -7.155  -2.259  0.00  0.00    +0.038 A 
ATOM      6  C   UNL     1      -8.525  -7.636  -2.389  0.00  0.00    +0.025 A 
ATOM      7  C   UNL     1      -8.706  -9.004  -2.517  0.00  0.00    +0.026 A 
ATOM      8  C   UNL     1      -7.582  -9.856  -2.513  0.00  0.00    +0.136 A 
ATOM      9  N   UNL     1      -6.359  -9.381  -2.389  0.00  0.00    -0.212 NA
ATOM     10  C   UNL     1      -6.129  -8.073  -2.264  0.00  0.00    +0.167 A 
ATOM     11  N   UNL     1      -4.885  -7.591  -2.144  0.00  0.00    -0.195 NA
ATOM     12  N   UNL     1      -7.768 -11.225  -2.641  0.00  0.00    -0.253 N 
ATOM     13  C   UNL     1      -6.704 -12.053  -2.639  0.00  0.00    +0.309 C 
ATOM     14  O   UNL     1      -5.582 -11.600  -2.525  0.00  0.00    -0.252 OA
ATOM     15  N   UNL     1      -6.885 -13.383  -2.764  0.00  0.00    -0.269 N 
ATOM     16  H   UNL     1      -2.645  -6.464  -1.897  0.00  0.00    +0.149 HD
ATOM     17  H   UNL     1      -8.663 -11.587  -2.732  0.00  0.00    +0.158 HD
ATOM     18  H   UNL     1      -7.772 -13.738  -2.930  0.00  0.00    +0.156 HD
ENDROOT
BRANCH   7  19
ATOM     19  C   UNL     1     -10.071  -9.567  -2.657  0.00  0.00    +0.022 A 
ATOM     20  C   UNL     1     -10.798  -9.929  -1.523  0.00  0.00    +0.050 A 
ATOM     21  C   UNL     1     -12.069 -10.453  -1.660  0.00  0.00    +0.021 A 
ATOM     22  C   UNL     1     -12.620 -10.619  -2.918  0.00  0.00    +0.003 A 
ATOM     23  C   UNL     1     -11.904 -10.262  -4.046  0.00  0.00    +0.021 A 
ATOM     24  C   UNL     1     -10.634  -9.732  -3.922  0.00  0.00    +0.050 A 
ATOM     25 CL   UNL     1      -9.740  -9.277  -5.339  0.00  0.00    -0.083 Cl
ATOM     26 CL   UNL     1     -10.108  -9.723   0.056  0.00  0.00    -0.083 Cl
ENDBRANCH   7  19
BRANCH  15  27
ATOM     27  C   UNL     1      -5.793 -14.251  -2.653  0.00  0.00    +0.035 A 
ATOM     28  C   UNL     1      -5.740 -15.405  -3.423  0.00  0.00    +0.023 A 
ATOM     29  C   UNL     1      -4.660 -16.259  -3.312  0.00  0.00    +0.002 A 
ATOM     30  C   UNL     1      -3.633 -15.966  -2.434  0.00  0.00    +0.000 A 
ATOM     31  C   UNL     1      -3.682 -14.818  -1.665  0.00  0.00    +0.002 A 
ATOM     32  C   UNL     1      -4.756 -13.957  -1.776  0.00  0.00    +0.023 A 
ENDBRANCH  15  27
BRANCH   1  33
ATOM     33  C   UNL     1      -3.124  -4.401  -1.746  0.00  0.00    +0.104 C 
BRANCH  33  34
ATOM     34  C   UNL     1      -1.618  -4.165  -1.626  0.00  0.00    +0.017 C 
BRANCH  34  35
ATOM     35  C   UNL     1      -1.347  -2.667  -1.476  0.00  0.00    -0.017 C 
BRANCH  35  36
ATOM     36  C   UNL     1       0.160  -2.431  -1.356  0.00  0.00    -0.079 C 
BRANCH  36  37
ATOM     37  N   UNL     1       0.421  -0.992  -1.212  0.00  0.00    +0.379 N 
ATOM     38  H   UNL     1      -0.005  -0.495  -1.980  0.00  0.00    -0.082 HD
BRANCH  37  40
ATOM     39  C   UNL     1      -0.004   1.004   0.141  0.00  0.00    -0.017 C 
ATOM     40  C   UNL     1      -0.149  -0.516   0.056  0.00  0.00    -0.082 C 
ENDBRANCH  37  40
BRANCH  37  41
ATOM     41  C   UNL     1       1.870  -0.754  -1.217  0.00  0.00    -0.082 C 
ATOM     42  C   UNL     1       2.442  -1.116  -2.590  0.00  0.00    -0.017 C 
ENDBRANCH  37  41
ENDBRANCH  36  37
ENDBRANCH  35  36
ENDBRANCH  34  35
ENDBRANCH  33  34
ENDBRANCH   1  33
TORSDOF 9
