REMARK  Name = CHEMBL386996
REMARK  10 active torsions:
REMARK  status: ('A' for Active; 'I' for Inactive)
REMARK    1  A    between atoms: C_1  and  C_2
REMARK    2  A    between atoms: C_2  and  C_3
REMARK    3  A    between atoms: C_2  and  O_4
REMARK    4  A    between atoms: O_4  and  C_5
REMARK    5  A    between atoms: C_7  and  O_26
REMARK    6  A    between atoms: N_15  and  C_16
REMARK    7  A    between atoms: O_26  and  C_27
REMARK    8  A    between atoms: C_27  and  C_28
REMARK    9  A    between atoms: C_28  and  N_29
REMARK   10  A    between atoms: C_35  and  C_37
REMARK                            x       y       z     vdW  Elec       q    Type
REMARK                         _______ _______ _______ _____ _____    ______ ____
ROOT
ATOM      1  C   UNL     1      -1.351  -1.699   0.107  0.00  0.00    +0.137 A 
ATOM      2  C   UNL     1      -0.238  -2.248  -0.493  0.00  0.00    +0.092 A 
ATOM      3  C   UNL     1      -0.169  -3.619  -0.743  0.00  0.00    +0.126 A 
ATOM      4  C   UNL     1      -1.212  -4.455  -0.397  0.00  0.00    +0.074 A 
ATOM      5  C   UNL     1      -2.353  -3.923   0.213  0.00  0.00    +0.083 A 
ATOM      6  C   UNL     1      -2.421  -2.532   0.472  0.00  0.00    +0.082 A 
ATOM      7  C   UNL     1      -3.585  -2.025   1.093  0.00  0.00    +0.138 A 
ATOM      8  N   UNL     1      -4.553  -2.878   1.407  0.00  0.00    -0.220 NA
ATOM      9  C   UNL     1      -4.443  -4.172   1.150  0.00  0.00    +0.223 A 
ATOM     10  N   UNL     1      -3.392  -4.697   0.567  0.00  0.00    -0.235 NA
ATOM     11  N   UNL     1      -3.712  -0.679   1.367  0.00  0.00    -0.294 N 
ATOM     12  H   UNL     1      -3.038  -0.055   1.056  0.00  0.00    +0.154 HD
ENDROOT
BRANCH  11  13
ATOM     13  C   UNL     1      -4.816  -0.213   2.095  0.00  0.00    +0.114 A 
ATOM     14  C   UNL     1      -6.104  -0.422   1.616  0.00  0.00    +0.148 A 
ATOM     15  C   UNL     1      -7.193   0.038   2.334  0.00  0.00    +0.044 A 
ATOM     16  C   UNL     1      -7.004   0.707   3.530  0.00  0.00    +0.052 A 
ATOM     17  C   UNL     1      -5.723   0.920   4.015  0.00  0.00    +0.168 A 
ATOM     18  C   UNL     1      -4.625   0.454   3.300  0.00  0.00    +0.190 A 
ATOM     19  O   UNL     1      -3.488   0.780   3.983  0.00  0.00    -0.451 OA
ATOM     20  C   UNL     1      -3.882   1.800   4.920  0.00  0.00    +0.466 C 
ATOM     21  O   UNL     1      -5.276   1.540   5.147  0.00  0.00    -0.453 OA
ATOM     22  F   UNL     1      -6.293  -1.074   0.448  0.00  0.00    -0.203 F 
ENDBRANCH  11  13
BRANCH   1  23
ATOM     23  O   UNL     1      -1.409  -0.364   0.347  0.00  0.00    -0.488 OA
BRANCH  23  25
ATOM     24  C   UNL     1      -0.833   1.858  -0.408  0.00  0.00    +0.051 C 
ATOM     25  C   UNL     1      -0.336   0.433  -0.156  0.00  0.00    +0.167 C 
ATOM     26  C   UNL     1       0.801   0.463   0.868  0.00  0.00    +0.051 C 
ENDBRANCH  23  25
ENDBRANCH   1  23
BRANCH   3  27
ATOM     27  O   UNL     1       0.937  -4.138  -1.335  0.00  0.00    -0.494 OA
BRANCH  27  28
ATOM     28  C   UNL     1       0.948  -5.548  -1.566  0.00  0.00    +0.210 C 
BRANCH  28  29
ATOM     29  C   UNL     1       2.266  -5.945  -2.235  0.00  0.00    -0.037 C 
BRANCH  29  30
ATOM     30  N   UNL     1       3.386  -5.625  -1.340  0.00  0.00    +0.384 N 
ATOM     31  C   UNL     1       4.654  -5.860  -2.043  0.00  0.00    -0.059 C 
ATOM     32  C   UNL     1       5.819  -5.418  -1.152  0.00  0.00    +0.089 C 
ATOM     33  N   UNL     1       5.705  -6.108   0.142  0.00  0.00    -0.305 N 
ATOM     34  C   UNL     1       4.411  -6.061   0.841  0.00  0.00    +0.089 C 
ATOM     35  C   UNL     1       3.312  -6.473  -0.144  0.00  0.00    -0.059 C 
ATOM     36  C   UNL     1       6.755  -6.766   0.672  0.00  0.00    +0.212 C 
ATOM     37  O   UNL     1       7.814  -6.794   0.082  0.00  0.00    -0.276 OA
ATOM     38  C   UNL     1       6.614  -7.465   2.000  0.00  0.00    +0.109 C 
ATOM     39  H   UNL     1       3.330  -4.655  -1.068  0.00  0.00    -0.082 HD
ENDBRANCH  29  30
ENDBRANCH  28  29
ENDBRANCH  27  28
ENDBRANCH   3  27
TORSDOF 7
