REMARK  Name = CHEMBL1085512
REMARK  8 active torsions:
REMARK  status: ('A' for Active; 'I' for Inactive)
REMARK    1  A    between atoms: C_1  and  N_2
REMARK    2  A    between atoms: N_5  and  C_8
REMARK    3  A    between atoms: C_11  and  C_14
REMARK    4  A    between atoms: C_21  and  C_24
REMARK    5  A    between atoms: C_22  and  N_23
REMARK    6  A    between atoms: C_27  and  N_30
REMARK    7  A    between atoms: C_31  and  O_33
REMARK    8  A    between atoms: O_33  and  C_34
REMARK                            x       y       z     vdW  Elec       q    Type
REMARK                         _______ _______ _______ _____ _____    ______ ____
ROOT
ATOM      1  C   UNL     1      -2.263  -6.909   3.968  0.00  0.00    +0.046 A 
ATOM      2  C   UNL     1      -3.469  -6.949   4.676  0.00  0.00    +0.145 A 
ATOM      3  N   UNL     1      -3.570  -8.111   5.275  0.00  0.00    -0.171 NA
ATOM      4  N   UNL     1      -2.437  -8.878   4.985  0.00  0.00    -0.200 N 
ATOM      5  C   UNL     1      -1.623  -8.138   4.168  0.00  0.00    +0.165 A 
ATOM      6  N   UNL     1      -0.460  -8.630   3.724  0.00  0.00    -0.235 NA
ATOM      7  C   UNL     1      -0.059  -9.838   4.051  0.00  0.00    +0.125 A 
ATOM      8  C   UNL     1      -0.853 -10.645   4.884  0.00  0.00    +0.040 A 
ATOM      9  C   UNL     1      -2.059 -10.140   5.359  0.00  0.00    +0.129 A 
ENDROOT
BRANCH   1  13
ATOM     10  C   UNL     1      -0.818  -3.663   1.629  0.00  0.00    +0.030 A 
ATOM     11  C   UNL     1      -2.115  -4.128   1.445  0.00  0.00    +0.024 A 
ATOM     12  C   UNL     1      -2.586  -5.180   2.202  0.00  0.00    +0.010 A 
ATOM     13  C   UNL     1      -1.759  -5.779   3.153  0.00  0.00    -0.013 A 
ATOM     14  C   UNL     1      -0.458  -5.311   3.335  0.00  0.00    +0.010 A 
ATOM     15  C   UNL     1       0.010  -4.262   2.572  0.00  0.00    +0.024 A 
BRANCH  10  20
ATOM     16  C   UNL     1       0.125   1.501   0.081  0.00  0.00    +0.105 C 
ATOM     17  N   UNL     1       0.138   0.032   0.070  0.00  0.00    -0.302 NA
ATOM     18  C   UNL     1      -1.225  -0.506  -0.032  0.00  0.00    +0.103 C 
ATOM     19  C   UNL     1      -1.158  -2.025  -0.222  0.00  0.00    +0.120 C 
ATOM     20  N   UNL     1      -0.343  -2.596   0.861  0.00  0.00    -0.327 N 
ATOM     21  C   UNL     1       0.984  -2.016   1.113  0.00  0.00    +0.120 C 
ATOM     22  C   UNL     1       0.833  -0.497   1.252  0.00  0.00    +0.103 C 
ENDBRANCH  10  20
ENDBRANCH   1  13
BRANCH   8  23
ATOM     23  C   UNL     1      -0.407 -12.009   5.258  0.00  0.00    -0.013 A 
ATOM     24  C   UNL     1      -0.119 -12.309   6.589  0.00  0.00    +0.010 A 
ATOM     25  C   UNL     1       0.295 -13.578   6.934  0.00  0.00    +0.024 A 
ATOM     26  C   UNL     1       0.425 -14.557   5.957  0.00  0.00    +0.036 A 
ATOM     27  C   UNL     1       0.140 -14.261   4.631  0.00  0.00    +0.024 A 
ATOM     28  C   UNL     1      -0.281 -12.995   4.281  0.00  0.00    +0.010 A 
BRANCH  26  29
ATOM     29  N   UNL     1       0.847 -15.845   6.311  0.00  0.00    -0.251 N 
ATOM     30  C   UNL     1       0.479 -16.373   7.495  0.00  0.00    +0.410 C 
ATOM     31  O   UNL     1      -0.298 -15.774   8.212  0.00  0.00    -0.226 OA
ATOM     32  H   UNL     1       1.403 -16.357   5.703  0.00  0.00    +0.158 HD
BRANCH  30  33
ATOM     33  O   UNL     1       0.973 -17.564   7.883  0.00  0.00    -0.411 OA
BRANCH  33  34
ATOM     34  C   UNL     1       0.657 -18.011   9.128  0.00  0.00    +0.133 A 
ATOM     35  C   UNL     1       1.600 -17.959  10.144  0.00  0.00    +0.046 A 
ATOM     36  C   UNL     1       1.277 -18.413  11.409  0.00  0.00    +0.004 A 
ATOM     37  C   UNL     1       0.015 -18.918  11.661  0.00  0.00    +0.000 A 
ATOM     38  C   UNL     1      -0.926 -18.971  10.650  0.00  0.00    +0.004 A 
ATOM     39  C   UNL     1      -0.610 -18.513   9.385  0.00  0.00    +0.046 A 
ENDBRANCH  33  34
ENDBRANCH  30  33
ENDBRANCH  26  29
ENDBRANCH   8  23
BRANCH   9  40
ATOM     40  N   UNL     1      -2.865 -10.901   6.174  0.00  0.00    -0.343 N 
ATOM     41  H   UNL     1      -3.710 -10.544   6.490  0.00  0.00    +0.144 HD
ATOM     42  H   UNL     1      -2.588 -11.794   6.433  0.00  0.00    +0.144 HD
ENDBRANCH   9  40
TORSDOF 7
