REMARK  Name = CHEMBL518166
REMARK  11 active torsions:
REMARK  status: ('A' for Active; 'I' for Inactive)
REMARK    1  A    between atoms: C_1  and  C_2
REMARK    2  A    between atoms: C_6  and  C_37
REMARK    3  A    between atoms: C_7  and  C_8
REMARK    4  A    between atoms: C_9  and  N_10
REMARK    5  A    between atoms: C_16  and  O_30
REMARK    6  A    between atoms: C_18  and  N_19
REMARK    7  A    between atoms: N_19  and  C_20
REMARK    8  A    between atoms: C_23  and  P_26
REMARK    9  A    between atoms: P_26  and  C_28
REMARK   10  A    between atoms: P_26  and  C_29
REMARK   11  A    between atoms: O_30  and  C_31
REMARK                            x       y       z     vdW  Elec       q    Type
REMARK                         _______ _______ _______ _____ _____    ______ ____
ROOT
ATOM      1  N   UNL     1      -7.353   2.733   5.772  0.00  0.00    -0.290 N 
ATOM      2  C   UNL     1      -6.971   3.955   6.251  0.00  0.00    +0.206 A 
ATOM      3  N   UNL     1      -6.418   3.819   7.421  0.00  0.00    -0.230 NA
ATOM      4  C   UNL     1      -6.409   2.509   7.769  0.00  0.00    +0.148 A 
ATOM      5  C   UNL     1      -7.013   1.796   6.720  0.00  0.00    +0.173 A 
ATOM      6  N   UNL     1      -7.134   0.477   6.818  0.00  0.00    -0.174 NA
ATOM      7  C   UNL     1      -6.695  -0.161   7.890  0.00  0.00    +0.327 A 
ATOM      8  N   UNL     1      -6.122   0.471   8.904  0.00  0.00    -0.177 NA
ATOM      9  C   UNL     1      -5.953   1.789   8.886  0.00  0.00    +0.158 A 
ENDROOT
BRANCH   1  11
ATOM     10  C   UNL     1      -8.250   3.494   3.725  0.00  0.00    +0.026 C 
ATOM     11  C   UNL     1      -7.977   2.484   4.554  0.00  0.00    +0.095 C 
BRANCH  10  18
ATOM     12  C   UNL     1      -7.103   4.216   1.169  0.00  0.00    +0.044 C 
ATOM     13  C   UNL     1      -8.472   3.590   1.248  0.00  0.00    -0.043 A 
ATOM     14  C   UNL     1      -9.190   3.351   0.094  0.00  0.00    +0.004 A 
ATOM     15  C   UNL     1     -10.447   2.777   0.164  0.00  0.00    +0.001 A 
ATOM     16  C   UNL     1     -10.993   2.439   1.390  0.00  0.00    +0.004 A 
ATOM     17  C   UNL     1     -10.286   2.673   2.551  0.00  0.00    -0.043 A 
ATOM     18  C   UNL     1      -9.014   3.247   2.488  0.00  0.00    -0.018 A 
ATOM     19  C   UNL     1     -10.883   2.305   3.885  0.00  0.00    +0.044 C 
ENDBRANCH  10  18
ENDBRANCH   1  11
BRANCH   9  20
ATOM     20  N   UNL     1      -5.355   2.440   9.952  0.00  0.00    -0.297 N 
ATOM     21  H   UNL     1      -5.329   3.409   9.975  0.00  0.00    +0.154 HD
BRANCH  20  22
ATOM     22  C   UNL     1      -4.789   1.700  10.994  0.00  0.00    +0.032 A 
ATOM     23  C   UNL     1      -4.203   0.468  10.735  0.00  0.00    +0.024 A 
ATOM     24  C   UNL     1      -3.645  -0.261  11.767  0.00  0.00    +0.013 A 
ATOM     25  C   UNL     1      -3.669   0.236  13.057  0.00  0.00    +0.011 A 
ATOM     26  C   UNL     1      -4.251   1.463  13.319  0.00  0.00    +0.013 A 
ATOM     27  C   UNL     1      -4.805   2.199  12.290  0.00  0.00    +0.024 A 
BRANCH  25  28
ATOM     28  P   UNL     1      -2.934  -0.724  14.410  0.00  0.00    +0.111 P 
ATOM     29  O   UNL     1      -1.816  -1.540  13.886  0.00  0.00    -0.317 OA
ATOM     30  C   UNL     1      -2.310   0.412  15.692  0.00  0.00    +0.085 C 
ATOM     31  C   UNL     1      -4.199  -1.820  15.133  0.00  0.00    +0.085 C 
ENDBRANCH  25  28
ENDBRANCH  20  22
ENDBRANCH   9  20
BRANCH   7  32
ATOM     32  O   UNL     1      -6.836  -1.507   7.953  0.00  0.00    -0.422 OA
BRANCH  32  33
ATOM     33  C   UNL     1      -7.354  -2.146   6.871  0.00  0.00    +0.150 A 
ATOM     34  C   UNL     1      -8.657  -2.634   6.897  0.00  0.00    +0.049 A 
ATOM     35  C   UNL     1      -9.141  -3.278   5.770  0.00  0.00    +0.023 A 
ATOM     36  C   UNL     1      -8.321  -3.413   4.665  0.00  0.00    +0.111 A 
ATOM     37  N   UNL     1      -7.090  -2.939   4.674  0.00  0.00    -0.260 NA
ATOM     38  C   UNL     1      -6.594  -2.316   5.724  0.00  0.00    +0.157 A 
ENDBRANCH  32  33
ENDBRANCH   7  32
TORSDOF 7
