REMARK  Name = CHEMBL414013
REMARK  4 active torsions:
REMARK  status: ('A' for Active; 'I' for Inactive)
REMARK    1  A    between atoms: C_1  and  O_2
REMARK    2  A    between atoms: O_2  and  C_3
REMARK    3  A    between atoms: C_8  and  O_9
REMARK    4  A    between atoms: O_9  and  C_10
REMARK                            x       y       z     vdW  Elec       q    Type
REMARK                         _______ _______ _______ _____ _____    ______ ____
ROOT
ATOM      1  C   UNL     1      -1.202  -0.638   0.010  0.00  0.00    +0.162 A 
ATOM      2  C   UNL     1      -2.373   0.100   0.019  0.00  0.00    +0.055 A 
ATOM      3  C   UNL     1      -3.602  -0.539   0.026  0.00  0.00    -0.018 A 
ATOM      4  C   UNL     1      -3.656  -1.925   0.021  0.00  0.00    +0.040 A 
ATOM      5  C   UNL     1      -2.483  -2.669   0.014  0.00  0.00    +0.073 A 
ATOM      6  C   UNL     1      -1.256  -2.029   0.003  0.00  0.00    +0.163 A 
ATOM      7  N   UNL     1      -4.891  -2.583   0.018  0.00  0.00    -0.299 N 
ATOM      8  C   UNL     1      -6.034  -1.905  -0.350  0.00  0.00    +0.133 A 
ATOM      9  C   UNL     1      -6.056  -0.524  -0.356  0.00  0.00    +0.061 A 
ATOM     10  C   UNL     1      -7.239   0.123  -0.744  0.00  0.00    +0.257 A 
ATOM     11  N   UNL     1      -8.305  -0.628  -1.091  0.00  0.00    -0.313 N 
ATOM     12  C   UNL     1      -8.228  -1.973  -1.061  0.00  0.00    +0.201 A 
ATOM     13  N   UNL     1      -7.134  -2.589  -0.705  0.00  0.00    -0.222 NA
ATOM     14  O   UNL     1      -7.303   1.342  -0.767  0.00  0.00    -0.267 OA
ATOM     15  C   UNL     1      -4.859   0.286   0.043  0.00  0.00    +0.081 C 
ATOM     16  H   UNL     1      -4.943  -3.517   0.274  0.00  0.00    +0.154 HD
ATOM     17  H   UNL     1      -9.131  -0.198  -1.363  0.00  0.00    +0.170 HD
ENDROOT
BRANCH   1  19
ATOM     18  C   UNL     1      -0.017   1.425   0.010  0.00  0.00    +0.277 C 
ATOM     19  O   UNL     1       0.002  -0.004   0.002  0.00  0.00    -0.491 OA
ENDBRANCH   1  19
BRANCH   6  20
ATOM     20  O   UNL     1      -0.106  -2.756  -0.009  0.00  0.00    -0.491 OA
ATOM     21  C   UNL     1      -0.239  -4.179  -0.015  0.00  0.00    +0.277 C 
ENDBRANCH   6  20
TORSDOF 2
