REMARK  Name = CHEMBL217091
REMARK  5 active torsions:
REMARK  status: ('A' for Active; 'I' for Inactive)
REMARK    1  A    between atoms: C_1  and  O_2
REMARK    2  A    between atoms: O_2  and  C_3
REMARK    3  A    between atoms: C_7  and  O_9
REMARK    4  A    between atoms: O_9  and  C_10
REMARK    5  A    between atoms: N_20  and  C_21
REMARK                            x       y       z     vdW  Elec       q    Type
REMARK                         _______ _______ _______ _____ _____    ______ ____
ROOT
ATOM      1  C   UNL     1      -0.907  -1.828   1.515  0.00  0.00    +0.126 A 
ATOM      2  C   UNL     1      -0.972  -1.198   2.741  0.00  0.00    +0.074 A 
ATOM      3  C   UNL     1      -0.005  -1.471   3.713  0.00  0.00    +0.083 A 
ATOM      4  C   UNL     1       1.033  -2.392   3.426  0.00  0.00    +0.083 A 
ATOM      5  C   UNL     1       1.080  -3.022   2.171  0.00  0.00    +0.144 A 
ATOM      6  C   UNL     1       0.110  -2.740   1.232  0.00  0.00    +0.092 A 
ATOM      7  C   UNL     1       1.996  -2.648   4.428  0.00  0.00    +0.138 A 
ATOM      8  N   UNL     1       1.880  -2.011   5.587  0.00  0.00    -0.220 NA
ATOM      9  C   UNL     1       0.894  -1.158   5.812  0.00  0.00    +0.223 A 
ATOM     10  N   UNL     1      -0.028  -0.882   4.920  0.00  0.00    -0.235 NA
ATOM     11  N   UNL     1       3.028  -3.535   4.207  0.00  0.00    -0.295 N 
ATOM     12  H   UNL     1       3.150  -3.930   3.329  0.00  0.00    +0.154 HD
ENDROOT
BRANCH  11  13
ATOM     13  C   UNL     1       3.902  -3.867   5.251  0.00  0.00    +0.097 A 
ATOM     14  C   UNL     1       4.637  -2.873   5.886  0.00  0.00    +0.066 A 
ATOM     15  C   UNL     1       5.499  -3.201   6.915  0.00  0.00    +0.025 A 
ATOM     16  C   UNL     1       5.633  -4.517   7.318  0.00  0.00    +0.051 A 
ATOM     17  C   UNL     1       4.904  -5.515   6.691  0.00  0.00    +0.168 A 
ATOM     18  C   UNL     1       4.030  -5.191   5.658  0.00  0.00    +0.189 A 
ATOM     19  O   UNL     1       3.432  -6.336   5.215  0.00  0.00    -0.451 OA
ATOM     20  C   UNL     1       4.246  -7.413   5.716  0.00  0.00    +0.466 C 
ATOM     21  O   UNL     1       4.856  -6.864   6.895  0.00  0.00    -0.453 OA
ATOM     22 CL   UNL     1       4.473  -1.219   5.384  0.00  0.00    -0.081 Cl
ENDBRANCH  11  13
BRANCH   1  24
ATOM     23  C   UNL     1      -2.865  -0.618   0.921  0.00  0.00    +0.277 C 
ATOM     24  O   UNL     1      -1.849  -1.561   0.573  0.00  0.00    -0.495 OA
ENDBRANCH   1  24
BRANCH   5  25
ATOM     25  O   UNL     1       2.070  -3.906   1.886  0.00  0.00    -0.455 OA
BRANCH  25  26
ATOM     26  C   UNL     1       2.074  -4.485   0.658  0.00  0.00    +0.131 A 
ATOM     27  C   UNL     1       2.754  -3.897  -0.406  0.00  0.00    +0.066 A 
ATOM     28  C   UNL     1       2.735  -4.516  -1.639  0.00  0.00    +0.114 A 
ATOM     29  N   UNL     1       2.083  -5.650  -1.815  0.00  0.00    -0.263 NA
ATOM     30  C   UNL     1       1.427  -6.237  -0.833  0.00  0.00    +0.114 A 
ATOM     31  C   UNL     1       1.403  -5.684   0.431  0.00  0.00    +0.066 A 
ENDBRANCH  25  26
ENDBRANCH   5  25
TORSDOF 4
