REMARK  Name = CHEMBL431407
REMARK  10 active torsions:
REMARK  status: ('A' for Active; 'I' for Inactive)
REMARK    1  A    between atoms: C_1  and  N_2
REMARK    2  A    between atoms: N_5  and  C_8
REMARK    3  A    between atoms: C_11  and  N_14
REMARK    4  A    between atoms: C_17  and  C_19
REMARK    5  A    between atoms: C_22  and  N_27
REMARK    6  A    between atoms: C_23  and  O_25
REMARK    7  A    between atoms: O_25  and  C_26
REMARK    8  A    between atoms: N_27  and  C_28
REMARK    9  A    between atoms: C_28  and  C_29
REMARK   10  A    between atoms: C_34  and  N_38
REMARK                            x       y       z     vdW  Elec       q    Type
REMARK                         _______ _______ _______ _____ _____    ______ ____
ROOT
ATOM      1  N   UNL     1      -1.699  -8.188   1.857  0.00  0.00    -0.243 N 
ATOM      2  C   UNL     1      -1.816  -8.984   2.957  0.00  0.00    +0.164 A 
ATOM      3  C   UNL     1      -1.473 -10.289   2.555  0.00  0.00    +0.086 A 
ATOM      4  C   UNL     1      -1.142 -10.210   1.133  0.00  0.00    +0.105 A 
ATOM      5  N   UNL     1      -1.294  -8.960   0.764  0.00  0.00    -0.168 NA
ATOM      6  C   UNL     1      -1.512 -11.318   3.510  0.00  0.00    +0.131 A 
ATOM      7  N   UNL     1      -1.873 -11.011   4.753  0.00  0.00    -0.220 NA
ATOM      8  C   UNL     1      -2.187  -9.772   5.087  0.00  0.00    +0.225 A 
ATOM      9  N   UNL     1      -2.164  -8.778   4.227  0.00  0.00    -0.216 NA
ENDROOT
BRANCH   1  13
ATOM     10  C   UNL     1      -2.090  -4.211   0.362  0.00  0.00    -0.068 C 
ATOM     11  C   UNL     1      -3.359  -4.951   0.791  0.00  0.00    -0.013 C 
ATOM     12  C   UNL     1      -3.084  -6.456   0.826  0.00  0.00    +0.025 C 
ATOM     13  C   UNL     1      -1.962  -6.747   1.824  0.00  0.00    +0.109 C 
ATOM     14  C   UNL     1      -0.693  -6.007   1.395  0.00  0.00    +0.025 C 
ATOM     15  C   UNL     1      -0.968  -4.502   1.360  0.00  0.00    -0.013 C 
BRANCH  10  20
ATOM     16  C   UNL     1      -2.751   1.184  -1.122  0.00  0.00    +0.104 C 
ATOM     17  N   UNL     1      -2.500  -0.261  -1.035  0.00  0.00    -0.309 NA
ATOM     18  C   UNL     1      -3.720  -0.985  -0.651  0.00  0.00    +0.065 C 
ATOM     19  C   UNL     1      -3.432  -2.488  -0.629  0.00  0.00    -0.063 C 
ATOM     20  N   UNL     1      -2.354  -2.766   0.329  0.00  0.00    +0.383 N 
ATOM     21  C   UNL     1      -1.136  -2.056  -0.082  0.00  0.00    -0.063 C 
ATOM     22  C   UNL     1      -1.405  -0.549  -0.098  0.00  0.00    +0.065 C 
ATOM     23  H   UNL     1      -2.632  -2.454   1.247  0.00  0.00    -0.081 HD
ENDBRANCH  10  20
ENDBRANCH   1  13
BRANCH   4  24
ATOM     24  C   UNL     1      -0.719 -11.336   0.266  0.00  0.00    +0.006 A 
ATOM     25  C   UNL     1      -1.396 -12.553   0.323  0.00  0.00    +0.012 A 
ATOM     26  C   UNL     1      -1.002 -13.601  -0.483  0.00  0.00    +0.027 A 
ATOM     27  C   UNL     1       0.070 -13.447  -1.352  0.00  0.00    +0.070 A 
ATOM     28  C   UNL     1       0.750 -12.231  -1.413  0.00  0.00    +0.141 A 
ATOM     29  C   UNL     1       0.354 -11.177  -0.611  0.00  0.00    +0.057 A 
BRANCH  28  30
ATOM     30  O   UNL     1       1.800 -12.081  -2.264  0.00  0.00    -0.493 OA
ATOM     31  C   UNL     1       2.451 -10.809  -2.274  0.00  0.00    +0.277 C 
ENDBRANCH  28  30
BRANCH  27  32
ATOM     32  N   UNL     1       0.468 -14.511  -2.167  0.00  0.00    -0.334 N 
ATOM     33  H   UNL     1       1.216 -14.404  -2.774  0.00  0.00    +0.147 HD
BRANCH  32  34
ATOM     34  C   UNL     1      -0.246 -15.789  -2.103  0.00  0.00    +0.176 C 
BRANCH  34  35
ATOM     35  C   UNL     1       0.375 -16.761  -3.073  0.00  0.00    +0.122 A 
ATOM     36  C   UNL     1       1.378 -17.614  -2.798  0.00  0.00    +0.046 A 
ATOM     37  C   UNL     1       1.644 -18.331  -3.987  0.00  0.00    +0.041 A 
ATOM     38  C   UNL     1       0.788 -17.872  -4.918  0.00  0.00    +0.195 A 
ATOM     39  O   UNL     1       0.018 -16.926  -4.357  0.00  0.00    -0.466 OA
ENDBRANCH  34  35
ENDBRANCH  32  34
ENDBRANCH  27  32
ENDBRANCH   4  24
BRANCH   6  40
ATOM     40  N   UNL     1      -1.185 -12.615   3.167  0.00  0.00    -0.342 N 
ATOM     41  H   UNL     1      -0.709 -12.793   2.341  0.00  0.00    +0.144 HD
ATOM     42  H   UNL     1      -1.431 -13.348   3.753  0.00  0.00    +0.144 HD
ENDBRANCH   6  40
TORSDOF 8
