REMARK  Name = CHEMBL424839
REMARK  11 active torsions:
REMARK  status: ('A' for Active; 'I' for Inactive)
REMARK    1  A    between atoms: C_1  and  C_2
REMARK    2  A    between atoms: C_2  and  C_3
REMARK    3  A    between atoms: C_2  and  O_4
REMARK    4  A    between atoms: O_4  and  C_5
REMARK    5  A    between atoms: C_7  and  O_25
REMARK    6  A    between atoms: C_20  and  O_22
REMARK    7  A    between atoms: O_22  and  C_23
REMARK    8  A    between atoms: O_25  and  C_26
REMARK    9  A    between atoms: C_26  and  C_27
REMARK   10  A    between atoms: C_27  and  C_28
REMARK   11  A    between atoms: C_28  and  N_29
REMARK                            x       y       z     vdW  Elec       q    Type
REMARK                         _______ _______ _______ _____ _____    ______ ____
ROOT
ATOM      1  C   UNL     1      -1.954  -0.642  -1.189  0.00  0.00    +0.137 A 
ATOM      2  C   UNL     1      -1.263  -0.403  -2.357  0.00  0.00    +0.092 A 
ATOM      3  C   UNL     1      -1.898  -0.511  -3.595  0.00  0.00    +0.126 A 
ATOM      4  C   UNL     1      -3.232  -0.858  -3.677  0.00  0.00    +0.074 A 
ATOM      5  C   UNL     1      -3.957  -1.106  -2.508  0.00  0.00    +0.083 A 
ATOM      6  C   UNL     1      -3.311  -1.002  -1.250  0.00  0.00    +0.082 A 
ATOM      7  C   UNL     1      -4.069  -1.263  -0.087  0.00  0.00    +0.139 A 
ATOM      8  N   UNL     1      -5.345  -1.598  -0.231  0.00  0.00    -0.220 NA
ATOM      9  C   UNL     1      -5.906  -1.688  -1.426  0.00  0.00    +0.223 A 
ATOM     10  N   UNL     1      -5.256  -1.446  -2.539  0.00  0.00    -0.235 NA
ATOM     11  N   UNL     1      -3.496  -1.174   1.166  0.00  0.00    -0.282 N 
ATOM     12  C   UNL     1      -4.223  -1.552   2.292  0.00  0.00    +0.146 A 
ATOM     13  C   UNL     1      -3.642  -1.454   3.552  0.00  0.00    +0.081 A 
ATOM     14  C   UNL     1      -4.373  -1.833   4.665  0.00  0.00    +0.028 A 
ATOM     15  C   UNL     1      -5.666  -2.300   4.482  0.00  0.00    +0.069 A 
ATOM     16  C   UNL     1      -6.184  -2.373   3.197  0.00  0.00    +0.216 A 
ATOM     17  N   UNL     1      -5.462  -1.998   2.154  0.00  0.00    -0.196 NA
ATOM     18 CL   UNL     1      -2.018  -0.863   3.727  0.00  0.00    -0.080 Cl
ATOM     19  H   UNL     1      -2.588  -0.847   1.262  0.00  0.00    +0.155 HD
ENDROOT
BRANCH  16  20
ATOM     20  O   UNL     1      -7.449  -2.829   3.009  0.00  0.00    -0.480 OA
ATOM     21  C   UNL     1      -7.926  -2.880   1.663  0.00  0.00    +0.279 C 
ENDBRANCH  16  20
BRANCH   1  22
ATOM     22  O   UNL     1      -1.329  -0.535   0.010  0.00  0.00    -0.488 OA
BRANCH  22  24
ATOM     23  C   UNL     1       0.048   1.451  -0.043  0.00  0.00    +0.051 C 
ATOM     24  C   UNL     1       0.025  -0.079  -0.003  0.00  0.00    +0.167 C 
ATOM     25  C   UNL     1       0.740  -0.566   1.259  0.00  0.00    +0.051 C 
ENDBRANCH  22  24
ENDBRANCH   1  22
BRANCH   3  26
ATOM     26  O   UNL     1      -1.197  -0.271  -4.732  0.00  0.00    -0.492 OA
BRANCH  26  27
ATOM     27  C   UNL     1      -1.902  -0.396  -5.968  0.00  0.00    +0.227 C 
BRANCH  27  28
ATOM     28  C   UNL     1      -0.954  -0.090  -7.130  0.00  0.00    +0.022 C 
BRANCH  28  29
ATOM     29  C   UNL     1      -1.709  -0.225  -8.454  0.00  0.00    -0.076 C 
BRANCH  29  30
ATOM     30  N   UNL     1      -0.799   0.069  -9.569  0.00  0.00    +0.380 N 
ATOM     31  C   UNL     1       0.226  -0.999  -9.688  0.00  0.00    -0.079 C 
ATOM     32  C   UNL     1       0.706  -0.867 -11.155  0.00  0.00    -0.020 C 
ATOM     33  C   UNL     1      -0.595  -0.521 -11.915  0.00  0.00    -0.020 C 
ATOM     34  C   UNL     1      -1.541   0.061 -10.848  0.00  0.00    -0.079 C 
ATOM     35  H   UNL     1      -0.356   0.964  -9.429  0.00  0.00    -0.082 HD
ENDBRANCH  29  30
ENDBRANCH  28  29
ENDBRANCH  27  28
ENDBRANCH  26  27
ENDBRANCH   3  26
TORSDOF 8
