REMARK  Name = CHEMBL1165511
REMARK  4 active torsions:
REMARK  status: ('A' for Active; 'I' for Inactive)
REMARK    1  A    between atoms: C_3  and  N_8
REMARK    2  A    between atoms: N_13  and  C_18
REMARK    3  A    between atoms: C_18  and  C_19
REMARK    4  A    between atoms: C_19  and  C_20
REMARK                            x       y       z     vdW  Elec       q    Type
REMARK                         _______ _______ _______ _____ _____    ______ ____
ROOT
ATOM      1  N   UNL     1       3.583   2.126  -0.021  0.00  0.00    -0.299 N 
ATOM      2  C   UNL     1       4.788   1.455   0.068  0.00  0.00    +0.137 A 
ATOM      3  C   UNL     1       6.001   2.162   0.172  0.00  0.00    +0.079 A 
ATOM      4  C   UNL     1       6.354   3.529   0.215  0.00  0.00    +0.148 A 
ATOM      5  N   UNL     1       7.649   3.618   0.319  0.00  0.00    -0.177 NA
ATOM      6  N   UNL     1       8.209   2.334   0.350  0.00  0.00    -0.245 N 
ATOM      7  C   UNL     1       7.198   1.425   0.260  0.00  0.00    +0.163 A 
ATOM      8  N   UNL     1       7.135   0.094   0.241  0.00  0.00    -0.216 NA
ATOM      9  C   UNL     1       5.978  -0.522   0.143  0.00  0.00    +0.225 A 
ATOM     10  N   UNL     1       4.829   0.127   0.063  0.00  0.00    -0.220 NA
ATOM     11  H   UNL     1       3.557   3.091   0.072  0.00  0.00    +0.154 HD
ENDROOT
BRANCH   1  14
ATOM     12  C   UNL     1       0.047   1.128   0.116  0.00  0.00    +0.005 A 
ATOM     13  C   UNL     1       1.214   1.833   0.340  0.00  0.00    +0.023 A 
ATOM     14  C   UNL     1       2.401   1.414  -0.246  0.00  0.00    +0.035 A 
ATOM     15  C   UNL     1       2.412   0.286  -1.057  0.00  0.00    +0.061 A 
ATOM     16  C   UNL     1       1.241  -0.415  -1.278  0.00  0.00    +0.125 A 
ATOM     17  C   UNL     1       0.059   0.006  -0.691  0.00  0.00    +0.038 A 
ATOM     18  F   UNL     1       1.250  -1.512  -2.067  0.00  0.00    -0.205 F 
ENDBRANCH   1  14
BRANCH   6  19
ATOM     19  C   UNL     1       9.636   2.023   0.461  0.00  0.00    +0.169 C 
BRANCH  19  20
ATOM     20  C   UNL     1      10.019   1.899   1.937  0.00  0.00    +0.132 C 
ATOM     21 CL   UNL     1       9.816   3.497   2.746  0.00  0.00    -0.115 Cl
BRANCH  20  22
ATOM     22  C   UNL     1      11.456   1.459   2.048  0.00  0.00    -0.028 A 
ATOM     23  C   UNL     1      12.469   2.289   1.604  0.00  0.00    +0.008 A 
ATOM     24  C   UNL     1      13.787   1.886   1.706  0.00  0.00    +0.038 A 
ATOM     25  C   UNL     1      14.093   0.652   2.253  0.00  0.00    +0.123 A 
ATOM     26  C   UNL     1      13.078  -0.178   2.697  0.00  0.00    +0.038 A 
ATOM     27  C   UNL     1      11.761   0.228   2.599  0.00  0.00    +0.008 A 
ATOM     28  F   UNL     1      15.381   0.257   2.353  0.00  0.00    -0.205 F 
ENDBRANCH  20  22
ENDBRANCH  19  20
ENDBRANCH   6  19
TORSDOF 4
