REMARK  Name = CHEMBL100825
REMARK  10 active torsions:
REMARK  status: ('A' for Active; 'I' for Inactive)
REMARK    1  A    between atoms: C_1  and  C_2
REMARK    2  A    between atoms: C_2  and  N_3
REMARK    3  A    between atoms: N_6  and  C_9
REMARK    4  A    between atoms: C_9  and  C_10
REMARK    5  A    between atoms: C_13  and  C_16
REMARK    6  A    between atoms: C_24  and  C_37
REMARK    7  A    between atoms: C_25  and  N_26
REMARK    8  A    between atoms: N_26  and  C_27
REMARK    9  A    between atoms: C_29  and  O_35
REMARK   10  A    between atoms: O_35  and  C_36
REMARK                            x       y       z     vdW  Elec       q    Type
REMARK                         _______ _______ _______ _____ _____    ______ ____
ROOT
ATOM      1  C   UNL     1       2.785  -8.220  -5.438  0.00  0.00    -0.016 A 
ATOM      2  C   UNL     1       3.784  -8.867  -4.696  0.00  0.00    +0.009 A 
ATOM      3  C   UNL     1       3.732 -10.210  -4.486  0.00  0.00    +0.012 A 
ATOM      4  C   UNL     1       2.672 -10.962  -5.014  0.00  0.00    +0.023 A 
ATOM      5  C   UNL     1       1.656 -10.322  -5.766  0.00  0.00    +0.073 A 
ATOM      6  C   UNL     1       1.725  -8.936  -5.966  0.00  0.00    +0.037 A 
ATOM      7  N   UNL     1       0.640 -11.036  -6.272  0.00  0.00    -0.254 NA
ATOM      8  C   UNL     1       0.545 -12.329  -6.097  0.00  0.00    +0.132 A 
ATOM      9  C   UNL     1       1.506 -13.045  -5.366  0.00  0.00    +0.091 A 
ATOM     10  C   UNL     1       2.596 -12.359  -4.808  0.00  0.00    +0.060 A 
ENDROOT
BRANCH   1  14
ATOM     11  C   UNL     1       3.007  -4.020  -6.057  0.00  0.00    -0.064 A 
ATOM     12  C   UNL     1       3.993  -4.662  -5.330  0.00  0.00    +0.002 A 
ATOM     13  C   UNL     1       3.926  -6.025  -5.126  0.00  0.00    +0.009 A 
ATOM     14  C   UNL     1       2.862  -6.755  -5.654  0.00  0.00    -0.018 A 
ATOM     15  C   UNL     1       1.871  -6.102  -6.386  0.00  0.00    +0.009 A 
ATOM     16  C   UNL     1       1.946  -4.738  -6.579  0.00  0.00    +0.002 A 
BRANCH  11  17
ATOM     17  C   UNL     1       3.085  -2.531  -6.276  0.00  0.00    -0.043 C 
BRANCH  17  21
ATOM     18  N   UNL     1       2.320   0.065  -3.051  0.00  0.00    -0.306 NA
ATOM     19  C   UNL     1       1.632   0.326  -4.323  0.00  0.00    +0.066 C 
ATOM     20  C   UNL     1       2.368  -0.395  -5.455  0.00  0.00    -0.063 C 
ATOM     21  N   UNL     1       2.395  -1.837  -5.181  0.00  0.00    +0.384 N 
ATOM     22  C   UNL     1       3.107  -2.084  -3.920  0.00  0.00    -0.063 C 
ATOM     23  C   UNL     1       2.377  -1.378  -2.775  0.00  0.00    +0.066 C 
ATOM     24  H   UNL     1       1.450  -2.184  -5.106  0.00  0.00    -0.081 HD
BRANCH  18  26
ATOM     25  C   UNL     1       1.855   2.293  -2.147  0.00  0.00    +0.020 C 
ATOM     26  C   UNL     1       1.676   0.787  -1.946  0.00  0.00    +0.081 C 
ENDBRANCH  18  26
ENDBRANCH  17  21
ENDBRANCH  11  17
ENDBRANCH   1  14
BRANCH  10  27
ATOM     27  N   UNL     1       3.562 -13.026  -4.083  0.00  0.00    -0.312 N 
ATOM     28  H   UNL     1       4.109 -12.543  -3.445  0.00  0.00    +0.152 HD
BRANCH  27  29
ATOM     29  C   UNL     1       3.752 -14.399  -4.268  0.00  0.00    +0.053 A 
ATOM     30  C   UNL     1       3.444 -15.287  -3.247  0.00  0.00    +0.071 A 
ATOM     31  C   UNL     1       3.633 -16.647  -3.433  0.00  0.00    +0.140 A 
ATOM     32  C   UNL     1       4.130 -17.119  -4.642  0.00  0.00    +0.084 A 
ATOM     33  C   UNL     1       4.436 -16.233  -5.658  0.00  0.00    +0.045 A 
ATOM     34  C   UNL     1       4.244 -14.877  -5.478  0.00  0.00    +0.064 A 
ATOM     35 CL   UNL     1       4.623 -13.768  -6.758  0.00  0.00    -0.082 Cl
ATOM     36 CL   UNL     1       4.367 -18.823  -4.875  0.00  0.00    -0.080 Cl
BRANCH  31  37
ATOM     37  O   UNL     1       3.333 -17.519  -2.435  0.00  0.00    -0.494 OA
ATOM     38  C   UNL     1       2.720 -16.977  -1.263  0.00  0.00    +0.277 C 
ENDBRANCH  31  37
ENDBRANCH  27  29
ENDBRANCH  10  27
BRANCH   9  39
ATOM     39  C   UNL     1       1.375 -14.460  -5.190  0.00  0.00    +0.103 C 
ATOM     40  N   UNL     1       1.271 -15.583  -5.050  0.00  0.00    -0.191 NA
ENDBRANCH   9  39
TORSDOF 8
