REMARK  Name = CHEMBL197094
REMARK  8 active torsions:
REMARK  status: ('A' for Active; 'I' for Inactive)
REMARK    1  A    between atoms: C_1  and  O_2
REMARK    2  A    between atoms: O_2  and  C_3
REMARK    3  A    between atoms: C_5  and  N_11
REMARK    4  A    between atoms: N_11  and  C_12
REMARK    5  A    between atoms: C_13  and  C_33
REMARK    6  A    between atoms: C_19  and  C_21
REMARK    7  A    between atoms: C_23  and  C_26
REMARK    8  A    between atoms: C_26  and  N_27
REMARK                            x       y       z     vdW  Elec       q    Type
REMARK                         _______ _______ _______ _____ _____    ______ ____
ROOT
ATOM      1  C   UNL     1      -4.948   1.738   0.232  0.00  0.00    +0.066 A 
ATOM      2  C   UNL     1      -3.799   2.458   0.627  0.00  0.00    +0.092 A 
ATOM      3  C   UNL     1      -3.917   3.843   0.800  0.00  0.00    +0.132 A 
ATOM      4  N   UNL     1      -5.044   4.473   0.609  0.00  0.00    -0.253 NA
ATOM      5  C   UNL     1      -6.186   3.846   0.230  0.00  0.00    +0.080 A 
ATOM      6  C   UNL     1      -6.117   2.449   0.036  0.00  0.00    +0.060 A 
ATOM      7  S   UNL     1      -7.767   2.014  -0.451  0.00  0.00    -0.085 S 
ATOM      8  C   UNL     1      -8.488   3.645  -0.397  0.00  0.00    +0.025 A 
ATOM      9  C   UNL     1      -7.445   4.423  -0.002  0.00  0.00    +0.044 A 
ENDROOT
BRANCH   8  10
ATOM     10  C   UNL     1      -9.879   4.049  -0.695  0.00  0.00    +0.027 A 
ATOM     11  C   UNL     1     -10.988   3.177  -1.102  0.00  0.00    +0.055 A 
ATOM     12  C   UNL     1     -12.052   3.980  -1.261  0.00  0.00    +0.119 A 
ATOM     13  O   UNL     1     -11.692   5.244  -0.990  0.00  0.00    -0.466 OA
ATOM     14  C   UNL     1     -10.398   5.306  -0.644  0.00  0.00    +0.204 A 
BRANCH  12  15
ATOM     15  C   UNL     1     -13.430   3.534  -1.676  0.00  0.00    +0.158 C 
BRANCH  15  16
ATOM     16  N   UNL     1     -14.218   3.201  -0.482  0.00  0.00    -0.299 NA
ATOM     17  C   UNL     1     -14.475   4.398   0.331  0.00  0.00    +0.066 C 
ATOM     18  C   UNL     1     -15.245   4.000   1.592  0.00  0.00    -0.067 C 
ATOM     19  N   UNL     1     -16.513   3.364   1.211  0.00  0.00    +0.381 N 
ATOM     20  C   UNL     1     -16.240   2.157   0.421  0.00  0.00    -0.067 C 
ATOM     21  C   UNL     1     -15.479   2.540  -0.850  0.00  0.00    +0.066 C 
ATOM     22  H   UNL     1     -17.026   3.113   2.043  0.00  0.00    -0.086 HD
ATOM     23  H   UNL     1     -17.060   4.010   0.661  0.00  0.00    -0.086 HD
ENDBRANCH  15  16
ENDBRANCH  12  15
ENDBRANCH   8  10
BRANCH   1  24
ATOM     24  N   UNL     1      -4.903   0.365   0.042  0.00  0.00    -0.311 N 
ATOM     25  H   UNL     1      -4.175  -0.153   0.418  0.00  0.00    +0.152 HD
BRANCH  24  28
ATOM     26  C   UNL     1      -7.841  -1.695  -0.772  0.00  0.00    +0.140 A 
ATOM     27  C   UNL     1      -6.846  -1.065  -0.042  0.00  0.00    +0.071 A 
ATOM     28  C   UNL     1      -5.909  -0.273  -0.691  0.00  0.00    +0.054 A 
ATOM     29  C   UNL     1      -5.972  -0.113  -2.071  0.00  0.00    +0.064 A 
ATOM     30  C   UNL     1      -6.966  -0.743  -2.795  0.00  0.00    +0.045 A 
ATOM     31  C   UNL     1      -7.897  -1.537  -2.150  0.00  0.00    +0.084 A 
ATOM     32 CL   UNL     1      -9.140  -2.333  -3.064  0.00  0.00    -0.080 Cl
ATOM     33 CL   UNL     1      -4.802   0.879  -2.884  0.00  0.00    -0.082 Cl
BRANCH  26  35
ATOM     34  C   UNL     1      -8.710  -2.502   1.289  0.00  0.00    +0.277 C 
ATOM     35  O   UNL     1      -8.760  -2.472  -0.139  0.00  0.00    -0.494 OA
ENDBRANCH  26  35
ENDBRANCH  24  28
ENDBRANCH   1  24
BRANCH   2  36
ATOM     36  C   UNL     1      -2.550   1.792   0.844  0.00  0.00    +0.103 C 
ATOM     37  N   UNL     1      -1.559   1.264   1.016  0.00  0.00    -0.191 NA
ENDBRANCH   2  36
TORSDOF 7
