REMARK  Name = CHEMBL231235
REMARK  10 active torsions:
REMARK  status: ('A' for Active; 'I' for Inactive)
REMARK    1  A    between atoms: C_1  and  C_2
REMARK    2  A    between atoms: C_6  and  C_42
REMARK    3  A    between atoms: C_7  and  C_8
REMARK    4  A    between atoms: C_10  and  C_41
REMARK    5  A    between atoms: N_18  and  C_19
REMARK    6  A    between atoms: C_22  and  N_25
REMARK    7  A    between atoms: N_25  and  C_26
REMARK    8  A    between atoms: C_26  and  C_27
REMARK    9  A    between atoms: C_27  and  N_28
REMARK   10  A    between atoms: C_33  and  C_35
REMARK                            x       y       z     vdW  Elec       q    Type
REMARK                         _______ _______ _______ _____ _____    ______ ____
ROOT
ATOM      1  C   UNL     1      -1.678   4.833   8.089  0.00  0.00    +0.034 A 
ATOM      2  C   UNL     1      -2.705   4.972   7.164  0.00  0.00    +0.025 A 
ATOM      3  C   UNL     1      -3.899   5.552   7.541  0.00  0.00    +0.025 A 
ATOM      4  C   UNL     1      -4.074   5.998   8.844  0.00  0.00    +0.037 A 
ATOM      5  C   UNL     1      -3.047   5.860   9.769  0.00  0.00    +0.025 A 
ATOM      6  C   UNL     1      -1.855   5.273   9.394  0.00  0.00    +0.025 A 
ENDROOT
BRANCH   1  17
ATOM      7  C   UNL     1       2.640   4.636   2.311  0.00  0.00    -0.015 A 
ATOM      8  C   UNL     1       3.404   3.896   3.229  0.00  0.00    +0.014 A 
ATOM      9  C   UNL     1       2.949   3.664   4.488  0.00  0.00    -0.022 A 
ATOM     10  C   UNL     1       1.699   4.167   4.885  0.00  0.00    +0.097 A 
ATOM     11  C   UNL     1       0.917   4.916   3.965  0.00  0.00    +0.112 A 
ATOM     12  C   UNL     1       1.408   5.148   2.672  0.00  0.00    +0.040 A 
ATOM     13  N   UNL     1      -0.271   5.388   4.360  0.00  0.00    -0.144 NA
ATOM     14  N   UNL     1      -0.686   5.158   5.558  0.00  0.00    -0.112 NA
ATOM     15  C   UNL     1       0.035   4.456   6.434  0.00  0.00    +0.240 A 
ATOM     16  N   UNL     1       1.217   3.959   6.116  0.00  0.00    -0.211 NA
ATOM     17  N   UNL     1      -0.467   4.244   7.707  0.00  0.00    -0.282 N 
ATOM     18  C   UNL     1       3.784   2.868   5.457  0.00  0.00    +0.046 C 
ATOM     19  H   UNL     1       0.021   3.688   8.334  0.00  0.00    +0.155 HD
BRANCH   7  26
ATOM     20  C   UNL     1       3.274   7.329   1.467  0.00  0.00    +0.044 C 
ATOM     21  C   UNL     1       3.471   6.167   0.527  0.00  0.00    -0.042 A 
ATOM     22  C   UNL     1       3.962   6.382  -0.744  0.00  0.00    +0.004 A 
ATOM     23  C   UNL     1       4.143   5.316  -1.608  0.00  0.00    +0.001 A 
ATOM     24  C   UNL     1       3.833   4.031  -1.202  0.00  0.00    +0.004 A 
ATOM     25  C   UNL     1       3.341   3.804   0.067  0.00  0.00    -0.042 A 
ATOM     26  C   UNL     1       3.162   4.873   0.943  0.00  0.00    -0.012 A 
ATOM     27  C   UNL     1       3.002   2.403   0.506  0.00  0.00    +0.044 C 
ENDBRANCH   7  26
ENDBRANCH   1  17
BRANCH   4  28
ATOM     28  N   UNL     1      -5.285   6.588   9.226  0.00  0.00    -0.269 N 
ATOM     29  C   UNL     1      -6.333   6.586   8.378  0.00  0.00    +0.251 C 
ATOM     30  O   UNL     1      -6.258   5.989   7.322  0.00  0.00    -0.270 OA
BRANCH  29  31
ATOM     31  C   UNL     1      -7.572   7.309   8.732  0.00  0.00    +0.037 A 
ATOM     32  C   UNL     1      -7.539   8.335   9.678  0.00  0.00    +0.013 A 
ATOM     33  C   UNL     1      -8.699   9.007  10.004  0.00  0.00    +0.001 A 
ATOM     34  C   UNL     1      -9.894   8.665   9.396  0.00  0.00    +0.000 A 
ATOM     35  C   UNL     1      -9.934   7.648   8.458  0.00  0.00    +0.001 A 
ATOM     36  C   UNL     1      -8.780   6.973   8.118  0.00  0.00    +0.013 A 
ENDBRANCH  29  31
BRANCH  28  37
ATOM     37  C   UNL     1      -5.414   7.208  10.547  0.00  0.00    +0.095 C 
BRANCH  37  38
ATOM     38  C   UNL     1      -4.669   8.544  10.559  0.00  0.00    -0.059 C 
BRANCH  38  39
ATOM     39  N   UNL     1      -4.798   9.165  11.883  0.00  0.00    +0.381 N 
ATOM     40  C   UNL     1      -4.041   8.382  12.893  0.00  0.00    -0.079 C 
ATOM     41  C   UNL     1      -3.800   9.407  14.029  0.00  0.00    -0.020 C 
ATOM     42  C   UNL     1      -3.542  10.722  13.260  0.00  0.00    -0.020 C 
ATOM     43  C   UNL     1      -4.187  10.512  11.877  0.00  0.00    -0.079 C 
ATOM     44  H   UNL     1      -5.770   9.226  12.147  0.00  0.00    -0.082 HD
ENDBRANCH  38  39
ENDBRANCH  37  38
ENDBRANCH  28  37
ENDBRANCH   4  28
TORSDOF 7
