REMARK  Name = CHEMBL224856
REMARK  8 active torsions:
REMARK  status: ('A' for Active; 'I' for Inactive)
REMARK    1  A    between atoms: C_1  and  N_2
REMARK    2  A    between atoms: N_5  and  C_8
REMARK    3  A    between atoms: C_8  and  C_9
REMARK    4  A    between atoms: C_12  and  C_15
REMARK    5  A    between atoms: C_20  and  C_26
REMARK    6  A    between atoms: C_21  and  C_24
REMARK    7  A    between atoms: C_26  and  N_27
REMARK    8  A    between atoms: N_27  and  C_28
REMARK                            x       y       z     vdW  Elec       q    Type
REMARK                         _______ _______ _______ _____ _____    ______ ____
ROOT
ATOM      1  C   UNL     1       1.422  -5.799   6.265  0.00  0.00    +0.022 A 
ATOM      2  C   UNL     1       0.740  -6.057   7.412  0.00  0.00    +0.044 A 
ATOM      3  C   UNL     1       1.428  -6.491   8.558  0.00  0.00    +0.079 A 
ATOM      4  C   UNL     1       2.830  -6.625   8.405  0.00  0.00    +0.044 A 
ATOM      5  S   UNL     1       3.111  -6.161   6.716  0.00  0.00    -0.086 S 
ATOM      6  C   UNL     1       3.639  -7.040   9.435  0.00  0.00    +0.004 A 
ATOM      7  C   UNL     1       3.035  -7.333  10.667  0.00  0.00    +0.076 A 
ATOM      8  C   UNL     1       1.645  -7.186  10.774  0.00  0.00    +0.130 A 
ATOM      9  N   UNL     1       0.910  -6.790   9.771  0.00  0.00    -0.253 NA
ENDROOT
BRANCH   1  13
ATOM     10  C   UNL     1      -0.094  -4.478   2.524  0.00  0.00    -0.033 A 
ATOM     11  C   UNL     1       1.262  -4.705   2.676  0.00  0.00    +0.005 A 
ATOM     12  C   UNL     1       1.761  -5.134   3.889  0.00  0.00    +0.009 A 
ATOM     13  C   UNL     1       0.895  -5.339   4.963  0.00  0.00    -0.011 A 
ATOM     14  C   UNL     1      -0.472  -5.109   4.803  0.00  0.00    +0.009 A 
ATOM     15  C   UNL     1      -0.958  -4.675   3.586  0.00  0.00    +0.005 A 
BRANCH  10  16
ATOM     16  C   UNL     1      -0.632  -4.009   1.196  0.00  0.00    +0.119 C 
BRANCH  16  21
ATOM     17  C   UNL     1      -0.018   1.465   0.010  0.00  0.00    -0.096 C 
ATOM     18  N   UNL     1       0.002  -0.004   0.002  0.00  0.00    +0.379 N 
ATOM     19  C   UNL     1      -1.376  -0.512   0.011  0.00  0.00    -0.064 C 
ATOM     20  C   UNL     1      -1.356  -2.042  -0.017  0.00  0.00    +0.066 C 
ATOM     21  N   UNL     1      -0.624  -2.541   1.156  0.00  0.00    -0.302 NA
ATOM     22  C   UNL     1       0.750  -2.020   1.175  0.00  0.00    +0.066 C 
ATOM     23  C   UNL     1       0.713  -0.490   1.192  0.00  0.00    -0.064 C 
ATOM     24  H   UNL     1       0.475  -0.329  -0.828  0.00  0.00    -0.082 HD
ENDBRANCH  16  21
ENDBRANCH  10  16
ENDBRANCH   1  13
BRANCH   7  25
ATOM     25  C   UNL     1       3.817  -7.771  11.784  0.00  0.00    +0.101 C 
ATOM     26  N   UNL     1       4.438  -8.118  12.670  0.00  0.00    -0.191 NA
ENDBRANCH   7  25
BRANCH   6  27
ATOM     27  C   UNL     1       5.128  -7.176   9.248  0.00  0.00    +0.139 C 
BRANCH  27  28
ATOM     28  N   UNL     1       5.780  -5.907   9.582  0.00  0.00    -0.339 N 
ATOM     29  H   UNL     1       5.247  -5.150   9.871  0.00  0.00    +0.146 HD
BRANCH  28  30
ATOM     30  C   UNL     1       7.170  -5.788   9.484  0.00  0.00    +0.046 A 
ATOM     31  C   UNL     1       7.932  -6.870   9.064  0.00  0.00    +0.026 A 
ATOM     32  C   UNL     1       9.305  -6.750   8.968  0.00  0.00    +0.022 A 
ATOM     33  C   UNL     1       9.921  -5.553   9.289  0.00  0.00    +0.042 A 
ATOM     34  C   UNL     1       9.164  -4.473   9.708  0.00  0.00    +0.041 A 
ATOM     35  C   UNL     1       7.790  -4.586   9.801  0.00  0.00    +0.063 A 
ATOM     36 CL   UNL     1       6.840  -3.228  10.319  0.00  0.00    -0.082 Cl
ATOM     37 CL   UNL     1      11.646  -5.407   9.168  0.00  0.00    -0.083 Cl
ENDBRANCH  28  30
ENDBRANCH  27  28
ENDBRANCH   6  27
TORSDOF 7
