REMARK  Name = CHEMBL523122
REMARK  8 active torsions:
REMARK  status: ('A' for Active; 'I' for Inactive)
REMARK    1  A    between atoms: C_1  and  O_2
REMARK    2  A    between atoms: O_2  and  C_3
REMARK    3  A    between atoms: C_3  and  C_4
REMARK    4  A    between atoms: C_4  and  O_5
REMARK    5  A    between atoms: O_5  and  C_6
REMARK    6  A    between atoms: C_11  and  N_12
REMARK    7  A    between atoms: C_13  and  C_15
REMARK    8  A    between atoms: N_25  and  C_26
REMARK                            x       y       z     vdW  Elec       q    Type
REMARK                         _______ _______ _______ _____ _____    ______ ____
ROOT
ATOM      1  C   UNL     1      -1.170  -3.968  -2.440  0.00  0.00    +0.144 A 
ATOM      2  C   UNL     1      -0.150  -4.858  -2.693  0.00  0.00    +0.076 A 
ATOM      3  C   UNL     1      -0.318  -6.213  -2.381  0.00  0.00    +0.080 A 
ATOM      4  C   UNL     1      -1.538  -6.652  -1.810  0.00  0.00    +0.042 A 
ATOM      5  C   UNL     1      -2.564  -5.733  -1.560  0.00  0.00    +0.040 A 
ATOM      6  C   UNL     1      -2.375  -4.404  -1.869  0.00  0.00    +0.076 A 
ATOM      7  C   UNL     1      -1.676  -8.028  -1.506  0.00  0.00    +0.134 A 
ATOM      8  N   UNL     1      -0.657  -8.835  -1.773  0.00  0.00    -0.220 NA
ATOM      9  C   UNL     1       0.465  -8.379  -2.308  0.00  0.00    +0.223 A 
ATOM     10  N   UNL     1       0.649  -7.115  -2.610  0.00  0.00    -0.235 NA
ATOM     11  N   UNL     1      -2.839  -8.517  -0.948  0.00  0.00    -0.295 N 
ATOM     12  H   UNL     1      -3.539  -7.905  -0.673  0.00  0.00    +0.154 HD
ENDROOT
BRANCH  11  13
ATOM     13  C   UNL     1      -3.008  -9.897  -0.778  0.00  0.00    +0.097 A 
ATOM     14  C   UNL     1      -4.228 -10.491  -1.079  0.00  0.00    +0.066 A 
ATOM     15  C   UNL     1      -4.394 -11.853  -0.912  0.00  0.00    +0.025 A 
ATOM     16  C   UNL     1      -3.349 -12.629  -0.445  0.00  0.00    +0.051 A 
ATOM     17  C   UNL     1      -2.129 -12.046  -0.142  0.00  0.00    +0.168 A 
ATOM     18  C   UNL     1      -1.954 -10.676  -0.314  0.00  0.00    +0.189 A 
ATOM     19  O   UNL     1      -0.676 -10.351   0.043  0.00  0.00    -0.451 OA
ATOM     20  C   UNL     1      -0.197 -11.467   0.815  0.00  0.00    +0.466 C 
ATOM     21  O   UNL     1      -0.962 -12.580   0.325  0.00  0.00    -0.453 OA
ATOM     22 CL   UNL     1      -5.543  -9.522  -1.665  0.00  0.00    -0.081 Cl
ENDBRANCH  11  13
BRANCH   6  23
ATOM     23  N   UNL     1      -3.397  -3.481  -1.615  0.00  0.00    -0.284 N 
ATOM     24  C   UNL     1      -4.687  -3.852  -1.738  0.00  0.00    +0.203 C 
ATOM     25  O   UNL     1      -4.965  -5.006  -1.986  0.00  0.00    -0.277 OA
ATOM     26  H   UNL     1      -3.177  -2.574  -1.350  0.00  0.00    +0.155 HD
BRANCH  24  27
ATOM     27  C   UNL     1      -5.784  -2.833  -1.569  0.00  0.00    +0.016 C 
ATOM     28  C   UNL     1      -5.742  -2.249  -0.141  0.00  0.00    -0.009 C 
ATOM     29  C   UNL     1      -7.243  -2.100   0.221  0.00  0.00    -0.020 C 
ATOM     30  C   UNL     1      -7.857  -3.340  -0.475  0.00  0.00    -0.082 C 
ATOM     31  N   UNL     1      -7.099  -3.478  -1.741  0.00  0.00    +0.387 N 
ATOM     32  H   UNL     1      -7.602  -3.028  -2.491  0.00  0.00    -0.085 HD
ATOM     33  H   UNL     1      -6.972  -4.455  -1.958  0.00  0.00    -0.085 HD
ENDBRANCH  24  27
ENDBRANCH   6  23
BRANCH   1  34
ATOM     34  O   UNL     1      -1.006  -2.654  -2.742  0.00  0.00    -0.488 OA
BRANCH  34  35
ATOM     35  C   UNL     1       0.244  -2.273  -3.321  0.00  0.00    +0.257 C 
BRANCH  35  36
ATOM     36  C   UNL     1       0.243  -0.766  -3.590  0.00  0.00    +0.200 C 
BRANCH  36  38
ATOM     37  C   UNL     1       0.164   1.361  -2.487  0.00  0.00    +0.194 C 
ATOM     38  O   UNL     1       0.171  -0.062  -2.349  0.00  0.00    -0.380 OA
ENDBRANCH  36  38
ENDBRANCH  35  36
ENDBRANCH  34  35
ENDBRANCH   1  34
TORSDOF 7
