REMARK  Name = CHEMBL1086731
REMARK  9 active torsions:
REMARK  status: ('A' for Active; 'I' for Inactive)
REMARK    1  A    between atoms: C_1  and  C_2
REMARK    2  A    between atoms: C_5  and  N_25
REMARK    3  A    between atoms: C_7  and  N_8
REMARK    4  A    between atoms: C_20  and  N_24
REMARK    5  A    between atoms: C_26  and  C_28
REMARK    6  A    between atoms: C_31  and  C_33
REMARK    7  A    between atoms: C_33  and  C_34
REMARK    8  A    between atoms: C_33  and  C_35
REMARK    9  A    between atoms: C_33  and  C_36
REMARK                            x       y       z     vdW  Elec       q    Type
REMARK                         _______ _______ _______ _____ _____    ______ ____
ROOT
ATOM      1  N   UNL     1       1.224  -0.099   2.253  0.00  0.00    -0.286 N 
ATOM      2  C   UNL     1       0.988  -0.921   3.336  0.00  0.00    +0.184 A 
ATOM      3  N   UNL     1       1.005  -2.230   3.304  0.00  0.00    -0.327 N 
ATOM      4  C   UNL     1       0.733  -2.723   4.541  0.00  0.00    +0.066 A 
ATOM      5  C   UNL     1       0.627  -4.017   5.056  0.00  0.00    +0.028 A 
ATOM      6  C   UNL     1       0.332  -4.201   6.388  0.00  0.00    +0.002 A 
ATOM      7  C   UNL     1       0.138  -3.111   7.223  0.00  0.00    +0.002 A 
ATOM      8  C   UNL     1       0.238  -1.826   6.730  0.00  0.00    +0.028 A 
ATOM      9  C   UNL     1       0.535  -1.622   5.391  0.00  0.00    +0.074 A 
ATOM     10  N   UNL     1       0.708  -0.492   4.606  0.00  0.00    -0.266 N 
ATOM     11  C   UNL     1       0.611   0.833   5.028  0.00  0.00    +0.145 A 
ATOM     12  C   UNL     1       0.447   1.858   4.104  0.00  0.00    +0.090 A 
ATOM     13  C   UNL     1       0.355   3.164   4.577  0.00  0.00    +0.121 A 
ATOM     14  N   UNL     1       0.428   3.383   5.888  0.00  0.00    -0.221 NA
ATOM     15  C   UNL     1       0.585   2.383   6.732  0.00  0.00    +0.225 A 
ATOM     16  N   UNL     1       0.669   1.134   6.323  0.00  0.00    -0.218 NA
ATOM     17  H   UNL     1       1.596   0.787   2.389  0.00  0.00    +0.155 HD
ATOM     18  H   UNL     1       1.184  -2.767   2.516  0.00  0.00    +0.169 HD
ENDROOT
BRANCH   1  25
ATOM     19  C   UNL     1       3.303  -0.068   0.314  0.00  0.00    +0.045 C 
ATOM     20  C   UNL     1       1.912  -0.543  -0.018  0.00  0.00    -0.029 A 
ATOM     21  C   UNL     1       1.619  -0.985  -1.294  0.00  0.00    +0.007 A 
ATOM     22  C   UNL     1       0.345  -1.420  -1.602  0.00  0.00    +0.024 A 
ATOM     23  C   UNL     1      -0.647  -1.415  -0.629  0.00  0.00    +0.035 A 
ATOM     24  C   UNL     1      -0.357  -0.972   0.653  0.00  0.00    +0.047 A 
ATOM     25  C   UNL     1       0.926  -0.541   0.961  0.00  0.00    +0.038 A 
BRANCH  23  26
ATOM     26  N   UNL     1      -1.937  -1.855  -0.943  0.00  0.00    -0.281 N 
ATOM     27  C   UNL     1      -2.113  -2.828  -1.858  0.00  0.00    +0.255 C 
ATOM     28  O   UNL     1      -1.154  -3.448  -2.280  0.00  0.00    -0.269 OA
ATOM     29  H   UNL     1      -2.705  -1.460  -0.501  0.00  0.00    +0.155 HD
BRANCH  27  30
ATOM     30  C   UNL     1      -3.459  -3.141  -2.346  0.00  0.00    +0.074 A 
ATOM     31  C   UNL     1      -4.670  -2.558  -2.003  0.00  0.00    +0.021 A 
ATOM     32  C   UNL     1      -5.778  -3.070  -2.635  0.00  0.00    +0.012 A 
ATOM     33  C   UNL     1      -5.622  -4.081  -3.525  0.00  0.00    -0.004 A 
ATOM     34  S   UNL     1      -3.966  -4.365  -3.539  0.00  0.00    -0.088 S 
BRANCH  33  35
ATOM     35  C   UNL     1      -6.689  -4.785  -4.324  0.00  0.00    -0.006 C 
ATOM     36  C   UNL     1      -7.413  -3.771  -5.212  0.00  0.00    +0.016 C 
ATOM     37  C   UNL     1      -6.044  -5.861  -5.199  0.00  0.00    +0.016 C 
ATOM     38  C   UNL     1      -7.693  -5.436  -3.370  0.00  0.00    +0.016 C 
ENDBRANCH  33  35
ENDBRANCH  27  30
ENDBRANCH  23  26
ENDBRANCH   1  25
BRANCH  13  39
ATOM     39  N   UNL     1       0.191   4.221   3.696  0.00  0.00    -0.343 N 
ATOM     40  H   UNL     1       0.139   4.054   2.742  0.00  0.00    +0.144 HD
ATOM     41  H   UNL     1       0.128   5.129   4.033  0.00  0.00    +0.144 HD
ENDBRANCH  13  39
TORSDOF 5
