REMARK  Name = CHEMBL40557
REMARK  11 active torsions:
REMARK  status: ('A' for Active; 'I' for Inactive)
REMARK    1  A    between atoms: C_1  and  N_2
REMARK    2  A    between atoms: C_6  and  C_8
REMARK    3  A    between atoms: C_8  and  O_9
REMARK    4  A    between atoms: O_9  and  C_10
REMARK    5  A    between atoms: C_15  and  O_16
REMARK    6  A    between atoms: O_16  and  C_17
REMARK    7  A    between atoms: C_18  and  N_24
REMARK    8  A    between atoms: C_19  and  C_22
REMARK    9  A    between atoms: N_24  and  C_25
REMARK   10  A    between atoms: C_27  and  O_33
REMARK   11  A    between atoms: O_33  and  C_34
REMARK                            x       y       z     vdW  Elec       q    Type
REMARK                         _______ _______ _______ _____ _____    ______ ____
ROOT
ATOM      1  C   UNL     1       5.219   0.517   7.417  0.00  0.00    +0.164 A 
ATOM      2  C   UNL     1       4.734  -0.704   7.006  0.00  0.00    +0.077 A 
ATOM      3  C   UNL     1       3.777  -1.371   7.786  0.00  0.00    +0.077 A 
ATOM      4  C   UNL     1       3.326  -0.771   8.987  0.00  0.00    +0.026 A 
ATOM      5  C   UNL     1       3.837   0.474   9.383  0.00  0.00    +0.061 A 
ATOM      6  C   UNL     1       4.771   1.101   8.610  0.00  0.00    +0.162 A 
ATOM      7  C   UNL     1       2.361  -1.446   9.770  0.00  0.00    +0.060 A 
ATOM      8  C   UNL     1       1.896  -2.687   9.311  0.00  0.00    +0.091 A 
ATOM      9  C   UNL     1       2.400  -3.207   8.107  0.00  0.00    +0.132 A 
ATOM     10  N   UNL     1       3.293  -2.561   7.402  0.00  0.00    -0.253 NA
ENDROOT
BRANCH   6  11
ATOM     11  O   UNL     1       5.269   2.305   8.999  0.00  0.00    -0.491 OA
ATOM     12  C   UNL     1       4.772   2.847  10.225  0.00  0.00    +0.277 C 
ENDBRANCH   6  11
BRANCH   8  13
ATOM     13  C   UNL     1       0.920  -3.417  10.062  0.00  0.00    +0.103 C 
ATOM     14  N   UNL     1       0.145  -3.997  10.658  0.00  0.00    -0.191 NA
ENDBRANCH   8  13
BRANCH   7  15
ATOM     15  N   UNL     1       1.892  -0.900  10.949  0.00  0.00    -0.312 N 
ATOM     16  H   UNL     1       1.055  -0.410  10.957  0.00  0.00    +0.152 HD
BRANCH  15  17
ATOM     17  C   UNL     1       2.623  -1.056  12.131  0.00  0.00    +0.053 A 
ATOM     18  C   UNL     1       3.875  -1.654  12.100  0.00  0.00    +0.071 A 
ATOM     19  C   UNL     1       4.597  -1.806  13.273  0.00  0.00    +0.140 A 
ATOM     20  C   UNL     1       4.066  -1.361  14.477  0.00  0.00    +0.084 A 
ATOM     21  C   UNL     1       2.819  -0.766  14.506  0.00  0.00    +0.045 A 
ATOM     22  C   UNL     1       2.098  -0.607  13.337  0.00  0.00    +0.064 A 
ATOM     23 CL   UNL     1       0.535   0.147  13.377  0.00  0.00    -0.082 Cl
ATOM     24 CL   UNL     1       4.971  -1.553  15.946  0.00  0.00    -0.080 Cl
BRANCH  19  25
ATOM     25  O   UNL     1       5.824  -2.391  13.245  0.00  0.00    -0.494 OA
ATOM     26  C   UNL     1       6.359  -2.715  11.960  0.00  0.00    +0.277 C 
ENDBRANCH  19  25
ENDBRANCH  15  17
ENDBRANCH   7  15
BRANCH   1  27
ATOM     27  O   UNL     1       6.146   1.161   6.660  0.00  0.00    -0.488 OA
BRANCH  27  28
ATOM     28  C   UNL     1       6.562   0.515   5.456  0.00  0.00    +0.231 C 
BRANCH  28  34
ATOM     29  C   UNL     1      10.205   1.823   3.770  0.00  0.00    -0.096 C 
ATOM     30  N   UNL     1       9.130   1.473   2.831  0.00  0.00    +0.378 N 
ATOM     31  C   UNL     1       8.496   2.700   2.336  0.00  0.00    -0.079 C 
ATOM     32  C   UNL     1       7.977   3.523   3.517  0.00  0.00    -0.018 C 
ATOM     33  C   UNL     1       6.950   2.695   4.296  0.00  0.00    +0.003 C 
ATOM     34  C   UNL     1       7.601   1.384   4.744  0.00  0.00    +0.010 C 
ATOM     35  C   UNL     1       8.135   0.640   3.518  0.00  0.00    -0.072 C 
ATOM     36  H   UNL     1       9.518   0.960   2.054  0.00  0.00    -0.082 HD
ENDBRANCH  28  34
ENDBRANCH  27  28
ENDBRANCH   1  27
TORSDOF 8
