REMARK  Name = CHEMBL45693
REMARK  7 active torsions:
REMARK  status: ('A' for Active; 'I' for Inactive)
REMARK    1  A    between atoms: C_1  and  N_2
REMARK    2  A    between atoms: N_5  and  C_8
REMARK    3  A    between atoms: C_11  and  N_14
REMARK    4  A    between atoms: C_17  and  C_19
REMARK    5  A    between atoms: C_22  and  C_25
REMARK    6  A    between atoms: C_25  and  C_27
REMARK    7  A    between atoms: C_33  and  N_37
REMARK                            x       y       z     vdW  Elec       q    Type
REMARK                         _______ _______ _______ _____ _____    ______ ____
ROOT
ATOM      1  N   UNL     1      -1.271  -7.470   0.520  0.00  0.00    -0.243 N 
ATOM      2  C   UNL     1      -1.730  -8.133   1.620  0.00  0.00    +0.164 A 
ATOM      3  C   UNL     1      -1.612  -9.509   1.347  0.00  0.00    +0.086 A 
ATOM      4  C   UNL     1      -1.048  -9.617   0.001  0.00  0.00    +0.105 A 
ATOM      5  N   UNL     1      -0.870  -8.396  -0.448  0.00  0.00    -0.168 NA
ATOM      6  C   UNL     1      -2.022 -10.425   2.329  0.00  0.00    +0.131 A 
ATOM      7  N   UNL     1      -2.502  -9.951   3.474  0.00  0.00    -0.220 NA
ATOM      8  C   UNL     1      -2.596  -8.651   3.688  0.00  0.00    +0.225 A 
ATOM      9  N   UNL     1      -2.225  -7.756   2.798  0.00  0.00    -0.216 NA
ENDROOT
BRANCH   1  13
ATOM     10  C   UNL     1      -0.565  -3.633  -1.207  0.00  0.00    -0.068 C 
ATOM     11  C   UNL     1      -2.014  -4.065  -0.971  0.00  0.00    -0.013 C 
ATOM     12  C   UNL     1      -2.074  -5.586  -0.818  0.00  0.00    +0.025 C 
ATOM     13  C   UNL     1      -1.214  -6.013   0.373  0.00  0.00    +0.109 C 
ATOM     14  C   UNL     1       0.235  -5.582   0.137  0.00  0.00    +0.025 C 
ATOM     15  C   UNL     1       0.295  -4.061  -0.016  0.00  0.00    -0.013 C 
BRANCH  10  20
ATOM     16  C   UNL     1       0.182   1.643  -3.037  0.00  0.00    +0.104 C 
ATOM     17  N   UNL     1       0.103   0.190  -2.840  0.00  0.00    -0.309 NA
ATOM     18  C   UNL     1      -1.288  -0.240  -2.640  0.00  0.00    +0.065 C 
ATOM     19  C   UNL     1      -1.333  -1.763  -2.498  0.00  0.00    -0.063 C 
ATOM     20  N   UNL     1      -0.507  -2.173  -1.354  0.00  0.00    +0.383 N 
ATOM     21  C   UNL     1       0.884  -1.758  -1.579  0.00  0.00    -0.063 C 
ATOM     22  C   UNL     1       0.947  -0.235  -1.714  0.00  0.00    +0.065 C 
ATOM     23  H   UNL     1      -0.856  -1.736  -0.514  0.00  0.00    -0.081 HD
ENDBRANCH  10  20
ENDBRANCH   1  13
BRANCH   4  24
ATOM     24  C   UNL     1      -0.741 -10.871  -0.723  0.00  0.00    +0.003 A 
ATOM     25  C   UNL     1      -1.660 -11.923  -0.717  0.00  0.00    +0.011 A 
ATOM     26  C   UNL     1      -1.376 -13.085  -1.387  0.00  0.00    +0.012 A 
ATOM     27  C   UNL     1      -0.167 -13.217  -2.076  0.00  0.00    +0.022 A 
ATOM     28  C   UNL     1       0.752 -12.163  -2.082  0.00  0.00    +0.012 A 
ATOM     29  C   UNL     1       0.465 -11.000  -1.416  0.00  0.00    +0.011 A 
BRANCH  27  30
ATOM     30  C   UNL     1       0.140 -14.468  -2.797  0.00  0.00    +0.193 C 
ATOM     31  O   UNL     1       1.294 -14.763  -3.039  0.00  0.00    -0.287 OA
BRANCH  30  32
ATOM     32  C   UNL     1      -0.957 -15.361  -3.225  0.00  0.00    +0.022 A 
ATOM     33  C   UNL     1      -2.244 -14.853  -3.410  0.00  0.00    +0.012 A 
ATOM     34  C   UNL     1      -3.263 -15.693  -3.809  0.00  0.00    +0.001 A 
ATOM     35  C   UNL     1      -3.011 -17.037  -4.026  0.00  0.00    +0.000 A 
ATOM     36  C   UNL     1      -1.738 -17.547  -3.845  0.00  0.00    +0.001 A 
ATOM     37  C   UNL     1      -0.708 -16.717  -3.451  0.00  0.00    +0.012 A 
ENDBRANCH  30  32
ENDBRANCH  27  30
ENDBRANCH   4  24
BRANCH   6  38
ATOM     38  N   UNL     1      -1.927 -11.786   2.110  0.00  0.00    -0.342 N 
ATOM     39  H   UNL     1      -1.402 -12.123   1.367  0.00  0.00    +0.144 HD
ATOM     40  H   UNL     1      -2.385 -12.405   2.700  0.00  0.00    +0.144 HD
ENDBRANCH   6  38
TORSDOF 6
