REMARK  Name = CHEMBL562157
REMARK  3 active torsions:
REMARK  status: ('A' for Active; 'I' for Inactive)
REMARK    1  A    between atoms: C_1  and  C_2
REMARK    2  A    between atoms: C_17  and  S_19
REMARK    3  A    between atoms: S_19  and  C_20
REMARK                            x       y       z     vdW  Elec       q    Type
REMARK                         _______ _______ _______ _____ _____    ______ ____
ROOT
ATOM      1  C   UNL     1      -0.006   1.502   0.011  0.00  0.00    +0.065 C 
ATOM      2  C   UNL     1       0.011  -0.005   0.002  0.00  0.00    +0.035 A 
ATOM      3  C   UNL     1       0.013  -0.795  -1.096  0.00  0.00    +0.068 A 
ATOM      4  C   UNL     1       0.031  -2.131  -0.664  0.00  0.00    +0.146 A 
ATOM      5  N   UNL     1       0.039  -2.135   0.648  0.00  0.00    -0.158 NA
ATOM      6  N   UNL     1       0.033  -0.805   1.088  0.00  0.00    -0.280 N 
ATOM      7  H   UNL     1       0.040  -0.511   2.013  0.00  0.00    +0.189 HD
ATOM      8  N   UNL     1       0.038  -3.262  -1.490  0.00  0.00    -0.282 N 
ATOM      9  C   UNL     1       0.028  -3.115  -2.862  0.00  0.00    +0.136 A 
ATOM     10  C   UNL     1       0.029  -4.247  -3.715  0.00  0.00    +0.041 A 
ATOM     11  C   UNL     1       0.041  -5.553  -3.213  0.00  0.00    +0.013 A 
ATOM     12  C   UNL     1       0.041  -6.606  -4.081  0.00  0.00    +0.001 A 
ATOM     13  C   UNL     1       0.030  -6.398  -5.457  0.00  0.00    +0.002 A 
ATOM     14  C   UNL     1       0.019  -5.138  -5.977  0.00  0.00    +0.028 A 
ATOM     15  C   UNL     1       0.018  -4.033  -5.114  0.00  0.00    +0.077 A 
ATOM     16  N   UNL     1       0.006  -2.774  -5.576  0.00  0.00    -0.221 NA
ATOM     17  C   UNL     1       0.005  -1.755  -4.737  0.00  0.00    +0.195 A 
ATOM     18  N   UNL     1       0.011  -1.911  -3.415  0.00  0.00    -0.206 NA
ATOM     19  H   UNL     1       0.051  -4.149  -1.098  0.00  0.00    +0.155 HD
ENDROOT
BRANCH  17  20
ATOM     20  S   UNL     1      -0.010  -0.120  -5.394  0.00  0.00    -0.050 S 
BRANCH  20  21
ATOM     21  C   UNL     1       0.131  -0.359  -7.134  0.00  0.00    +0.016 A 
ATOM     22  C   UNL     1      -1.010  -0.394  -7.926  0.00  0.00    +0.016 A 
ATOM     23  C   UNL     1      -0.896  -0.581  -9.290  0.00  0.00    +0.021 A 
ATOM     24  C   UNL     1       0.353  -0.734  -9.867  0.00  0.00    +0.041 A 
ATOM     25  C   UNL     1       1.490  -0.700  -9.080  0.00  0.00    +0.021 A 
ATOM     26  C   UNL     1       1.383  -0.508  -7.717  0.00  0.00    +0.016 A 
ATOM     27 CL   UNL     1       0.492  -0.970 -11.581  0.00  0.00    -0.084 Cl
ENDBRANCH  20  21
ENDBRANCH  17  20
TORSDOF 2
