REMARK  Name = CHEMBL248393
REMARK  12 active torsions:
REMARK  status: ('A' for Active; 'I' for Inactive)
REMARK    1  A    between atoms: C_1  and  N_2
REMARK    2  A    between atoms: N_5  and  C_8
REMARK    3  A    between atoms: C_8  and  C_9
REMARK    4  A    between atoms: C_9  and  C_10
REMARK    5  A    between atoms: C_10  and  O_11
REMARK    6  A    between atoms: O_11  and  C_12
REMARK    7  A    between atoms: C_17  and  O_18
REMARK    8  A    between atoms: O_18  and  C_19
REMARK    9  A    between atoms: C_20  and  N_26
REMARK   10  A    between atoms: C_21  and  C_24
REMARK   11  A    between atoms: N_26  and  C_27
REMARK   12  A    between atoms: C_30  and  C_32
REMARK                            x       y       z     vdW  Elec       q    Type
REMARK                         _______ _______ _______ _____ _____    ______ ____
ROOT
ATOM      1  C   UNL     1       1.498  -8.129   2.961  0.00  0.00    +0.164 A 
ATOM      2  C   UNL     1       0.670  -8.922   2.199  0.00  0.00    +0.077 A 
ATOM      3  C   UNL     1       0.498 -10.274   2.535  0.00  0.00    +0.076 A 
ATOM      4  C   UNL     1       1.184 -10.799   3.657  0.00  0.00    +0.026 A 
ATOM      5  C   UNL     1       2.022  -9.969   4.416  0.00  0.00    +0.061 A 
ATOM      6  C   UNL     1       2.177  -8.659   4.067  0.00  0.00    +0.162 A 
ATOM      7  C   UNL     1       1.008 -12.161   3.993  0.00  0.00    +0.056 A 
ATOM      8  C   UNL     1       0.155 -12.929   3.187  0.00  0.00    +0.091 A 
ATOM      9  C   UNL     1      -0.485 -12.325   2.093  0.00  0.00    +0.132 A 
ATOM     10  N   UNL     1      -0.304 -11.062   1.804  0.00  0.00    -0.253 NA
ENDROOT
BRANCH   6  11
ATOM     11  O   UNL     1       2.995  -7.858   4.802  0.00  0.00    -0.491 OA
ATOM     12  C   UNL     1       3.658  -8.457   5.917  0.00  0.00    +0.277 C 
ENDBRANCH   6  11
BRANCH   8  13
ATOM     13  C   UNL     1      -0.062 -14.315   3.478  0.00  0.00    +0.103 C 
ATOM     14  N   UNL     1      -0.233 -15.414   3.708  0.00  0.00    -0.191 NA
ENDBRANCH   8  13
BRANCH   7  15
ATOM     15  N   UNL     1       1.656 -12.717   5.077  0.00  0.00    -0.339 N 
ATOM     16  H   UNL     1       1.902 -12.161   5.833  0.00  0.00    +0.146 HD
BRANCH  15  17
ATOM     17  C   UNL     1       1.973 -14.147   5.087  0.00  0.00    +0.078 C 
ATOM     18  C   UNL     1       1.462 -14.976   6.268  0.00  0.00    +0.032 C 
ATOM     19  C   UNL     1       2.952 -14.647   6.152  0.00  0.00    +0.041 C 
BRANCH  19  20
ATOM     20  C   UNL     1       3.885 -15.767   5.768  0.00  0.00    -0.042 A 
ATOM     21  C   UNL     1       3.372 -16.983   5.359  0.00  0.00    +0.004 A 
ATOM     22  C   UNL     1       4.227 -18.011   5.007  0.00  0.00    +0.000 A 
ATOM     23  C   UNL     1       5.595 -17.822   5.065  0.00  0.00    +0.000 A 
ATOM     24  C   UNL     1       6.108 -16.605   5.474  0.00  0.00    +0.000 A 
ATOM     25  C   UNL     1       5.253 -15.576   5.821  0.00  0.00    +0.004 A 
ENDBRANCH  19  20
ENDBRANCH  15  17
ENDBRANCH   7  15
BRANCH   1  26
ATOM     26  O   UNL     1       1.663  -6.821   2.634  0.00  0.00    -0.488 OA
BRANCH  26  27
ATOM     27  C   UNL     1       0.945  -6.341   1.496  0.00  0.00    +0.227 C 
BRANCH  27  28
ATOM     28  C   UNL     1       1.255  -4.858   1.285  0.00  0.00    +0.022 C 
BRANCH  28  29
ATOM     29  C   UNL     1       0.485  -4.344   0.067  0.00  0.00    -0.075 C 
BRANCH  29  34
ATOM     30  C   UNL     1       1.988   0.678  -1.998  0.00  0.00    +0.104 C 
ATOM     31  N   UNL     1       1.675  -0.734  -1.744  0.00  0.00    -0.309 NA
ATOM     32  C   UNL     1       0.250  -0.909  -1.429  0.00  0.00    +0.065 C 
ATOM     33  C   UNL     1      -0.046  -2.397  -1.230  0.00  0.00    -0.063 C 
ATOM     34  N   UNL     1       0.783  -2.920  -0.136  0.00  0.00    +0.381 N 
ATOM     35  C   UNL     1       2.203  -2.760  -0.476  0.00  0.00    -0.063 C 
ATOM     36  C   UNL     1       2.518  -1.275  -0.668  0.00  0.00    +0.065 C 
ATOM     37  H   UNL     1       0.581  -2.411   0.712  0.00  0.00    -0.082 HD
ENDBRANCH  29  34
ENDBRANCH  28  29
ENDBRANCH  27  28
ENDBRANCH  26  27
ENDBRANCH   1  26
TORSDOF 10
