REMARK  Name = CHEMBL46176
REMARK  11 active torsions:
REMARK  status: ('A' for Active; 'I' for Inactive)
REMARK    1  A    between atoms: C_1  and  N_2
REMARK    2  A    between atoms: N_5  and  C_8
REMARK    3  A    between atoms: C_11  and  N_14
REMARK    4  A    between atoms: C_17  and  C_19
REMARK    5  A    between atoms: C_22  and  N_27
REMARK    6  A    between atoms: C_23  and  O_25
REMARK    7  A    between atoms: O_25  and  C_26
REMARK    8  A    between atoms: N_27  and  S_28
REMARK    9  A    between atoms: S_28  and  N_31
REMARK   10  A    between atoms: N_31  and  C_32
REMARK   11  A    between atoms: C_38  and  N_42
REMARK                            x       y       z     vdW  Elec       q    Type
REMARK                         _______ _______ _______ _____ _____    ______ ____
ROOT
ATOM      1  N   UNL     1      -2.109  -7.741   1.361  0.00  0.00    -0.243 N 
ATOM      2  C   UNL     1      -2.223  -8.494   2.491  0.00  0.00    +0.164 A 
ATOM      3  C   UNL     1      -1.973  -9.829   2.120  0.00  0.00    +0.086 A 
ATOM      4  C   UNL     1      -1.701  -9.815   0.683  0.00  0.00    +0.105 A 
ATOM      5  N   UNL     1      -1.797  -8.570   0.278  0.00  0.00    -0.168 NA
ATOM      6  C   UNL     1      -2.028 -10.822   3.110  0.00  0.00    +0.131 A 
ATOM      7  N   UNL     1      -2.315 -10.457   4.356  0.00  0.00    -0.220 NA
ATOM      8  C   UNL     1      -2.543  -9.191   4.660  0.00  0.00    +0.225 A 
ATOM      9  N   UNL     1      -2.502  -8.228   3.767  0.00  0.00    -0.216 NA
ENDROOT
BRANCH   1  13
ATOM     10  C   UNL     1      -2.339  -3.797  -0.251  0.00  0.00    +0.057 C 
ATOM     11  C   UNL     1      -3.627  -4.448   0.257  0.00  0.00    +0.021 C 
ATOM     12  C   UNL     1      -3.438  -5.965   0.331  0.00  0.00    +0.028 C 
ATOM     13  C   UNL     1      -2.290  -6.289   1.290  0.00  0.00    +0.110 C 
ATOM     14  C   UNL     1      -1.002  -5.638   0.783  0.00  0.00    +0.028 C 
ATOM     15  C   UNL     1      -1.192  -4.121   0.709  0.00  0.00    +0.021 C 
BRANCH  10  20
ATOM     16  C   UNL     1      -2.763   1.636  -1.680  0.00  0.00    -0.096 C 
ATOM     17  N   UNL     1      -2.569   0.180  -1.663  0.00  0.00    +0.379 N 
ATOM     18  C   UNL     1      -3.813  -0.474  -1.236  0.00  0.00    -0.064 C 
ATOM     19  C   UNL     1      -3.617  -1.992  -1.236  0.00  0.00    +0.066 C 
ATOM     20  N   UNL     1      -2.521  -2.341  -0.322  0.00  0.00    -0.303 NA
ATOM     21  C   UNL     1      -1.274  -1.673  -0.722  0.00  0.00    +0.066 C 
ATOM     22  C   UNL     1      -1.490  -0.158  -0.726  0.00  0.00    -0.064 C 
ATOM     23  H   UNL     1      -2.323  -0.137  -2.588  0.00  0.00    -0.082 HD
ENDBRANCH  10  20
ENDBRANCH   1  13
BRANCH   4  24
ATOM     24  C   UNL     1      -1.381 -10.990  -0.162  0.00  0.00    +0.006 A 
ATOM     25  C   UNL     1      -2.113 -12.168  -0.023  0.00  0.00    +0.012 A 
ATOM     26  C   UNL     1      -1.815 -13.263  -0.809  0.00  0.00    +0.029 A 
ATOM     27  C   UNL     1      -0.787 -13.193  -1.739  0.00  0.00    +0.091 A 
ATOM     28  C   UNL     1      -0.052 -12.016  -1.882  0.00  0.00    +0.143 A 
ATOM     29  C   UNL     1      -0.352 -10.916  -1.100  0.00  0.00    +0.057 A 
BRANCH  28  30
ATOM     30  O   UNL     1       0.955 -11.949  -2.793  0.00  0.00    -0.493 OA
ATOM     31  C   UNL     1       1.665 -10.712  -2.886  0.00  0.00    +0.277 C 
ENDBRANCH  28  30
BRANCH  27  32
ATOM     32  N   UNL     1      -0.487 -14.304  -2.534  0.00  0.00    -0.200 N 
ATOM     33  H   UNL     1      -0.188 -14.180  -3.448  0.00  0.00    +0.175 HD
BRANCH  32  34
ATOM     34  S   UNL     1      -0.641 -15.832  -1.913  0.00  0.00    +0.124 S 
ATOM     35  O   UNL     1      -0.255 -16.730  -2.944  0.00  0.00    -0.135 OA
ATOM     36  O   UNL     1      -0.011 -15.818  -0.639  0.00  0.00    -0.135 OA
BRANCH  34  37
ATOM     37  N   UNL     1      -2.254 -16.088  -1.641  0.00  0.00    -0.204 N 
ATOM     38  H   UNL     1      -2.580 -16.211  -0.735  0.00  0.00    +0.175 HD
BRANCH  37  39
ATOM     39  C   UNL     1      -3.146 -16.129  -2.715  0.00  0.00    +0.049 A 
ATOM     40  C   UNL     1      -3.066 -15.176  -3.723  0.00  0.00    +0.024 A 
ATOM     41  C   UNL     1      -3.949 -15.220  -4.783  0.00  0.00    +0.002 A 
ATOM     42  C   UNL     1      -4.913 -16.210  -4.843  0.00  0.00    +0.000 A 
ATOM     43  C   UNL     1      -4.995 -17.160  -3.841  0.00  0.00    +0.002 A 
ATOM     44  C   UNL     1      -4.112 -17.126  -2.781  0.00  0.00    +0.024 A 
ENDBRANCH  37  39
ENDBRANCH  34  37
ENDBRANCH  32  34
ENDBRANCH  27  32
ENDBRANCH   4  24
BRANCH   6  45
ATOM     45  N   UNL     1      -1.791 -12.147   2.798  0.00  0.00    -0.342 N 
ATOM     46  H   UNL     1      -1.420 -12.383   1.934  0.00  0.00    +0.144 HD
ATOM     47  H   UNL     1      -1.996 -12.842   3.444  0.00  0.00    +0.144 HD
ENDBRANCH   6  45
TORSDOF 9
