REMARK  Name = CHEMBL1088153
REMARK  10 active torsions:
REMARK  status: ('A' for Active; 'I' for Inactive)
REMARK    1  A    between atoms: C_1  and  C_2
REMARK    2  A    between atoms: C_5  and  N_25
REMARK    3  A    between atoms: C_7  and  N_8
REMARK    4  A    between atoms: C_20  and  N_24
REMARK    5  A    between atoms: C_26  and  C_28
REMARK    6  A    between atoms: C_30  and  C_34
REMARK    7  A    between atoms: N_32  and  C_33
REMARK    8  A    between atoms: C_34  and  C_35
REMARK    9  A    between atoms: C_34  and  C_36
REMARK   10  A    between atoms: C_34  and  C_37
REMARK                            x       y       z     vdW  Elec       q    Type
REMARK                         _______ _______ _______ _____ _____    ______ ____
ROOT
ATOM      1  C   UNL     1      -5.846  -0.099   3.038  0.00  0.00    +0.045 C 
ATOM      2  C   UNL     1      -5.467  -1.552   2.907  0.00  0.00    -0.029 A 
ATOM      3  C   UNL     1      -5.673  -2.213   1.711  0.00  0.00    +0.007 A 
ATOM      4  C   UNL     1      -5.328  -3.545   1.587  0.00  0.00    +0.024 A 
ATOM      5  C   UNL     1      -4.772  -4.224   2.665  0.00  0.00    +0.035 A 
ATOM      6  C   UNL     1      -4.564  -3.563   3.867  0.00  0.00    +0.047 A 
ATOM      7  C   UNL     1      -4.907  -2.223   3.987  0.00  0.00    +0.038 A 
ENDROOT
BRANCH   7   8
ATOM      8  N   UNL     1      -4.694  -1.551   5.194  0.00  0.00    -0.284 N 
ATOM      9  C   UNL     1      -3.851  -2.091   6.144  0.00  0.00    +0.207 A 
ATOM     10  N   UNL     1      -3.101  -3.150   5.971  0.00  0.00    -0.214 NA
ATOM     11  C   UNL     1      -2.398  -3.405   7.106  0.00  0.00    +0.091 A 
ATOM     12  C   UNL     1      -1.473  -4.390   7.460  0.00  0.00    +0.030 A 
ATOM     13  C   UNL     1      -0.917  -4.385   8.720  0.00  0.00    +0.002 A 
ATOM     14  C   UNL     1      -1.271  -3.411   9.641  0.00  0.00    +0.002 A 
ATOM     15  C   UNL     1      -2.184  -2.431   9.307  0.00  0.00    +0.028 A 
ATOM     16  C   UNL     1      -2.752  -2.420   8.043  0.00  0.00    +0.077 A 
ATOM     17  N   UNL     1      -3.669  -1.595   7.408  0.00  0.00    -0.264 N 
ATOM     18  C   UNL     1      -4.292  -0.474   7.955  0.00  0.00    +0.145 A 
ATOM     19  C   UNL     1      -4.201   0.760   7.323  0.00  0.00    +0.090 A 
ATOM     20  C   UNL     1      -4.840   1.850   7.909  0.00  0.00    +0.121 A 
ATOM     21  N   UNL     1      -5.510   1.670   9.046  0.00  0.00    -0.221 NA
ATOM     22  C   UNL     1      -5.572   0.483   9.613  0.00  0.00    +0.225 A 
ATOM     23  N   UNL     1      -4.985  -0.572   9.086  0.00  0.00    -0.218 NA
ATOM     24  H   UNL     1      -5.138  -0.706   5.364  0.00  0.00    +0.155 HD
BRANCH  20  25
ATOM     25  N   UNL     1      -4.780   3.102   7.319  0.00  0.00    -0.343 N 
ATOM     26  H   UNL     1      -4.290   3.225   6.491  0.00  0.00    +0.144 HD
ATOM     27  H   UNL     1      -5.228   3.856   7.734  0.00  0.00    +0.144 HD
ENDBRANCH  20  25
ENDBRANCH   7   8
BRANCH   5  28
ATOM     28  N   UNL     1      -4.423  -5.572   2.539  0.00  0.00    -0.280 N 
ATOM     29  C   UNL     1      -5.206  -6.407   1.827  0.00  0.00    +0.266 C 
ATOM     30  O   UNL     1      -6.142  -5.966   1.187  0.00  0.00    -0.268 OA
ATOM     31  H   UNL     1      -3.618  -5.907   2.963  0.00  0.00    +0.155 HD
BRANCH  29  32
ATOM     32  C   UNL     1      -4.929  -7.852   1.824  0.00  0.00    +0.124 A 
ATOM     33  C   UNL     1      -5.645  -8.834   1.160  0.00  0.00    +0.058 A 
ATOM     34  C   UNL     1      -4.997 -10.033   1.464  0.00  0.00    +0.069 A 
ATOM     35  N   UNL     1      -3.984  -9.755   2.245  0.00  0.00    -0.175 NA
ATOM     36  N   UNL     1      -3.912  -8.493   2.471  0.00  0.00    -0.262 N 
ATOM     37  C   UNL     1      -2.894  -7.841   3.299  0.00  0.00    +0.173 C 
BRANCH  34  38
ATOM     38  C   UNL     1      -5.393 -11.403   0.978  0.00  0.00    +0.006 C 
ATOM     39  C   UNL     1      -4.995 -11.559  -0.491  0.00  0.00    +0.017 C 
ATOM     40  C   UNL     1      -4.680 -12.467   1.815  0.00  0.00    +0.017 C 
ATOM     41  C   UNL     1      -6.907 -11.576   1.117  0.00  0.00    +0.017 C 
ENDBRANCH  34  38
ENDBRANCH  29  32
ENDBRANCH   5  28
TORSDOF 5
