REMARK  Name = CHEMBL60391
REMARK  9 active torsions:
REMARK  status: ('A' for Active; 'I' for Inactive)
REMARK    1  A    between atoms: C_1  and  N_2
REMARK    2  A    between atoms: N_5  and  C_8
REMARK    3  A    between atoms: C_8  and  C_9
REMARK    4  A    between atoms: C_11  and  C_14
REMARK    5  A    between atoms: C_22  and  C_35
REMARK    6  A    between atoms: C_23  and  N_24
REMARK    7  A    between atoms: N_24  and  C_25
REMARK    8  A    between atoms: C_27  and  O_33
REMARK    9  A    between atoms: O_33  and  C_34
REMARK                            x       y       z     vdW  Elec       q    Type
REMARK                         _______ _______ _______ _____ _____    ______ ____
ROOT
ATOM      1  C   UNL     1       3.302  -6.362   3.427  0.00  0.00    -0.009 A 
ATOM      2  C   UNL     1       4.369  -5.997   2.588  0.00  0.00    +0.010 A 
ATOM      3  C   UNL     1       5.649  -6.029   3.042  0.00  0.00    +0.012 A 
ATOM      4  C   UNL     1       5.917  -6.430   4.360  0.00  0.00    +0.023 A 
ATOM      5  C   UNL     1       4.852  -6.801   5.219  0.00  0.00    +0.073 A 
ATOM      6  C   UNL     1       3.538  -6.756   4.735  0.00  0.00    +0.037 A 
ATOM      7  N   UNL     1       5.103  -7.184   6.479  0.00  0.00    -0.254 NA
ATOM      8  C   UNL     1       6.319  -7.230   6.962  0.00  0.00    +0.132 A 
ATOM      9  C   UNL     1       7.433  -6.881   6.183  0.00  0.00    +0.091 A 
ATOM     10  C   UNL     1       7.241  -6.471   4.854  0.00  0.00    +0.060 A 
ENDROOT
BRANCH   1  13
ATOM     11  C   UNL     1       0.118  -6.003   1.415  0.00  0.00    -0.056 A 
ATOM     12  C   UNL     1       1.470  -5.964   1.667  0.00  0.00    +0.018 A 
ATOM     13  C   UNL     1       1.919  -6.320   2.913  0.00  0.00    +0.020 A 
ATOM     14  S   UNL     1       0.394  -6.720   3.751  0.00  0.00    -0.096 S 
ATOM     15  C   UNL     1      -0.730  -6.386   2.405  0.00  0.00    +0.047 A 
BRANCH  11  16
ATOM     16  C   UNL     1      -0.417  -5.620   0.059  0.00  0.00    -0.042 C 
BRANCH  16  21
ATOM     17  C   UNL     1      -0.650  -0.123  -1.157  0.00  0.00    +0.104 C 
ATOM     18  N   UNL     1      -0.399  -1.568  -1.087  0.00  0.00    -0.309 NA
ATOM     19  C   UNL     1      -1.645  -2.328  -1.264  0.00  0.00    +0.065 C 
ATOM     20  C   UNL     1      -1.332  -3.826  -1.245  0.00  0.00    -0.063 C 
ATOM     21  N   UNL     1      -0.700  -4.178   0.034  0.00  0.00    +0.384 N 
ATOM     22  C   UNL     1       0.555  -3.430   0.184  0.00  0.00    -0.063 C 
ATOM     23  C   UNL     1       0.258  -1.929   0.177  0.00  0.00    +0.065 C 
ATOM     24  H   UNL     1      -1.324  -3.945   0.792  0.00  0.00    -0.081 HD
ENDBRANCH  16  21
ENDBRANCH  11  16
ENDBRANCH   1  13
BRANCH  10  25
ATOM     25  N   UNL     1       8.310  -6.119   4.055  0.00  0.00    -0.312 N 
ATOM     26  H   UNL     1       8.172  -5.546   3.285  0.00  0.00    +0.152 HD
BRANCH  25  27
ATOM     27  C   UNL     1       9.592  -6.590   4.356  0.00  0.00    +0.053 A 
ATOM     28  C   UNL     1      10.578  -5.705   4.769  0.00  0.00    +0.071 A 
ATOM     29  C   UNL     1      11.848  -6.174   5.066  0.00  0.00    +0.140 A 
ATOM     30  C   UNL     1      12.131  -7.529   4.950  0.00  0.00    +0.084 A 
ATOM     31  C   UNL     1      11.148  -8.410   4.538  0.00  0.00    +0.045 A 
ATOM     32  C   UNL     1       9.879  -7.946   4.247  0.00  0.00    +0.064 A 
ATOM     33 CL   UNL     1       8.645  -9.056   3.738  0.00  0.00    -0.082 Cl
ATOM     34 CL   UNL     1      13.721  -8.117   5.323  0.00  0.00    -0.080 Cl
BRANCH  29  35
ATOM     35  O   UNL     1      12.815  -5.309   5.471  0.00  0.00    -0.494 OA
ATOM     36  C   UNL     1      12.425  -3.950   5.679  0.00  0.00    +0.277 C 
ENDBRANCH  29  35
ENDBRANCH  25  27
ENDBRANCH  10  25
BRANCH   9  37
ATOM     37  C   UNL     1       8.751  -6.941   6.738  0.00  0.00    +0.103 C 
ATOM     38  N   UNL     1       9.797  -6.990   7.178  0.00  0.00    -0.191 NA
ENDBRANCH   9  37
TORSDOF 7
