REMARK  Name = CHEMBL1088679
REMARK  10 active torsions:
REMARK  status: ('A' for Active; 'I' for Inactive)
REMARK    1  A    between atoms: C_1  and  O_2
REMARK    2  A    between atoms: O_2  and  C_3
REMARK    3  A    between atoms: C_8  and  C_9
REMARK    4  A    between atoms: C_10  and  C_11
REMARK    5  A    between atoms: C_11  and  N_12
REMARK    6  A    between atoms: C_20  and  C_33
REMARK    7  A    between atoms: C_21  and  N_22
REMARK    8  A    between atoms: N_22  and  C_23
REMARK    9  A    between atoms: C_25  and  O_31
REMARK   10  A    between atoms: O_31  and  C_32
REMARK                            x       y       z     vdW  Elec       q    Type
REMARK                         _______ _______ _______ _____ _____    ______ ____
ROOT
ATOM      1  C   UNL     1      -1.154  -0.427   0.798  0.00  0.00    +0.128 A 
ATOM      2  C   UNL     1      -2.316   0.246   0.553  0.00  0.00    +0.058 A 
ATOM      3  C   UNL     1      -3.525  -0.458   0.453  0.00  0.00    +0.026 A 
ATOM      4  C   UNL     1      -3.542  -1.866   0.607  0.00  0.00    +0.074 A 
ATOM      5  C   UNL     1      -2.340  -2.542   0.859  0.00  0.00    +0.040 A 
ATOM      6  C   UNL     1      -1.157  -1.827   0.947  0.00  0.00    +0.018 A 
ATOM      7  N   UNL     1      -4.697  -2.542   0.510  0.00  0.00    -0.254 NA
ATOM      8  C   UNL     1      -5.835  -1.942   0.275  0.00  0.00    +0.132 A 
ATOM      9  C   UNL     1      -5.912  -0.549   0.109  0.00  0.00    +0.091 A 
ATOM     10  C   UNL     1      -4.742   0.219   0.199  0.00  0.00    +0.060 A 
ENDROOT
BRANCH   1  12
ATOM     11  C   UNL     1      -0.051   1.678   0.733  0.00  0.00    +0.277 C 
ATOM     12  O   UNL     1       0.014   0.260   0.894  0.00  0.00    -0.495 OA
ENDBRANCH   1  12
BRANCH   6  13
ATOM     13  C   UNL     1       0.111  -2.539   1.206  0.00  0.00    +0.005 C 
ATOM     14  C   UNL     1       0.115  -3.858   1.347  0.00  0.00    -0.045 C 
BRANCH  14  15
ATOM     15  C   UNL     1       1.409  -4.584   1.611  0.00  0.00    -0.051 C 
BRANCH  15  16
ATOM     16  N   UNL     1       1.277  -5.392   2.830  0.00  0.00    +0.385 N 
ATOM     17  C   UNL     1       1.087  -4.506   3.987  0.00  0.00    -0.050 C 
ATOM     18  C   UNL     1       0.949  -5.350   5.257  0.00  0.00    +0.141 C 
ATOM     19  O   UNL     1       2.113  -6.168   5.407  0.00  0.00    -0.383 OA
ATOM     20  C   UNL     1       2.355  -7.033   4.294  0.00  0.00    +0.141 C 
ATOM     21  C   UNL     1       2.495  -6.192   3.023  0.00  0.00    -0.050 C 
ATOM     22  H   UNL     1       0.481  -6.006   2.743  0.00  0.00    -0.081 HD
ENDBRANCH  15  16
ENDBRANCH  14  15
ENDBRANCH   6  13
BRANCH  10  23
ATOM     23  N   UNL     1      -4.775   1.590   0.042  0.00  0.00    -0.312 N 
ATOM     24  H   UNL     1      -3.973   2.068  -0.219  0.00  0.00    +0.152 HD
BRANCH  23  25
ATOM     25  C   UNL     1      -5.966   2.290   0.260  0.00  0.00    +0.053 A 
ATOM     26  C   UNL     1      -6.612   2.909  -0.801  0.00  0.00    +0.071 A 
ATOM     27  C   UNL     1      -7.792   3.602  -0.581  0.00  0.00    +0.140 A 
ATOM     28  C   UNL     1      -8.326   3.675   0.699  0.00  0.00    +0.084 A 
ATOM     29  C   UNL     1      -7.681   3.058   1.755  0.00  0.00    +0.045 A 
ATOM     30  C   UNL     1      -6.507   2.361   1.539  0.00  0.00    +0.064 A 
ATOM     31 CL   UNL     1      -5.704   1.581   2.865  0.00  0.00    -0.082 Cl
ATOM     32 CL   UNL     1      -9.804   4.544   0.973  0.00  0.00    -0.080 Cl
BRANCH  27  33
ATOM     33  O   UNL     1      -8.427   4.210  -1.619  0.00  0.00    -0.494 OA
ATOM     34  C   UNL     1      -7.886   3.998  -2.924  0.00  0.00    +0.277 C 
ENDBRANCH  27  33
ENDBRANCH  23  25
ENDBRANCH  10  23
BRANCH   9  35
ATOM     35  C   UNL     1      -7.172   0.080  -0.149  0.00  0.00    +0.103 C 
ATOM     36  N   UNL     1      -8.172   0.579  -0.353  0.00  0.00    -0.191 NA
ENDBRANCH   9  35
TORSDOF 8
