REMARK  Name = CHEMBL193751
REMARK  9 active torsions:
REMARK  status: ('A' for Active; 'I' for Inactive)
REMARK    1  A    between atoms: C_1  and  N_2
REMARK    2  A    between atoms: N_5  and  C_8
REMARK    3  A    between atoms: C_8  and  C_9
REMARK    4  A    between atoms: C_10  and  C_11
REMARK    5  A    between atoms: C_16  and  N_22
REMARK    6  A    between atoms: C_17  and  C_20
REMARK    7  A    between atoms: N_22  and  C_23
REMARK    8  A    between atoms: C_25  and  O_31
REMARK    9  A    between atoms: O_31  and  C_32
REMARK                            x       y       z     vdW  Elec       q    Type
REMARK                         _______ _______ _______ _____ _____    ______ ____
ROOT
ATOM      1  C   UNL     1      -1.579  -5.732   8.915  0.00  0.00    +0.065 A 
ATOM      2  C   UNL     1      -0.518  -4.913   8.674  0.00  0.00    +0.053 A 
ATOM      3  C   UNL     1       0.720  -5.460   8.299  0.00  0.00    +0.081 A 
ATOM      4  C   UNL     1       0.754  -6.868   8.201  0.00  0.00    +0.061 A 
ATOM      5  S   UNL     1      -0.896  -7.356   8.633  0.00  0.00    -0.076 S 
ATOM      6  C   UNL     1       1.903  -7.551   7.843  0.00  0.00    +0.066 A 
ATOM      7  C   UNL     1       3.061  -6.792   7.572  0.00  0.00    +0.092 A 
ATOM      8  C   UNL     1       2.975  -5.397   7.682  0.00  0.00    +0.132 A 
ATOM      9  N   UNL     1       1.870  -4.795   8.024  0.00  0.00    -0.253 NA
ENDROOT
BRANCH   1  11
ATOM     10  C   UNL     1      -4.002  -5.087   9.624  0.00  0.00    -0.081 C 
ATOM     11  C   UNL     1      -2.910  -5.377   9.305  0.00  0.00    -0.058 C 
BRANCH  10  12
ATOM     12  C   UNL     1      -5.371  -4.722  10.024  0.00  0.00    +0.174 C 
BRANCH  12  17
ATOM     13  C   UNL     1      -6.730   0.752   9.730  0.00  0.00    +0.105 C 
ATOM     14  N   UNL     1      -6.625  -0.709   9.618  0.00  0.00    -0.303 NA
ATOM     15  C   UNL     1      -6.785  -1.351  10.930  0.00  0.00    +0.099 C 
ATOM     16  C   UNL     1      -6.748  -2.871  10.759  0.00  0.00    +0.100 C 
ATOM     17  N   UNL     1      -5.476  -3.261  10.136  0.00  0.00    -0.289 NA
ATOM     18  C   UNL     1      -5.316  -2.620   8.824  0.00  0.00    +0.100 C 
ATOM     19  C   UNL     1      -5.352  -1.099   8.995  0.00  0.00    +0.099 C 
ENDBRANCH  12  17
ENDBRANCH  10  12
ENDBRANCH   1  11
BRANCH   7  20
ATOM     20  C   UNL     1       4.288  -7.427   7.195  0.00  0.00    +0.103 C 
ATOM     21  N   UNL     1       5.261  -7.932   6.896  0.00  0.00    -0.191 NA
ENDBRANCH   7  20
BRANCH   6  22
ATOM     22  N   UNL     1       1.915  -8.935   7.754  0.00  0.00    -0.311 N 
ATOM     23  H   UNL     1       2.054  -9.471   8.550  0.00  0.00    +0.152 HD
BRANCH  22  24
ATOM     24  C   UNL     1       1.728  -9.557   6.516  0.00  0.00    +0.054 A 
ATOM     25  C   UNL     1       1.650  -8.794   5.359  0.00  0.00    +0.071 A 
ATOM     26  C   UNL     1       1.465  -9.414   4.133  0.00  0.00    +0.140 A 
ATOM     27  C   UNL     1       1.358 -10.797   4.065  0.00  0.00    +0.084 A 
ATOM     28  C   UNL     1       1.435 -11.556   5.218  0.00  0.00    +0.045 A 
ATOM     29  C   UNL     1       1.625 -10.941   6.441  0.00  0.00    +0.064 A 
ATOM     30 CL   UNL     1       1.730 -11.898   7.886  0.00  0.00    -0.082 Cl
ATOM     31 CL   UNL     1       1.126 -11.573   2.529  0.00  0.00    -0.080 Cl
BRANCH  26  32
ATOM     32  O   UNL     1       1.389  -8.669   2.999  0.00  0.00    -0.494 OA
ATOM     33  C   UNL     1       1.624  -7.265   3.128  0.00  0.00    +0.277 C 
ENDBRANCH  26  32
ENDBRANCH  22  24
ENDBRANCH   6  22
TORSDOF 7
