REMARK  Name = CHEMBL426161
REMARK  9 active torsions:
REMARK  status: ('A' for Active; 'I' for Inactive)
REMARK    1  A    between atoms: C_1  and  N_2
REMARK    2  A    between atoms: C_5  and  C_8
REMARK    3  A    between atoms: C_8  and  O_9
REMARK    4  A    between atoms: O_9  and  C_10
REMARK    5  A    between atoms: C_15  and  O_16
REMARK    6  A    between atoms: O_16  and  C_17
REMARK    7  A    between atoms: N_22  and  C_23
REMARK    8  A    between atoms: C_25  and  O_30
REMARK    9  A    between atoms: O_30  and  C_31
REMARK                            x       y       z     vdW  Elec       q    Type
REMARK                         _______ _______ _______ _____ _____    ______ ____
ROOT
ATOM      1  C   UNL     1       1.176  -6.015   1.865  0.00  0.00    +0.164 A 
ATOM      2  C   UNL     1       0.757  -6.785   0.802  0.00  0.00    +0.078 A 
ATOM      3  C   UNL     1       0.680  -8.176   0.947  0.00  0.00    +0.080 A 
ATOM      4  C   UNL     1       1.033  -8.769   2.184  0.00  0.00    +0.044 A 
ATOM      5  C   UNL     1       1.455  -7.963   3.248  0.00  0.00    +0.062 A 
ATOM      6  C   UNL     1       1.529  -6.609   3.084  0.00  0.00    +0.162 A 
ATOM      7  C   UNL     1       0.945 -10.177   2.299  0.00  0.00    +0.134 A 
ATOM      8  N   UNL     1       0.536 -10.868   1.244  0.00  0.00    -0.220 NA
ATOM      9  C   UNL     1       0.216 -10.271   0.107  0.00  0.00    +0.223 A 
ATOM     10  N   UNL     1       0.279  -8.971  -0.058  0.00  0.00    -0.235 NA
ATOM     11  N   UNL     1       1.276 -10.813   3.479  0.00  0.00    -0.298 N 
ATOM     12  H   UNL     1       1.480 -10.291   4.271  0.00  0.00    +0.154 HD
ENDROOT
BRANCH  11  13
ATOM     13  C   UNL     1       1.317 -12.210   3.532  0.00  0.00    +0.054 A 
ATOM     14  C   UNL     1       1.504 -12.944   2.369  0.00  0.00    +0.070 A 
ATOM     15  C   UNL     1       1.545 -14.328   2.425  0.00  0.00    +0.122 A 
ATOM     16  C   UNL     1       1.399 -14.977   3.643  0.00  0.00    +0.047 A 
ATOM     17  C   UNL     1       1.213 -14.246   4.801  0.00  0.00    +0.025 A 
ATOM     18  C   UNL     1       1.178 -12.865   4.750  0.00  0.00    +0.062 A 
ATOM     19 CL   UNL     1       0.951 -11.948   6.207  0.00  0.00    -0.082 Cl
BRANCH  15  20
ATOM     20  O   UNL     1       1.727 -15.050   1.288  0.00  0.00    -0.495 OA
ATOM     21  C   UNL     1       1.758 -16.472   1.420  0.00  0.00    +0.277 C 
ENDBRANCH  15  20
ENDBRANCH  11  13
BRANCH   6  22
ATOM     22  O   UNL     1       1.945  -5.828   4.117  0.00  0.00    -0.491 OA
ATOM     23  C   UNL     1       2.291  -6.492   5.334  0.00  0.00    +0.277 C 
ENDBRANCH   6  22
BRANCH   1  24
ATOM     24  O   UNL     1       1.252  -4.666   1.728  0.00  0.00    -0.488 OA
BRANCH  24  25
ATOM     25  C   UNL     1       0.878  -4.120   0.461  0.00  0.00    +0.232 C 
BRANCH  25  30
ATOM     26  C   UNL     1       2.389   1.247  -0.737  0.00  0.00    -0.096 C 
ATOM     27  N   UNL     1       2.170  -0.204  -0.668  0.00  0.00    +0.378 N 
ATOM     28  C   UNL     1       0.736  -0.488  -0.805  0.00  0.00    -0.079 C 
ATOM     29  C   UNL     1       0.511  -2.001  -0.815  0.00  0.00    -0.012 C 
ATOM     30  C   UNL     1       1.028  -2.598   0.497  0.00  0.00    +0.023 C 
ATOM     31  C   UNL     1       2.506  -2.233   0.665  0.00  0.00    -0.012 C 
ATOM     32  C   UNL     1       2.657  -0.711   0.620  0.00  0.00    -0.079 C 
ATOM     33  H   UNL     1       2.673  -0.655  -1.418  0.00  0.00    -0.082 HD
ENDBRANCH  25  30
ENDBRANCH  24  25
ENDBRANCH   1  24
TORSDOF 6
