REMARK  Name = CHEMBL104807
REMARK  9 active torsions:
REMARK  status: ('A' for Active; 'I' for Inactive)
REMARK    1  A    between atoms: C_1  and  C_2
REMARK    2  A    between atoms: C_5  and  C_8
REMARK    3  A    between atoms: N_15  and  C_17
REMARK    4  A    between atoms: C_21  and  C_23
REMARK    5  A    between atoms: N_25  and  C_26
REMARK    6  A    between atoms: C_26  and  C_27
REMARK    7  A    between atoms: C_30  and  P_37
REMARK    8  A    between atoms: C_31  and  P_33
REMARK    9  A    between atoms: P_33  and  O_36
REMARK                            x       y       z     vdW  Elec       q    Type
REMARK                         _______ _______ _______ _____ _____    ______ ____
ROOT
ATOM      1  C   UNL     1      -4.633   0.986   5.917  0.00  0.00    +0.064 C 
ATOM      2  C   UNL     1      -5.675   1.309   5.139  0.00  0.00    +0.001 C 
ATOM      3  C   UNL     1      -6.973   1.755   5.756  0.00  0.00    +0.034 C 
ATOM      4  C   UNL     1      -7.219   1.002   7.062  0.00  0.00    +0.044 C 
ATOM      5  C   UNL     1      -5.995   1.077   7.936  0.00  0.00    +0.017 C 
ATOM      6  C   UNL     1      -4.766   1.060   7.378  0.00  0.00    +0.036 C 
ENDROOT
BRANCH   1  14
ATOM      7  C   UNL     1      -1.950   0.052   3.765  0.00  0.00    +0.105 A 
ATOM      8  C   UNL     1      -1.327  -0.127   5.077  0.00  0.00    +0.086 A 
ATOM      9  C   UNL     1      -0.061  -0.537   5.527  0.00  0.00    +0.131 A 
ATOM     10  N   UNL     1       0.158  -0.583   6.838  0.00  0.00    -0.220 NA
ATOM     11  C   UNL     1      -0.787  -0.252   7.699  0.00  0.00    +0.225 A 
ATOM     12  N   UNL     1      -1.986   0.138   7.324  0.00  0.00    -0.216 NA
ATOM     13  C   UNL     1      -2.301   0.216   6.032  0.00  0.00    +0.169 A 
ATOM     14  N   UNL     1      -3.424   0.574   5.341  0.00  0.00    -0.214 N 
ATOM     15  N   UNL     1      -3.178   0.469   3.968  0.00  0.00    -0.164 NA
ATOM     16  N   UNL     1       0.931  -0.885   4.631  0.00  0.00    -0.342 N 
ATOM     17  H   UNL     1       0.770  -0.813   3.677  0.00  0.00    +0.144 HD
ATOM     18  H   UNL     1       1.789  -1.202   4.956  0.00  0.00    +0.144 HD
BRANCH   7  23
ATOM     19  C   UNL     1      -1.891   0.713  -0.713  0.00  0.00    +0.012 C 
ATOM     20  C   UNL     1      -0.654  -0.082  -0.290  0.00  0.00    +0.012 C 
ATOM     21  C   UNL     1      -1.092  -1.413   0.320  0.00  0.00    +0.035 C 
ATOM     22  C   UNL     1      -1.748  -1.175   1.654  0.00  0.00    -0.016 C 
ATOM     23  C   UNL     1      -1.310  -0.187   2.450  0.00  0.00    -0.001 C 
ATOM     24  C   UNL     1      -0.184   0.661   2.005  0.00  0.00    +0.006 C 
ATOM     25  C   UNL     1       0.131   0.714   0.718  0.00  0.00    -0.023 C 
ENDBRANCH   7  23
ENDBRANCH   1  14
BRANCH   5  26
ATOM     26  C   UNL     1      -6.137   1.161   9.390  0.00  0.00    +0.240 C 
ATOM     27  O   UNL     1      -5.148   1.221  10.096  0.00  0.00    -0.271 OA
ATOM     28  N   UNL     1      -7.365   1.172   9.947  0.00  0.00    -0.307 N 
ATOM     29  H   UNL     1      -8.153   1.124   9.384  0.00  0.00    +0.149 HD
BRANCH  28  30
ATOM     30  C   UNL     1      -7.508   1.256  11.402  0.00  0.00    +0.139 C 
BRANCH  30  31
ATOM     31  C   UNL     1      -8.971   1.252  11.764  0.00  0.00    -0.029 A 
ATOM     32  C   UNL     1      -9.665   2.444  11.854  0.00  0.00    +0.006 A 
ATOM     33  C   UNL     1     -11.006   2.440  12.185  0.00  0.00    +0.017 A 
ATOM     34  C   UNL     1     -11.655   1.243  12.428  0.00  0.00    +0.083 A 
ATOM     35  C   UNL     1     -10.961   0.051  12.338  0.00  0.00    +0.081 A 
ATOM     36  C   UNL     1      -9.620   0.055  12.002  0.00  0.00    +0.022 A 
BRANCH  34  37
ATOM     37  P   UNL     1     -13.415   1.237  12.865  0.00  0.00    +0.417 P 
ATOM     38  O   UNL     1     -14.277   1.138  11.560  0.00  0.00    -0.248 OA
ATOM     39  O   UNL     1     -13.720   0.008  13.787  0.00  0.00    -0.135 OA
ATOM     40  O   UNL     1     -13.769   2.561  13.625  0.00  0.00    -0.135 OA
ENDBRANCH  34  37
BRANCH  35  41
ATOM     41  P   UNL     1     -11.812  -1.519  12.657  0.00  0.00    +0.389 P 
ATOM     42  O   UNL     1     -11.703  -1.868  14.158  0.00  0.00    -0.251 OA
ATOM     43  O   UNL     1     -13.300  -1.388  12.265  0.00  0.00    -0.136 OA
BRANCH  41  44
ATOM     44  O   UNL     1     -11.128  -2.687  11.784  0.00  0.00    -0.319 OA
ATOM     45  H   UNL     1     -11.533  -3.557  11.905  0.00  0.00    +0.220 HD
ENDBRANCH  41  44
ENDBRANCH  35  41
ENDBRANCH  30  31
ENDBRANCH  28  30
ENDBRANCH   5  26
TORSDOF 8
