REMARK  Name = CHEMBL404666
REMARK  6 active torsions:
REMARK  status: ('A' for Active; 'I' for Inactive)
REMARK    1  A    between atoms: C_1  and  C_2
REMARK    2  A    between atoms: C_2  and  C_3
REMARK    3  A    between atoms: C_2  and  C_4
REMARK    4  A    between atoms: C_2  and  N_5
REMARK    5  A    between atoms: N_7  and  C_15
REMARK    6  A    between atoms: C_8  and  N_14
REMARK                            x       y       z     vdW  Elec       q    Type
REMARK                         _______ _______ _______ _____ _____    ______ ____
ROOT
ATOM      1  N   UNL     1       0.635  -0.566  -1.194  0.00  0.00    -0.294 N 
ATOM      2  C   UNL     1       0.660  -2.024  -1.440  0.00  0.00    +0.222 C 
ATOM      3  N   UNL     1       1.977  -2.411  -1.962  0.00  0.00    -0.272 N 
ATOM      4  C   UNL     1       2.530  -1.708  -3.006  0.00  0.00    +0.101 C 
ATOM      5  C   UNL     1       2.168  -0.353  -3.093  0.00  0.00    +0.070 C 
ATOM      6  C   UNL     1       1.220   0.225  -2.191  0.00  0.00    +0.129 C 
ATOM      7  N   UNL     1       1.100   1.474  -2.527  0.00  0.00    -0.263 N 
ATOM      8  N   UNL     1       1.850   1.753  -3.539  0.00  0.00    -0.180 NA
ATOM      9  C   UNL     1       2.537   0.693  -3.938  0.00  0.00    +0.147 C 
ATOM     10  H   UNL     1       0.524   2.112  -2.078  0.00  0.00    +0.190 HD
ENDROOT
BRANCH   3  11
ATOM     11  C   UNL     1       2.666  -3.491  -1.400  0.00  0.00    +0.037 A 
ATOM     12  C   UNL     1       3.859  -3.278  -0.722  0.00  0.00    +0.025 A 
ATOM     13  C   UNL     1       4.537  -4.345  -0.167  0.00  0.00    +0.022 A 
ATOM     14  C   UNL     1       4.028  -5.627  -0.286  0.00  0.00    +0.041 A 
ATOM     15  C   UNL     1       2.839  -5.842  -0.960  0.00  0.00    +0.022 A 
ATOM     16  C   UNL     1       2.155  -4.777  -1.513  0.00  0.00    +0.025 A 
ATOM     17 CL   UNL     1       4.883  -6.966   0.412  0.00  0.00    -0.084 Cl
ENDBRANCH   3  11
BRANCH   1  19
ATOM     18  C   UNL     1      -1.207   0.820  -0.379  0.00  0.00    +0.031 C 
ATOM     19  C   UNL     1       0.034   0.014   0.009  0.00  0.00    +0.029 C 
ATOM     20  C   UNL     1       1.047   0.934   0.693  0.00  0.00    +0.031 C 
ATOM     21  C   UNL     1      -0.366  -1.108   0.970  0.00  0.00    +0.031 C 
ENDBRANCH   1  19
BRANCH   4  22
ATOM     22  N   UNL     1       3.374  -2.288  -3.899  0.00  0.00    -0.346 N 
ATOM     23  H   UNL     1       3.660  -3.206  -3.770  0.00  0.00    +0.143 HD
ATOM     24  H   UNL     1       3.690  -1.784  -4.665  0.00  0.00    +0.143 HD
ENDBRANCH   4  22
TORSDOF 3
