REMARK  Name = CHEMBL104414
REMARK  6 active torsions:
REMARK  status: ('A' for Active; 'I' for Inactive)
REMARK    1  A    between atoms: C_1  and  N_2
REMARK    2  A    between atoms: C_5  and  N_21
REMARK    3  A    between atoms: C_10  and  C_13
REMARK    4  A    between atoms: N_21  and  C_22
REMARK    5  A    between atoms: C_25  and  N_28
REMARK    6  A    between atoms: N_31  and  C_34
REMARK                            x       y       z     vdW  Elec       q    Type
REMARK                         _______ _______ _______ _____ _____    ______ ____
ROOT
ATOM      1  C   UNL     1      -3.453  -4.999  -0.082  0.00  0.00    +0.152 C 
ATOM      2  N   UNL     1      -2.228  -4.198  -0.004  0.00  0.00    -0.311 N 
ATOM      3  C   UNL     1      -2.313  -2.826   0.039  0.00  0.00    +0.056 A 
ATOM      4  C   UNL     1      -3.544  -2.181   0.009  0.00  0.00    +0.070 A 
ATOM      5  C   UNL     1      -3.576  -0.794   0.054  0.00  0.00    +0.125 A 
ATOM      6  N   UNL     1      -2.457  -0.080   0.126  0.00  0.00    -0.239 NA
ATOM      7  C   UNL     1      -1.268  -0.641   0.157  0.00  0.00    +0.122 A 
ATOM      8  C   UNL     1      -1.144  -2.036   0.115  0.00  0.00    +0.018 A 
ATOM      9  C   UNL     1       0.127  -2.656   0.148  0.00  0.00    +0.025 A 
ATOM     10  C   UNL     1       0.202  -4.022   0.104  0.00  0.00    +0.050 A 
ATOM     11  C   UNL     1      -1.029  -4.812   0.032  0.00  0.00    +0.259 A 
ATOM     12  O   UNL     1      -0.969  -6.028  -0.001  0.00  0.00    -0.267 OA
ENDROOT
BRANCH  10  13
ATOM     13  C   UNL     1       1.520  -4.697   0.137  0.00  0.00    +0.024 A 
ATOM     14  C   UNL     1       2.197  -4.970  -1.053  0.00  0.00    +0.050 A 
ATOM     15  C   UNL     1       3.426  -5.600  -1.015  0.00  0.00    +0.021 A 
ATOM     16  C   UNL     1       3.985  -5.960   0.198  0.00  0.00    +0.003 A 
ATOM     17  C   UNL     1       3.319  -5.693   1.380  0.00  0.00    +0.021 A 
ATOM     18  C   UNL     1       2.093  -5.058   1.357  0.00  0.00    +0.050 A 
ATOM     19 CL   UNL     1       1.262  -4.717   2.843  0.00  0.00    -0.083 Cl
ATOM     20 CL   UNL     1       1.497  -4.520  -2.576  0.00  0.00    -0.083 Cl
ENDBRANCH  10  13
BRANCH   5  21
ATOM     21  N   UNL     1      -4.799  -0.141   0.024  0.00  0.00    -0.299 N 
ATOM     22  H   UNL     1      -5.619  -0.650  -0.076  0.00  0.00    +0.154 HD
BRANCH  21  23
ATOM     23  C   UNL     1      -4.851   1.254   0.139  0.00  0.00    +0.032 A 
ATOM     24  C   UNL     1      -5.896   1.856   0.827  0.00  0.00    +0.025 A 
ATOM     25  C   UNL     1      -5.947   3.231   0.940  0.00  0.00    +0.025 A 
ATOM     26  C   UNL     1      -4.953   4.012   0.366  0.00  0.00    +0.030 A 
ATOM     27  C   UNL     1      -3.908   3.410  -0.323  0.00  0.00    +0.025 A 
ATOM     28  C   UNL     1      -3.855   2.035  -0.432  0.00  0.00    +0.025 A 
BRANCH  26  29
ATOM     29  N   UNL     1      -5.005   5.406   0.480  0.00  0.00    -0.333 N 
ATOM     30  C   UNL     1      -4.046   6.260  -0.237  0.00  0.00    +0.086 C 
ATOM     31  C   UNL     1      -4.828   7.341  -0.992  0.00  0.00    -0.060 C 
ATOM     32  N   UNL     1      -5.696   8.061  -0.052  0.00  0.00    +0.380 N 
ATOM     33  C   UNL     1      -6.709   7.149   0.493  0.00  0.00    -0.060 C 
ATOM     34  C   UNL     1      -6.024   6.059   1.316  0.00  0.00    +0.086 C 
ATOM     35  C   UNL     1      -6.362   9.167  -0.753  0.00  0.00    -0.096 C 
ATOM     36  H   UNL     1      -5.138   8.432   0.702  0.00  0.00    -0.082 HD
ENDBRANCH  26  29
ENDBRANCH  21  23
ENDBRANCH   5  21
TORSDOF 4
