REMARK  Name = CHEMBL317687
REMARK  8 active torsions:
REMARK  status: ('A' for Active; 'I' for Inactive)
REMARK    1  A    between atoms: C_3  and  P_30
REMARK    2  A    between atoms: C_6  and  N_7
REMARK    3  A    between atoms: N_14  and  C_15
REMARK    4  A    between atoms: C_18  and  N_21
REMARK    5  A    between atoms: N_22  and  C_25
REMARK    6  A    between atoms: P_30  and  C_32
REMARK    7  A    between atoms: C_32  and  P_33
REMARK    8  A    between atoms: P_33  and  O_36
REMARK                            x       y       z     vdW  Elec       q    Type
REMARK                         _______ _______ _______ _____ _____    ______ ____
ROOT
ATOM      1  N   UNL     1      -1.198  -0.721   0.010  0.00  0.00    -0.298 N 
ATOM      2  C   UNL     1      -1.181  -2.101  -0.102  0.00  0.00    +0.156 A 
ATOM      3  C   UNL     1      -2.379  -2.828  -0.206  0.00  0.00    +0.148 A 
ATOM      4  C   UNL     1      -2.303  -4.226  -0.318  0.00  0.00    +0.167 A 
ATOM      5  N   UNL     1      -1.109  -4.811  -0.321  0.00  0.00    -0.195 NA
ATOM      6  C   UNL     1      -0.005  -4.089  -0.220  0.00  0.00    +0.219 A 
ATOM      7  N   UNL     1      -0.031  -2.766  -0.119  0.00  0.00    -0.197 NA
ATOM      8  N   UNL     1       1.220  -4.735  -0.227  0.00  0.00    -0.311 N 
ATOM      9  N   UNL     1      -3.598  -4.670  -0.402  0.00  0.00    -0.312 N 
ATOM     10  C   UNL     1      -4.411  -3.576  -0.343  0.00  0.00    +0.202 A 
ATOM     11  N   UNL     1      -3.694  -2.497  -0.229  0.00  0.00    -0.231 NA
ATOM     12  H   UNL     1      -2.036  -0.238  -0.067  0.00  0.00    +0.154 HD
ATOM     13  H   UNL     1       1.258  -5.701  -0.304  0.00  0.00    +0.149 HD
ENDROOT
BRANCH   1  19
ATOM     14  C   UNL     1       0.201   1.209  -0.373  0.00  0.00    +0.024 A 
ATOM     15  C   UNL     1       1.378   1.896  -0.149  0.00  0.00    +0.015 A 
ATOM     16  C   UNL     1       2.348   1.359   0.677  0.00  0.00    +0.040 A 
ATOM     17  C   UNL     1       2.143   0.132   1.282  0.00  0.00    +0.015 A 
ATOM     18  C   UNL     1       0.969  -0.560   1.063  0.00  0.00    +0.024 A 
ATOM     19  C   UNL     1      -0.008  -0.023   0.234  0.00  0.00    +0.032 A 
BRANCH  16  20
ATOM     20  P   UNL     1       3.893   2.265   0.968  0.00  0.00    +0.276 P 
ATOM     21  O   UNL     1       4.232   3.117  -0.275  0.00  0.00    -0.283 OA
ATOM     22  O   UNL     1       5.037   1.261   1.232  0.00  0.00    -0.164 OA
BRANCH  20  23
ATOM     23  C   UNL     1       3.694   3.354   2.416  0.00  0.00    +0.233 C 
BRANCH  23  24
ATOM     24  P   UNL     1       5.247   4.265   2.709  0.00  0.00    +0.367 P 
ATOM     25  O   UNL     1       6.391   3.261   2.973  0.00  0.00    -0.256 OA
ATOM     26  O   UNL     1       5.586   5.117   1.465  0.00  0.00    -0.140 OA
BRANCH  24  27
ATOM     27  O   UNL     1       5.072   5.227   3.987  0.00  0.00    -0.322 OA
ATOM     28  H   UNL     1       5.860   5.744   4.202  0.00  0.00    +0.220 HD
ENDBRANCH  24  27
ENDBRANCH  23  24
ENDBRANCH  20  23
ENDBRANCH  16  20
ENDBRANCH   1  19
BRANCH   8  29
ATOM     29  C   UNL     1       2.458  -3.960  -0.117  0.00  0.00    +0.073 C 
ATOM     30  C   UNL     1       2.876  -3.467  -1.504  0.00  0.00    +0.021 C 
ATOM     31  C   UNL     1       4.169  -2.657  -1.389  0.00  0.00    -0.014 C 
ATOM     32  C   UNL     1       5.274  -3.541  -0.807  0.00  0.00    -0.075 C 
ATOM     33  C   UNL     1       4.856  -4.034   0.580  0.00  0.00    -0.014 C 
ATOM     34  C   UNL     1       3.563  -4.844   0.465  0.00  0.00    +0.021 C 
BRANCH  32  35
ATOM     35  N   UNL     1       6.516  -2.763  -0.697  0.00  0.00    +0.380 N 
ATOM     36  H   UNL     1       6.364  -1.972  -0.090  0.00  0.00    -0.090 HD
ATOM     37  H   UNL     1       7.245  -3.346  -0.314  0.00  0.00    -0.090 HD
ATOM     38  H   UNL     1       6.791  -2.438  -1.612  0.00  0.00    -0.090 HD
ENDBRANCH  32  35
ENDBRANCH   8  29
BRANCH   9  39
ATOM     39  C   UNL     1      -4.029  -6.064  -0.533  0.00  0.00    +0.090 C 
ATOM     40  C   UNL     1      -4.980  -6.434   0.624  0.00  0.00    +0.025 C 
ATOM     41  C   UNL     1      -6.397  -6.224   0.034  0.00  0.00    +0.002 C 
ATOM     42  C   UNL     1      -6.237  -6.725  -1.423  0.00  0.00    +0.002 C 
ATOM     43  C   UNL     1      -4.828  -6.250  -1.835  0.00  0.00    +0.025 C 
ENDBRANCH   9  39
TORSDOF 8
