REMARK  Name = CHEMBL192679
REMARK  9 active torsions:
REMARK  status: ('A' for Active; 'I' for Inactive)
REMARK    1  A    between atoms: C_1  and  N_2
REMARK    2  A    between atoms: N_5  and  C_8
REMARK    3  A    between atoms: C_8  and  C_9
REMARK    4  A    between atoms: C_12  and  C_15
REMARK    5  A    between atoms: C_20  and  N_26
REMARK    6  A    between atoms: C_21  and  C_24
REMARK    7  A    between atoms: N_26  and  C_27
REMARK    8  A    between atoms: C_30  and  O_33
REMARK    9  A    between atoms: O_33  and  C_34
REMARK                            x       y       z     vdW  Elec       q    Type
REMARK                         _______ _______ _______ _____ _____    ______ ____
ROOT
ATOM      1  C   UNL     1       1.344  -8.959   9.542  0.00  0.00    +0.022 A 
ATOM      2  C   UNL     1       0.832  -7.763   9.937  0.00  0.00    +0.044 A 
ATOM      3  C   UNL     1       1.682  -6.658  10.114  0.00  0.00    +0.080 A 
ATOM      4  C   UNL     1       3.049  -6.901   9.856  0.00  0.00    +0.060 A 
ATOM      5  S   UNL     1       3.089  -8.614   9.397  0.00  0.00    -0.085 S 
ATOM      6  C   UNL     1       4.006  -5.911   9.987  0.00  0.00    +0.066 A 
ATOM      7  C   UNL     1       3.576  -4.629  10.392  0.00  0.00    +0.092 A 
ATOM      8  C   UNL     1       2.209  -4.441  10.636  0.00  0.00    +0.132 A 
ATOM      9  N   UNL     1       1.340  -5.404  10.500  0.00  0.00    -0.253 NA
ENDROOT
BRANCH   1  13
ATOM     10  C   UNL     1      -0.701 -12.617   8.847  0.00  0.00    -0.033 A 
ATOM     11  C   UNL     1       0.671 -12.551   8.677  0.00  0.00    +0.005 A 
ATOM     12  C   UNL     1       1.341 -11.366   8.901  0.00  0.00    +0.009 A 
ATOM     13  C   UNL     1       0.632 -10.232   9.300  0.00  0.00    -0.011 A 
ATOM     14  C   UNL     1      -0.751 -10.305   9.469  0.00  0.00    +0.009 A 
ATOM     15  C   UNL     1      -1.410 -11.495   9.237  0.00  0.00    +0.005 A 
BRANCH  10  16
ATOM     16  C   UNL     1      -1.426 -13.915   8.600  0.00  0.00    +0.119 C 
BRANCH  16  21
ATOM     17  C   UNL     1      -2.459 -15.253   3.225  0.00  0.00    -0.096 C 
ATOM     18  N   UNL     1      -2.024 -15.232   4.628  0.00  0.00    +0.379 N 
ATOM     19  C   UNL     1      -3.199 -15.120   5.503  0.00  0.00    -0.064 C 
ATOM     20  C   UNL     1      -2.748 -15.117   6.965  0.00  0.00    +0.066 C 
ATOM     21  N   UNL     1      -1.837 -13.986   7.192  0.00  0.00    -0.302 NA
ATOM     22  C   UNL     1      -0.668 -14.071   6.305  0.00  0.00    +0.066 C 
ATOM     23  C   UNL     1      -1.136 -14.082   4.848  0.00  0.00    -0.064 C 
ATOM     24  H   UNL     1      -1.528 -16.085   4.840  0.00  0.00    -0.082 HD
ENDBRANCH  16  21
ENDBRANCH  10  16
ENDBRANCH   1  13
BRANCH   7  25
ATOM     25  C   UNL     1       4.508  -3.554  10.550  0.00  0.00    +0.103 C 
ATOM     26  N   UNL     1       5.248  -2.701  10.676  0.00  0.00    -0.191 NA
ENDBRANCH   7  25
BRANCH   6  27
ATOM     27  N   UNL     1       5.344  -6.169   9.729  0.00  0.00    -0.313 N 
ATOM     28  H   UNL     1       5.915  -6.515  10.433  0.00  0.00    +0.152 HD
BRANCH  27  29
ATOM     29  C   UNL     1       5.870  -5.932   8.454  0.00  0.00    +0.032 A 
ATOM     30  C   UNL     1       5.084  -5.329   7.481  0.00  0.00    +0.027 A 
ATOM     31  C   UNL     1       5.604  -5.094   6.223  0.00  0.00    +0.048 A 
ATOM     32  C   UNL     1       6.909  -5.462   5.931  0.00  0.00    +0.129 A 
ATOM     33  C   UNL     1       7.695  -6.064   6.904  0.00  0.00    +0.048 A 
ATOM     34  C   UNL     1       7.179  -6.294   8.164  0.00  0.00    +0.027 A 
BRANCH  32  35
ATOM     35  O   UNL     1       7.420  -5.232   4.692  0.00  0.00    -0.456 OA
BRANCH  35  36
ATOM     36  C   UNL     1       8.719  -5.561   4.466  0.00  0.00    +0.128 A 
ATOM     37  C   UNL     1       9.070  -6.883   4.233  0.00  0.00    +0.046 A 
ATOM     38  C   UNL     1      10.391  -7.215   4.003  0.00  0.00    +0.004 A 
ATOM     39  C   UNL     1      11.363  -6.231   4.005  0.00  0.00    +0.000 A 
ATOM     40  C   UNL     1      11.015  -4.913   4.237  0.00  0.00    +0.004 A 
ATOM     41  C   UNL     1       9.695  -4.575   4.462  0.00  0.00    +0.046 A 
ENDBRANCH  35  36
ENDBRANCH  32  35
ENDBRANCH  27  29
ENDBRANCH   6  27
TORSDOF 8
