REMARK  Name = CHEMBL385533
REMARK  5 active torsions:
REMARK  status: ('A' for Active; 'I' for Inactive)
REMARK    1  A    between atoms: C_1  and  O_2
REMARK    2  A    between atoms: O_2  and  C_3
REMARK    3  A    between atoms: C_7  and  N_9
REMARK    4  A    between atoms: C_16  and  O_17
REMARK    5  A    between atoms: O_17  and  C_18
REMARK                            x       y       z     vdW  Elec       q    Type
REMARK                         _______ _______ _______ _____ _____    ______ ____
ROOT
ATOM      1  N   UNL     1      -2.485  -4.125   0.259  0.00  0.00    -0.298 N 
ATOM      2  C   UNL     1      -1.358  -4.843  -0.086  0.00  0.00    +0.137 A 
ATOM      3  C   UNL     1      -1.446  -6.212  -0.428  0.00  0.00    +0.082 A 
ATOM      4  C   UNL     1      -0.255  -6.895  -0.774  0.00  0.00    +0.080 A 
ATOM      5  C   UNL     1      -0.313  -8.251  -1.117  0.00  0.00    +0.029 A 
ATOM      6  C   UNL     1      -1.513  -8.901  -1.114  0.00  0.00    +0.006 A 
ATOM      7  C   UNL     1      -2.687  -8.240  -0.776  0.00  0.00    +0.046 A 
ATOM      8  C   UNL     1      -2.669  -6.903  -0.432  0.00  0.00    +0.133 A 
ATOM      9  N   UNL     1       0.903  -6.215  -0.763  0.00  0.00    -0.235 NA
ATOM     10  C   UNL     1       0.925  -4.945  -0.437  0.00  0.00    +0.223 A 
ATOM     11  N   UNL     1      -0.164  -4.266  -0.112  0.00  0.00    -0.220 NA
ATOM     12  H   UNL     1      -3.347  -4.567   0.301  0.00  0.00    +0.154 HD
ENDROOT
BRANCH   1  17
ATOM     13  C   UNL     1      -1.102  -0.894   1.348  0.00  0.00    +0.122 A 
ATOM     14  C   UNL     1      -2.187  -0.058   1.125  0.00  0.00    +0.047 A 
ATOM     15  C   UNL     1      -3.365  -0.571   0.616  0.00  0.00    +0.025 A 
ATOM     16  C   UNL     1      -3.466  -1.919   0.328  0.00  0.00    +0.062 A 
ATOM     17  C   UNL     1      -2.382  -2.761   0.550  0.00  0.00    +0.054 A 
ATOM     18  C   UNL     1      -1.197  -2.245   1.055  0.00  0.00    +0.070 A 
ATOM     19 CL   UNL     1      -4.947  -2.561  -0.311  0.00  0.00    -0.082 Cl
BRANCH  13  21
ATOM     20  C   UNL     1       0.083   1.014   2.127  0.00  0.00    +0.277 C 
ATOM     21  O   UNL     1       0.056  -0.387   1.849  0.00  0.00    -0.495 OA
ENDBRANCH  13  21
ENDBRANCH   1  17
BRANCH   8  22
ATOM     22  O   UNL     1      -3.820  -6.264  -0.102  0.00  0.00    -0.488 OA
BRANCH  22  23
ATOM     23  C   UNL     1      -5.000  -7.063  -0.002  0.00  0.00    +0.178 C 
ATOM     24  C   UNL     1      -5.627  -7.228  -1.390  0.00  0.00    +0.072 C 
ATOM     25  C   UNL     1      -6.932  -8.018  -1.261  0.00  0.00    +0.163 C 
ATOM     26  O   UNL     1      -7.812  -7.338  -0.364  0.00  0.00    -0.380 OA
ATOM     27  C   UNL     1      -7.298  -7.197   0.962  0.00  0.00    +0.163 C 
ATOM     28  C   UNL     1      -6.008  -6.374   0.923  0.00  0.00    +0.072 C 
ENDBRANCH  22  23
ENDBRANCH   8  22
TORSDOF 4
