REMARK  Name = CHEMBL102595
REMARK  9 active torsions:
REMARK  status: ('A' for Active; 'I' for Inactive)
REMARK    1  A    between atoms: C_1  and  N_2
REMARK    2  A    between atoms: N_5  and  C_8
REMARK    3  A    between atoms: C_8  and  C_9
REMARK    4  A    between atoms: C_13  and  C_15
REMARK    5  A    between atoms: C_23  and  C_36
REMARK    6  A    between atoms: C_24  and  N_25
REMARK    7  A    between atoms: N_25  and  C_26
REMARK    8  A    between atoms: C_28  and  O_34
REMARK    9  A    between atoms: O_34  and  C_35
REMARK                            x       y       z     vdW  Elec       q    Type
REMARK                         _______ _______ _______ _____ _____    ______ ____
ROOT
ATOM      1  C   UNL     1      -1.253  -4.773   5.905  0.00  0.00    -0.016 A 
ATOM      2  C   UNL     1      -2.650  -4.751   5.779  0.00  0.00    +0.009 A 
ATOM      3  C   UNL     1      -3.441  -5.292   6.744  0.00  0.00    +0.012 A 
ATOM      4  C   UNL     1      -2.862  -5.879   7.878  0.00  0.00    +0.023 A 
ATOM      5  C   UNL     1      -1.453  -5.909   8.019  0.00  0.00    +0.073 A 
ATOM      6  C   UNL     1      -0.654  -5.351   7.011  0.00  0.00    +0.037 A 
ATOM      7  N   UNL     1      -0.894  -6.470   9.101  0.00  0.00    -0.254 NA
ATOM      8  C   UNL     1      -1.612  -7.004  10.056  0.00  0.00    +0.132 A 
ATOM      9  C   UNL     1      -3.015  -7.019  10.000  0.00  0.00    +0.091 A 
ATOM     10  C   UNL     1      -3.665  -6.448   8.895  0.00  0.00    +0.060 A 
ENDROOT
BRANCH   1  15
ATOM     11  C   UNL     1      -0.213  -3.041   2.735  0.00  0.00    -0.063 A 
ATOM     12  C   UNL     1       1.165  -3.066   2.853  0.00  0.00    +0.002 A 
ATOM     13  C   UNL     1       1.759  -3.643   3.960  0.00  0.00    +0.001 A 
ATOM     14  C   UNL     1       0.980  -4.199   4.954  0.00  0.00    +0.008 A 
ATOM     15  C   UNL     1      -0.409  -4.177   4.840  0.00  0.00    -0.018 A 
ATOM     16  C   UNL     1      -1.003  -3.589   3.725  0.00  0.00    +0.010 A 
BRANCH  11  17
ATOM     17  C   UNL     1      -0.854  -2.409   1.526  0.00  0.00    -0.043 C 
BRANCH  17  22
ATOM     18  C   UNL     1      -1.010   3.220   1.342  0.00  0.00    +0.104 C 
ATOM     19  N   UNL     1      -0.803   1.782   1.128  0.00  0.00    -0.309 NA
ATOM     20  C   UNL     1      -2.084   1.088   0.936  0.00  0.00    +0.065 C 
ATOM     21  C   UNL     1      -1.821  -0.394   0.657  0.00  0.00    -0.063 C 
ATOM     22  N   UNL     1      -1.090  -0.983   1.786  0.00  0.00    +0.384 N 
ATOM     23  C   UNL     1       0.198  -0.295   1.950  0.00  0.00    -0.063 C 
ATOM     24  C   UNL     1      -0.048   1.187   2.240  0.00  0.00    +0.065 C 
ATOM     25  H   UNL     1      -1.635  -0.881   2.629  0.00  0.00    -0.081 HD
ENDBRANCH  17  22
ENDBRANCH  11  17
ENDBRANCH   1  15
BRANCH  10  26
ATOM     26  N   UNL     1      -5.041  -6.443   8.802  0.00  0.00    -0.312 N 
ATOM     27  H   UNL     1      -5.469  -6.358   7.935  0.00  0.00    +0.152 HD
BRANCH  26  28
ATOM     28  C   UNL     1      -5.821  -6.560   9.957  0.00  0.00    +0.053 A 
ATOM     29  C   UNL     1      -6.591  -7.696  10.163  0.00  0.00    +0.071 A 
ATOM     30  C   UNL     1      -7.362  -7.809  11.309  0.00  0.00    +0.140 A 
ATOM     31  C   UNL     1      -7.363  -6.787  12.249  0.00  0.00    +0.084 A 
ATOM     32  C   UNL     1      -6.595  -5.655  12.042  0.00  0.00    +0.045 A 
ATOM     33  C   UNL     1      -5.820  -5.542  10.903  0.00  0.00    +0.064 A 
ATOM     34 CL   UNL     1      -4.851  -4.123  10.651  0.00  0.00    -0.082 Cl
ATOM     35 CL   UNL     1      -8.329  -6.929  13.684  0.00  0.00    -0.080 Cl
BRANCH  30  36
ATOM     36  O   UNL     1      -8.118  -8.921  11.513  0.00  0.00    -0.494 OA
ATOM     37  C   UNL     1      -7.982  -9.981  10.565  0.00  0.00    +0.277 C 
ENDBRANCH  30  36
ENDBRANCH  26  28
ENDBRANCH  10  26
BRANCH   9  38
ATOM     38  C   UNL     1      -3.775  -7.610  11.060  0.00  0.00    +0.103 C 
ATOM     39  N   UNL     1      -4.378  -8.079  11.901  0.00  0.00    -0.191 NA
ENDBRANCH   9  38
TORSDOF 7
