REMARK  Name = CHEMBL221236
REMARK  10 active torsions:
REMARK  status: ('A' for Active; 'I' for Inactive)
REMARK    1  A    between atoms: C_1  and  C_2
REMARK    2  A    between atoms: C_2  and  O_3
REMARK    3  A    between atoms: O_3  and  C_4
REMARK    4  A    between atoms: N_6  and  C_36
REMARK    5  A    between atoms: N_9  and  C_10
REMARK    6  A    between atoms: C_13  and  N_16
REMARK    7  A    between atoms: C_20  and  C_35
REMARK    8  A    between atoms: C_22  and  C_27
REMARK    9  A    between atoms: C_28  and  C_34
REMARK   10  A    between atoms: C_32  and  C_33
REMARK                            x       y       z     vdW  Elec       q    Type
REMARK                         _______ _______ _______ _____ _____    ______ ____
ROOT
ATOM      1  N   UNL     1       0.219  -5.381  -4.153  0.00  0.00    -0.282 N 
ATOM      2  C   UNL     1       1.173  -5.849  -5.039  0.00  0.00    +0.240 A 
ATOM      3  N   UNL     1       0.784  -6.463  -6.143  0.00  0.00    -0.211 NA
ATOM      4  C   UNL     1       1.710  -6.913  -6.997  0.00  0.00    +0.097 A 
ATOM      5  C   UNL     1       1.357  -7.573  -8.186  0.00  0.00    -0.022 A 
ATOM      6  C   UNL     1       2.327  -8.015  -9.029  0.00  0.00    +0.014 A 
ATOM      7  C   UNL     1       3.685  -7.824  -8.729  0.00  0.00    -0.015 A 
ATOM      8  C   UNL     1       4.066  -7.179  -7.566  0.00  0.00    +0.040 A 
ATOM      9  C   UNL     1       3.081  -6.713  -6.683  0.00  0.00    +0.112 A 
ATOM     10  N   UNL     1       3.399  -6.083  -5.547  0.00  0.00    -0.144 NA
ATOM     11  N   UNL     1       2.466  -5.665  -4.762  0.00  0.00    -0.112 NA
ATOM     12  C   UNL     1      -0.095  -7.789  -8.526  0.00  0.00    +0.046 C 
ATOM     13  H   UNL     1      -0.719  -5.580  -4.301  0.00  0.00    +0.155 HD
ENDROOT
BRANCH   7  14
ATOM     14  C   UNL     1       4.722  -8.319  -9.667  0.00  0.00    -0.012 A 
ATOM     15  C   UNL     1       4.862  -9.686  -9.898  0.00  0.00    -0.042 A 
ATOM     16  C   UNL     1       5.827 -10.141 -10.773  0.00  0.00    +0.004 A 
ATOM     17  C   UNL     1       6.656  -9.242 -11.420  0.00  0.00    +0.001 A 
ATOM     18  C   UNL     1       6.522  -7.884 -11.195  0.00  0.00    +0.004 A 
ATOM     19  C   UNL     1       5.556  -7.418 -10.326  0.00  0.00    -0.042 A 
ATOM     20  C   UNL     1       5.407  -5.937 -10.087  0.00  0.00    +0.044 C 
ATOM     21  C   UNL     1       3.960 -10.666  -9.193  0.00  0.00    +0.044 C 
ENDBRANCH   7  14
BRANCH   1  25
ATOM     22  C   UNL     1       1.374  -3.114  -0.849  0.00  0.00    +0.032 A 
ATOM     23  C   UNL     1       2.065  -2.997  -2.048  0.00  0.00    +0.025 A 
ATOM     24  C   UNL     1       1.683  -3.747  -3.142  0.00  0.00    +0.025 A 
ATOM     25  C   UNL     1       0.607  -4.620  -3.043  0.00  0.00    +0.034 A 
ATOM     26  C   UNL     1      -0.084  -4.737  -1.845  0.00  0.00    +0.025 A 
ATOM     27  C   UNL     1       0.301  -3.991  -0.749  0.00  0.00    +0.025 A 
BRANCH  22  33
ATOM     28  C   UNL     1       0.975  -2.376   1.503  0.00  0.00    +0.220 C 
ATOM     29  C   UNL     1       1.921  -2.665   2.673  0.00  0.00    +0.135 C 
ATOM     30  N   UNL     1       3.028  -1.699   2.655  0.00  0.00    -0.300 NA
ATOM     31  C   UNL     1       3.834  -1.835   1.435  0.00  0.00    +0.103 C 
ATOM     32  C   UNL     1       2.966  -1.511   0.214  0.00  0.00    +0.123 C 
ATOM     33  N   UNL     1       1.762  -2.354   0.260  0.00  0.00    -0.302 N 
ATOM     34  C   UNL     1       3.863  -1.833   3.856  0.00  0.00    +0.105 C 
BRANCH  28  35
ATOM     35  O   UNL     1       0.348  -1.106   1.696  0.00  0.00    -0.358 OA
BRANCH  35  37
ATOM     36  C   UNL     1      -1.365   0.504   1.135  0.00  0.00    +0.034 C 
ATOM     37  C   UNL     1      -0.776  -0.877   0.843  0.00  0.00    +0.159 C 
ENDBRANCH  35  37
ENDBRANCH  28  35
ENDBRANCH  22  33
ENDBRANCH   1  25
TORSDOF 5
