REMARK  Name = CHEMBL564449
REMARK  6 active torsions:
REMARK  status: ('A' for Active; 'I' for Inactive)
REMARK    1  A    between atoms: C_1  and  C_2
REMARK    2  A    between atoms: C_4  and  N_8
REMARK    3  A    between atoms: C_17  and  S_19
REMARK    4  A    between atoms: S_19  and  C_20
REMARK    5  A    between atoms: C_23  and  N_26
REMARK    6  A    between atoms: C_27  and  C_29
REMARK                            x       y       z     vdW  Elec       q    Type
REMARK                         _______ _______ _______ _____ _____    ______ ____
ROOT
ATOM      1  N   UNL     1       0.009  -3.209   1.502  0.00  0.00    -0.284 N 
ATOM      2  C   UNL     1       0.027  -3.083   2.875  0.00  0.00    +0.136 A 
ATOM      3  C   UNL     1       0.056  -4.229   3.710  0.00  0.00    +0.041 A 
ATOM      4  C   UNL     1       0.068  -5.527   3.188  0.00  0.00    +0.013 A 
ATOM      5  C   UNL     1       0.096  -6.594   4.038  0.00  0.00    +0.001 A 
ATOM      6  C   UNL     1       0.113  -6.408   5.417  0.00  0.00    +0.002 A 
ATOM      7  C   UNL     1       0.102  -5.156   5.957  0.00  0.00    +0.028 A 
ATOM      8  C   UNL     1       0.073  -4.038   5.113  0.00  0.00    +0.077 A 
ATOM      9  N   UNL     1       0.062  -2.786   5.594  0.00  0.00    -0.221 NA
ATOM     10  C   UNL     1       0.035  -1.754   4.772  0.00  0.00    +0.195 A 
ATOM     11  N   UNL     1       0.023  -1.889   3.448  0.00  0.00    -0.206 NA
ATOM     12  H   UNL     1       0.012  -4.090   1.095  0.00  0.00    +0.155 HD
ENDROOT
BRANCH   1  16
ATOM     13  C   UNL     1      -0.059   1.555   0.021  0.00  0.00    +0.067 C 
ATOM     14  C   UNL     1      -0.044   0.048   0.005  0.00  0.00    +0.062 A 
ATOM     15  C   UNL     1      -0.020  -0.780   1.131  0.00  0.00    +0.068 A 
ATOM     16  C   UNL     1      -0.013  -2.071   0.698  0.00  0.00    +0.120 A 
ATOM     17  N   UNL     1      -0.033  -2.047  -0.659  0.00  0.00    -0.264 N 
ATOM     18  N   UNL     1      -0.057  -0.706  -1.064  0.00  0.00    -0.178 NA
ATOM     19  H   UNL     1      -0.033  -2.820  -1.245  0.00  0.00    +0.190 HD
ENDBRANCH   1  16
BRANCH  10  20
ATOM     20  S   UNL     1       0.021  -0.130   5.455  0.00  0.00    -0.050 S 
BRANCH  20  21
ATOM     21  C   UNL     1      -0.100  -0.400   7.192  0.00  0.00    +0.016 A 
ATOM     22  C   UNL     1       1.049  -0.420   7.974  0.00  0.00    +0.017 A 
ATOM     23  C   UNL     1       0.954  -0.631   9.335  0.00  0.00    +0.024 A 
ATOM     24  C   UNL     1      -0.289  -0.823   9.923  0.00  0.00    +0.033 A 
ATOM     25  C   UNL     1      -1.438  -0.803   9.142  0.00  0.00    +0.024 A 
ATOM     26  C   UNL     1      -1.344  -0.586   7.782  0.00  0.00    +0.017 A 
BRANCH  24  27
ATOM     27  N   UNL     1      -0.385  -1.037  11.304  0.00  0.00    -0.285 N 
ATOM     28  C   UNL     1      -1.325  -1.870  11.793  0.00  0.00    +0.220 C 
ATOM     29  O   UNL     1      -2.141  -2.369  11.047  0.00  0.00    -0.275 OA
ATOM     30  H   UNL     1       0.225  -0.586  11.908  0.00  0.00    +0.155 HD
BRANCH  28  31
ATOM     31  C   UNL     1      -1.362  -2.182  13.267  0.00  0.00    +0.075 C 
ATOM     32  C   UNL     1      -0.999  -3.604  13.698  0.00  0.00    +0.013 C 
ATOM     33  C   UNL     1      -2.454  -3.134  13.760  0.00  0.00    +0.013 C 
ENDBRANCH  28  31
ENDBRANCH  24  27
ENDBRANCH  20  21
ENDBRANCH  10  20
TORSDOF 5
