REMARK  Name = CHEMBL321569
REMARK  10 active torsions:
REMARK  status: ('A' for Active; 'I' for Inactive)
REMARK    1  A    between atoms: C_1  and  O_2
REMARK    2  A    between atoms: O_2  and  C_3
REMARK    3  A    between atoms: C_7  and  C_9
REMARK    4  A    between atoms: N_11  and  C_19
REMARK    5  A    between atoms: C_14  and  N_18
REMARK    6  A    between atoms: C_22  and  C_25
REMARK    7  A    between atoms: N_27  and  C_28
REMARK    8  A    between atoms: C_31  and  P_38
REMARK    9  A    between atoms: C_32  and  P_34
REMARK   10  A    between atoms: P_34  and  O_37
REMARK                            x       y       z     vdW  Elec       q    Type
REMARK                         _______ _______ _______ _____ _____    ______ ____
ROOT
ATOM      1  C   UNL     1       1.995  -7.366  -1.054  0.00  0.00    +0.048 A 
ATOM      2  C   UNL     1       1.103  -8.430  -0.965  0.00  0.00    +0.027 A 
ATOM      3  C   UNL     1       1.430  -9.545  -0.227  0.00  0.00    +0.015 A 
ATOM      4  C   UNL     1       2.660  -9.608   0.433  0.00  0.00    +0.037 A 
ATOM      5  C   UNL     1       3.554  -8.537   0.342  0.00  0.00    +0.015 A 
ATOM      6  C   UNL     1       3.223  -7.428  -0.402  0.00  0.00    +0.027 A 
ENDROOT
BRANCH   1   9
ATOM      7  C   UNL     1       1.352  -4.096  -2.336  0.00  0.00    +0.013 A 
ATOM      8  C   UNL     1       1.756  -4.944  -1.359  0.00  0.00    +0.102 A 
ATOM      9  N   UNL     1       1.661  -6.237  -1.804  0.00  0.00    -0.300 N 
ATOM     10  C   UNL     1       1.189  -6.261  -3.092  0.00  0.00    +0.151 A 
ATOM     11  C   UNL     1       0.968  -4.929  -3.483  0.00  0.00    +0.066 A 
ATOM     12  C   UNL     1       0.475  -4.678  -4.770  0.00  0.00    +0.129 A 
ATOM     13  N   UNL     1       0.234  -5.716  -5.568  0.00  0.00    -0.220 NA
ATOM     14  C   UNL     1       0.451  -6.952  -5.159  0.00  0.00    +0.225 A 
ATOM     15  N   UNL     1       0.921  -7.233  -3.962  0.00  0.00    -0.217 NA
BRANCH   7  20
ATOM     16  C   UNL     1       0.642  -0.610  -1.111  0.00  0.00    +0.121 A 
ATOM     17  C   UNL     1       1.211   0.151  -2.123  0.00  0.00    +0.045 A 
ATOM     18  C   UNL     1       1.822  -0.467  -3.199  0.00  0.00    +0.004 A 
ATOM     19  C   UNL     1       1.870  -1.844  -3.272  0.00  0.00    +0.009 A 
ATOM     20  C   UNL     1       1.302  -2.616  -2.260  0.00  0.00    -0.012 A 
ATOM     21  C   UNL     1       0.691  -1.993  -1.173  0.00  0.00    +0.054 A 
BRANCH  16  23
ATOM     22  C   UNL     1       0.029   1.430  -0.057  0.00  0.00    +0.277 C 
ATOM     23  O   UNL     1       0.042   0.001  -0.056  0.00  0.00    -0.495 OA
ENDBRANCH  16  23
ENDBRANCH   7  20
BRANCH  12  24
ATOM     24  N   UNL     1       0.245  -3.384  -5.202  0.00  0.00    -0.343 N 
ATOM     25  H   UNL     1       0.426  -2.637  -4.610  0.00  0.00    +0.144 HD
ATOM     26  H   UNL     1      -0.096  -3.224  -6.095  0.00  0.00    +0.144 HD
ENDBRANCH  12  24
ENDBRANCH   1   9
BRANCH   4  27
ATOM     27  C   UNL     1       3.014 -10.802   1.225  0.00  0.00    +0.248 C 
ATOM     28  O   UNL     1       2.235 -11.732   1.304  0.00  0.00    -0.270 OA
ATOM     29  N   UNL     1       4.201 -10.861   1.862  0.00  0.00    -0.281 N 
ATOM     30  H   UNL     1       4.850 -10.149   1.745  0.00  0.00    +0.155 HD
BRANCH  29  31
ATOM     31  C   UNL     1       4.497 -11.947   2.691  0.00  0.00    +0.035 A 
ATOM     32  C   UNL     1       5.247 -11.759   3.845  0.00  0.00    +0.024 A 
ATOM     33  C   UNL     1       5.537 -12.834   4.661  0.00  0.00    +0.019 A 
ATOM     34  C   UNL     1       5.081 -14.098   4.331  0.00  0.00    +0.083 A 
ATOM     35  C   UNL     1       4.334 -14.289   3.183  0.00  0.00    +0.082 A 
ATOM     36  C   UNL     1       4.036 -13.216   2.365  0.00  0.00    +0.040 A 
BRANCH  34  37
ATOM     37  P   UNL     1       5.465 -15.508   5.406  0.00  0.00    +0.417 P 
ATOM     38  O   UNL     1       4.336 -15.667   6.481  0.00  0.00    -0.248 OA
ATOM     39  O   UNL     1       5.553 -16.813   4.544  0.00  0.00    -0.135 OA
ATOM     40  O   UNL     1       6.836 -15.261   6.121  0.00  0.00    -0.135 OA
ENDBRANCH  34  37
BRANCH  35  41
ATOM     41  P   UNL     1       3.740 -15.948   2.754  0.00  0.00    +0.389 P 
ATOM     42  O   UNL     1       4.793 -16.662   1.878  0.00  0.00    -0.251 OA
ATOM     43  O   UNL     1       3.508 -16.762   4.047  0.00  0.00    -0.136 OA
BRANCH  41  44
ATOM     44  O   UNL     1       2.356 -15.829   1.940  0.00  0.00    -0.319 OA
ATOM     45  H   UNL     1       1.980 -16.680   1.678  0.00  0.00    +0.220 HD
ENDBRANCH  41  44
ENDBRANCH  35  41
ENDBRANCH  29  31
ENDBRANCH   4  27
TORSDOF 9
