REMARK  Name = CHEMBL372178
REMARK  9 active torsions:
REMARK  status: ('A' for Active; 'I' for Inactive)
REMARK    1  A    between atoms: C_1  and  N_2
REMARK    2  A    between atoms: N_5  and  C_8
REMARK    3  A    between atoms: C_8  and  C_9
REMARK    4  A    between atoms: C_11  and  C_14
REMARK    5  A    between atoms: C_19  and  N_25
REMARK    6  A    between atoms: C_20  and  C_23
REMARK    7  A    between atoms: N_25  and  C_26
REMARK    8  A    between atoms: C_28  and  O_34
REMARK    9  A    between atoms: O_34  and  C_35
REMARK                            x       y       z     vdW  Elec       q    Type
REMARK                         _______ _______ _______ _____ _____    ______ ____
ROOT
ATOM      1  C   UNL     1      -1.747  -2.863   9.735  0.00  0.00    +0.041 A 
ATOM      2  C   UNL     1      -1.021  -4.013   9.725  0.00  0.00    +0.046 A 
ATOM      3  C   UNL     1      -1.623  -5.222   9.339  0.00  0.00    +0.081 A 
ATOM      4  C   UNL     1      -2.986  -5.130   8.980  0.00  0.00    +0.061 A 
ATOM      5  S   UNL     1      -3.360  -3.409   9.199  0.00  0.00    -0.083 S 
ATOM      6  C   UNL     1      -3.715  -6.234   8.579  0.00  0.00    +0.066 A 
ATOM      7  C   UNL     1      -3.051  -7.479   8.534  0.00  0.00    +0.092 A 
ATOM      8  C   UNL     1      -1.699  -7.518   8.900  0.00  0.00    +0.132 A 
ATOM      9  N   UNL     1      -1.050  -6.449   9.273  0.00  0.00    -0.253 NA
ENDROOT
BRANCH   1  12
ATOM     10  C   UNL     1      -1.768   0.717  10.490  0.00  0.00    +0.093 A 
ATOM     11  N   UNL     1      -2.163  -0.485  10.163  0.00  0.00    -0.242 NA
ATOM     12  C   UNL     1      -1.311  -1.500  10.103  0.00  0.00    +0.085 A 
ATOM     13  C   UNL     1      -0.002  -1.216  10.402  0.00  0.00    +0.075 A 
ATOM     14  S   UNL     1      -0.115   0.532  10.745  0.00  0.00    -0.079 S 
BRANCH  10  15
ATOM     15  C   UNL     1      -2.595   1.971  10.606  0.00  0.00    +0.147 C 
BRANCH  15  20
ATOM     16  C   UNL     1      -4.065   3.572  15.819  0.00  0.00    +0.105 C 
ATOM     17  N   UNL     1      -3.559   3.444  14.446  0.00  0.00    -0.303 NA
ATOM     18  C   UNL     1      -4.659   3.222  13.498  0.00  0.00    +0.099 C 
ATOM     19  C   UNL     1      -4.100   3.173  12.074  0.00  0.00    +0.100 C 
ATOM     20  N   UNL     1      -3.102   2.099  11.979  0.00  0.00    -0.294 NA
ATOM     21  C   UNL     1      -2.001   2.321  12.927  0.00  0.00    +0.100 C 
ATOM     22  C   UNL     1      -2.560   2.370  14.351  0.00  0.00    +0.099 C 
ENDBRANCH  15  20
ENDBRANCH  10  15
ENDBRANCH   1  12
BRANCH   7  23
ATOM     23  C   UNL     1      -3.739  -8.668   8.129  0.00  0.00    +0.103 C 
ATOM     24  N   UNL     1      -4.285  -9.611   7.807  0.00  0.00    -0.191 NA
ENDBRANCH   7  23
BRANCH   6  25
ATOM     25  N   UNL     1      -5.053  -6.122   8.231  0.00  0.00    -0.311 N 
ATOM     26  H   UNL     1      -5.736  -6.139   8.920  0.00  0.00    +0.152 HD
BRANCH  25  27
ATOM     27  C   UNL     1      -5.417  -5.985   6.888  0.00  0.00    +0.054 A 
ATOM     28  C   UNL     1      -4.454  -6.081   5.893  0.00  0.00    +0.071 A 
ATOM     29  C   UNL     1      -4.819  -5.945   4.564  0.00  0.00    +0.140 A 
ATOM     30  C   UNL     1      -6.146  -5.712   4.228  0.00  0.00    +0.084 A 
ATOM     31  C   UNL     1      -7.105  -5.615   5.220  0.00  0.00    +0.045 A 
ATOM     32  C   UNL     1      -6.746  -5.757   6.548  0.00  0.00    +0.064 A 
ATOM     33 CL   UNL     1      -7.953  -5.643   7.790  0.00  0.00    -0.082 Cl
ATOM     34 CL   UNL     1      -6.602  -5.541   2.562  0.00  0.00    -0.080 Cl
BRANCH  29  35
ATOM     35  O   UNL     1      -3.877  -6.039   3.587  0.00  0.00    -0.494 OA
ATOM     36  C   UNL     1      -2.554  -6.396   3.994  0.00  0.00    +0.277 C 
ENDBRANCH  29  35
ENDBRANCH  25  27
ENDBRANCH   6  25
TORSDOF 7
