REMARK  Name = CHEMBL1085316
REMARK  9 active torsions:
REMARK  status: ('A' for Active; 'I' for Inactive)
REMARK    1  A    between atoms: C_1  and  N_2
REMARK    2  A    between atoms: N_5  and  C_8
REMARK    3  A    between atoms: C_12  and  C_14
REMARK    4  A    between atoms: C_21  and  C_24
REMARK    5  A    between atoms: C_22  and  N_23
REMARK    6  A    between atoms: C_27  and  N_30
REMARK    7  A    between atoms: C_31  and  C_33
REMARK    8  A    between atoms: C_33  and  C_34
REMARK    9  A    between atoms: C_34  and  C_35
REMARK                            x       y       z     vdW  Elec       q    Type
REMARK                         _______ _______ _______ _____ _____    ______ ____
ROOT
ATOM      1  C   UNL     1       0.261  -5.749   4.557  0.00  0.00    +0.046 A 
ATOM      2  C   UNL     1       1.632  -5.972   4.381  0.00  0.00    +0.145 A 
ATOM      3  N   UNL     1       2.150  -6.342   5.526  0.00  0.00    -0.171 NA
ATOM      4  N   UNL     1       1.145  -6.376   6.498  0.00  0.00    -0.200 N 
ATOM      5  C   UNL     1      -0.031  -6.003   5.903  0.00  0.00    +0.165 A 
ATOM      6  N   UNL     1      -1.169  -5.941   6.604  0.00  0.00    -0.235 NA
ATOM      7  C   UNL     1      -1.200  -6.231   7.885  0.00  0.00    +0.125 A 
ATOM      8  C   UNL     1      -0.025  -6.617   8.551  0.00  0.00    +0.040 A 
ATOM      9  C   UNL     1       1.163  -6.694   7.830  0.00  0.00    +0.129 A 
ENDROOT
BRANCH   1  14
ATOM     10  C   UNL     1      -1.312  -3.824   1.733  0.00  0.00    +0.030 A 
ATOM     11  C   UNL     1      -2.506  -4.517   1.569  0.00  0.00    +0.023 A 
ATOM     12  C   UNL     1      -2.795  -5.604   2.372  0.00  0.00    +0.002 A 
ATOM     13  C   UNL     1      -1.901  -6.007   3.343  0.00  0.00    +0.009 A 
ATOM     14  C   UNL     1      -0.700  -5.318   3.516  0.00  0.00    -0.011 A 
ATOM     15  C   UNL     1      -0.406  -4.225   2.702  0.00  0.00    +0.031 A 
BRANCH  10  20
ATOM     16  C   UNL     1      -1.289   1.339  -0.037  0.00  0.00    -0.096 C 
ATOM     17  N   UNL     1      -0.982  -0.098  -0.030  0.00  0.00    +0.380 N 
ATOM     18  C   UNL     1      -2.233  -0.864  -0.088  0.00  0.00    -0.060 C 
ATOM     19  C   UNL     1      -1.911  -2.358  -0.197  0.00  0.00    +0.086 C 
ATOM     20  N   UNL     1      -1.024  -2.727   0.918  0.00  0.00    -0.333 N 
ATOM     21  C   UNL     1       0.175  -1.906   1.150  0.00  0.00    +0.086 C 
ATOM     22  C   UNL     1      -0.246  -0.433   1.195  0.00  0.00    -0.060 C 
ATOM     23  H   UNL     1      -0.415  -0.323  -0.834  0.00  0.00    -0.082 HD
ENDBRANCH  10  20
ENDBRANCH   1  14
BRANCH   8  24
ATOM     24  C   UNL     1      -0.051  -6.947   9.996  0.00  0.00    -0.013 A 
ATOM     25  C   UNL     1       0.237  -8.243  10.422  0.00  0.00    +0.010 A 
ATOM     26  C   UNL     1       0.212  -8.546  11.767  0.00  0.00    +0.024 A 
ATOM     27  C   UNL     1      -0.100  -7.562  12.697  0.00  0.00    +0.033 A 
ATOM     28  C   UNL     1      -0.387  -6.270  12.275  0.00  0.00    +0.024 A 
ATOM     29  C   UNL     1      -0.358  -5.959  10.932  0.00  0.00    +0.010 A 
BRANCH  27  30
ATOM     30  N   UNL     1      -0.126  -7.873  14.062  0.00  0.00    -0.285 N 
ATOM     31  C   UNL     1       0.289  -6.966  14.968  0.00  0.00    +0.217 C 
ATOM     32  O   UNL     1       0.606  -5.851  14.608  0.00  0.00    -0.275 OA
ATOM     33  H   UNL     1      -0.442  -8.742  14.355  0.00  0.00    +0.155 HD
BRANCH  31  34
ATOM     34  C   UNL     1       0.358  -7.335  16.427  0.00  0.00    +0.096 C 
BRANCH  34  35
ATOM     35  C   UNL     1       0.856  -6.135  17.234  0.00  0.00    +0.013 C 
BRANCH  35  36
ATOM     36  C   UNL     1       0.926  -6.510  18.716  0.00  0.00    -0.011 C 
ATOM     37  C   UNL     1       2.078  -7.515  18.966  0.00  0.00    +0.003 C 
ATOM     38  C   UNL     1       2.392  -7.307  20.468  0.00  0.00    +0.000 C 
ATOM     39  C   UNL     1       2.237  -5.787  20.681  0.00  0.00    +0.000 C 
ATOM     40  C   UNL     1       1.305  -5.280  19.567  0.00  0.00    +0.003 C 
ENDBRANCH  35  36
ENDBRANCH  34  35
ENDBRANCH  31  34
ENDBRANCH  27  30
ENDBRANCH   8  24
BRANCH   9  41
ATOM     41  N   UNL     1       2.335  -7.065   8.446  0.00  0.00    -0.343 N 
ATOM     42  H   UNL     1       3.159  -7.104   7.937  0.00  0.00    +0.144 HD
ATOM     43  H   UNL     1       2.337  -7.288   9.390  0.00  0.00    +0.144 HD
ENDBRANCH   9  41
TORSDOF 8
