REMARK  Name = CHEMBL491686
REMARK  3 active torsions:
REMARK  status: ('A' for Active; 'I' for Inactive)
REMARK    1  A    between atoms: C_1  and  C_2
REMARK    2  A    between atoms: N_15  and  C_16
REMARK    3  A    between atoms: C_20  and  C_22
REMARK                            x       y       z     vdW  Elec       q    Type
REMARK                         _______ _______ _______ _____ _____    ______ ____
ROOT
ATOM      1  C   UNL     1      -0.403  -8.319  -1.131  0.00  0.00    +0.065 C 
ATOM      2  C   UNL     1      -0.077  -6.892  -0.774  0.00  0.00    +0.035 A 
ATOM      3  C   UNL     1       0.080  -5.869  -1.645  0.00  0.00    +0.068 A 
ATOM      4  C   UNL     1       0.374  -4.713  -0.903  0.00  0.00    +0.146 A 
ATOM      5  N   UNL     1       0.390  -5.039   0.368  0.00  0.00    -0.158 NA
ATOM      6  N   UNL     1       0.103  -6.406   0.472  0.00  0.00    -0.280 N 
ATOM      7  H   UNL     1       0.047  -6.915   1.296  0.00  0.00    +0.189 HD
ATOM      8  N   UNL     1       0.608  -3.436  -1.428  0.00  0.00    -0.283 N 
ATOM      9  C   UNL     1       0.684  -3.255  -2.800  0.00  0.00    +0.129 A 
ATOM     10  C   UNL     1       1.025  -2.009  -3.333  0.00  0.00    +0.061 A 
ATOM     11  C   UNL     1       1.089  -1.874  -4.705  0.00  0.00    +0.089 A 
ATOM     12  N   UNL     1       0.826  -2.922  -5.473  0.00  0.00    -0.334 N 
ATOM     13  C   UNL     1       0.504  -4.092  -4.941  0.00  0.00    +0.199 A 
ATOM     14  N   UNL     1       0.438  -4.264  -3.629  0.00  0.00    -0.201 NA
ATOM     15  N   UNL     1       0.236  -5.163  -5.777  0.00  0.00    -0.285 N 
ATOM     16  H   UNL     1       0.718  -2.679  -0.832  0.00  0.00    +0.155 HD
ATOM     17  H   UNL     1      -0.090  -5.998  -5.407  0.00  0.00    +0.155 HD
ATOM     18  H   UNL     1       0.869  -2.831  -6.437  0.00  0.00    +0.168 HD
ENDROOT
BRANCH  15  19
ATOM     19  C   UNL     1       0.436  -5.041  -7.156  0.00  0.00    +0.034 A 
ATOM     20  C   UNL     1       1.567  -4.392  -7.639  0.00  0.00    +0.023 A 
ATOM     21  C   UNL     1       1.769  -4.269  -9.001  0.00  0.00    +0.002 A 
ATOM     22  C   UNL     1       0.850  -4.790  -9.889  0.00  0.00    +0.010 A 
ATOM     23  C   UNL     1      -0.288  -5.443  -9.414  0.00  0.00    +0.009 A 
ATOM     24  C   UNL     1      -0.489  -5.572  -8.040  0.00  0.00    +0.034 A 
BRANCH  23  25
ATOM     25  C   UNL     1      -1.274  -6.001 -10.364  0.00  0.00    +0.109 A 
ATOM     26  N   UNL     1      -2.396  -6.637 -10.110  0.00  0.00    -0.239 NA
ATOM     27  C   UNL     1      -3.206  -7.095 -11.084  0.00  0.00    +0.079 A 
ATOM     28  C   UNL     1      -4.432  -7.791 -10.947  0.00  0.00    +0.029 A 
ATOM     29  C   UNL     1      -5.133  -8.188 -12.041  0.00  0.00    +0.002 A 
ATOM     30  C   UNL     1      -4.683  -7.931 -13.329  0.00  0.00    +0.001 A 
ATOM     31  C   UNL     1      -3.491  -7.254 -13.507  0.00  0.00    +0.017 A 
ATOM     32  C   UNL     1      -2.774  -6.849 -12.408  0.00  0.00    +0.040 A 
ATOM     33  S   UNL     1      -1.248  -5.976 -12.152  0.00  0.00    -0.067 S 
ENDBRANCH  23  25
ENDBRANCH  15  19
TORSDOF 2
