REMARK  Name = CHEMBL171423
REMARK  8 active torsions:
REMARK  status: ('A' for Active; 'I' for Inactive)
REMARK    1  A    between atoms: C_1  and  O_2
REMARK    2  A    between atoms: O_2  and  C_3
REMARK    3  A    between atoms: C_8  and  O_9
REMARK    4  A    between atoms: O_9  and  C_10
REMARK    5  A    between atoms: C_10  and  C_11
REMARK    6  A    between atoms: C_11  and  C_12
REMARK    7  A    between atoms: C_12  and  N_13
REMARK    8  A    between atoms: N_23  and  C_24
REMARK                            x       y       z     vdW  Elec       q    Type
REMARK                         _______ _______ _______ _____ _____    ______ ____
ROOT
ATOM      1  C   UNL     1      -1.213  -0.536   0.759  0.00  0.00    +0.162 A 
ATOM      2  C   UNL     1      -2.360   0.166   0.520  0.00  0.00    +0.062 A 
ATOM      3  C   UNL     1      -3.599  -0.480   0.606  0.00  0.00    +0.044 A 
ATOM      4  C   UNL     1      -3.656  -1.856   0.940  0.00  0.00    +0.080 A 
ATOM      5  C   UNL     1      -2.468  -2.556   1.181  0.00  0.00    +0.078 A 
ATOM      6  C   UNL     1      -1.262  -1.899   1.084  0.00  0.00    +0.164 A 
ATOM      7  N   UNL     1      -4.857  -2.451   1.016  0.00  0.00    -0.235 NA
ATOM      8  C   UNL     1      -5.953  -1.769   0.784  0.00  0.00    +0.223 A 
ATOM      9  N   UNL     1      -5.948  -0.484   0.470  0.00  0.00    -0.220 NA
ATOM     10  C   UNL     1      -4.816   0.201   0.368  0.00  0.00    +0.134 A 
ATOM     11  N   UNL     1      -4.826   1.541   0.039  0.00  0.00    -0.296 N 
ATOM     12  H   UNL     1      -3.991   2.006  -0.125  0.00  0.00    +0.154 HD
ENDROOT
BRANCH  11  13
ATOM     13  C   UNL     1      -6.042   2.229  -0.057  0.00  0.00    +0.078 A 
ATOM     14  C   UNL     1      -7.183   1.712   0.541  0.00  0.00    +0.027 A 
ATOM     15  C   UNL     1      -8.382   2.391   0.446  0.00  0.00    +0.006 A 
ATOM     16  C   UNL     1      -8.451   3.585  -0.246  0.00  0.00    +0.049 A 
ATOM     17  C   UNL     1      -7.316   4.110  -0.849  0.00  0.00    +0.164 A 
ATOM     18  C   UNL     1      -6.106   3.437  -0.749  0.00  0.00    +0.183 A 
ATOM     19  O   UNL     1      -4.978   3.940  -1.321  0.00  0.00    -0.483 OA
ATOM     20  C   UNL     1      -5.158   4.954  -2.315  0.00  0.00    +0.270 C 
ATOM     21  C   UNL     1      -6.171   5.976  -1.782  0.00  0.00    +0.270 C 
ATOM     22  O   UNL     1      -7.404   5.285  -1.530  0.00  0.00    -0.485 OA
ENDBRANCH  11  13
BRANCH   1  24
ATOM     23  C   UNL     1      -0.026   1.481   0.340  0.00  0.00    +0.277 C 
ATOM     24  O   UNL     1      -0.010   0.092   0.675  0.00  0.00    -0.491 OA
ENDBRANCH   1  24
BRANCH   6  25
ATOM     25  O   UNL     1      -0.107  -2.577   1.312  0.00  0.00    -0.488 OA
BRANCH  25  26
ATOM     26  C   UNL     1      -0.222  -3.963   1.639  0.00  0.00    +0.230 C 
BRANCH  26  27
ATOM     27  C   UNL     1       1.172  -4.553   1.859  0.00  0.00    +0.056 C 
BRANCH  27  28
ATOM     28  C   UNL     1       1.049  -6.037   2.210  0.00  0.00    +0.088 C 
BRANCH  28  29
ATOM     29  N   UNL     1       2.388  -6.604   2.421  0.00  0.00    -0.298 NA
ATOM     30  C   UNL     1       3.160  -6.610   1.170  0.00  0.00    +0.112 C 
ATOM     31  C   UNL     1       4.565  -7.151   1.448  0.00  0.00    +0.175 C 
ATOM     32  O   UNL     1       4.463  -8.455   2.027  0.00  0.00    -0.377 OA
ATOM     33  C   UNL     1       3.717  -8.486   3.247  0.00  0.00    +0.175 C 
ATOM     34  C   UNL     1       2.303  -7.958   2.988  0.00  0.00    +0.112 C 
ENDBRANCH  28  29
ENDBRANCH  27  28
ENDBRANCH  26  27
ENDBRANCH  25  26
ENDBRANCH   6  25
TORSDOF 7
