REMARK  Name = CHEMBL1085512
REMARK  8 active torsions:
REMARK  status: ('A' for Active; 'I' for Inactive)
REMARK    1  A    between atoms: C_1  and  N_2
REMARK    2  A    between atoms: N_5  and  C_8
REMARK    3  A    between atoms: C_11  and  C_14
REMARK    4  A    between atoms: C_21  and  C_24
REMARK    5  A    between atoms: C_22  and  N_23
REMARK    6  A    between atoms: C_27  and  N_30
REMARK    7  A    between atoms: C_31  and  O_33
REMARK    8  A    between atoms: O_33  and  C_34
REMARK                            x       y       z     vdW  Elec       q    Type
REMARK                         _______ _______ _______ _____ _____    ______ ____
ROOT
ATOM      1  C   UNL     1      -2.294  -6.700   4.331  0.00  0.00    +0.046 A 
ATOM      2  C   UNL     1      -3.476  -6.688   5.080  0.00  0.00    +0.145 A 
ATOM      3  N   UNL     1      -3.580  -7.824   5.725  0.00  0.00    -0.171 NA
ATOM      4  N   UNL     1      -2.474  -8.626   5.426  0.00  0.00    -0.200 N 
ATOM      5  C   UNL     1      -1.673  -7.935   4.555  0.00  0.00    +0.165 A 
ATOM      6  N   UNL     1      -0.537  -8.468   4.092  0.00  0.00    -0.235 NA
ATOM      7  C   UNL     1      -0.150  -9.671   4.450  0.00  0.00    +0.125 A 
ATOM      8  C   UNL     1      -0.931 -10.430   5.339  0.00  0.00    +0.040 A 
ATOM      9  C   UNL     1      -2.111  -9.882   5.834  0.00  0.00    +0.129 A 
ENDROOT
BRANCH   1  13
ATOM     10  C   UNL     1      -0.862  -3.575   1.827  0.00  0.00    +0.030 A 
ATOM     11  C   UNL     1      -2.174  -4.016   1.703  0.00  0.00    +0.024 A 
ATOM     12  C   UNL     1      -2.640  -5.029   2.514  0.00  0.00    +0.010 A 
ATOM     13  C   UNL     1      -1.795  -5.611   3.458  0.00  0.00    -0.013 A 
ATOM     14  C   UNL     1      -0.478  -5.166   3.580  0.00  0.00    +0.010 A 
ATOM     15  C   UNL     1      -0.015  -4.156   2.763  0.00  0.00    +0.024 A 
BRANCH  10  20
ATOM     16  C   UNL     1       0.127   1.500   0.074  0.00  0.00    -0.096 C 
ATOM     17  N   UNL     1       0.140   0.031   0.064  0.00  0.00    +0.380 N 
ATOM     18  C   UNL     1      -1.241  -0.469   0.054  0.00  0.00    -0.060 C 
ATOM     19  C   UNL     1      -1.229  -1.996  -0.072  0.00  0.00    +0.086 C 
ATOM     20  N   UNL     1      -0.391  -2.547   1.004  0.00  0.00    -0.333 N 
ATOM     21  C   UNL     1       0.956  -1.986   1.190  0.00  0.00    +0.086 C 
ATOM     22  C   UNL     1       0.841  -0.459   1.257  0.00  0.00    -0.060 C 
ATOM     23  H   UNL     1       0.618  -0.294  -0.763  0.00  0.00    -0.082 HD
ENDBRANCH  10  20
ENDBRANCH   1  13
BRANCH   8  24
ATOM     24  C   UNL     1      -0.502 -11.789   5.748  0.00  0.00    -0.013 A 
ATOM     25  C   UNL     1      -0.176 -12.046   7.079  0.00  0.00    +0.010 A 
ATOM     26  C   UNL     1       0.223 -13.311   7.458  0.00  0.00    +0.024 A 
ATOM     27  C   UNL     1       0.300 -14.328   6.514  0.00  0.00    +0.036 A 
ATOM     28  C   UNL     1      -0.025 -14.074   5.187  0.00  0.00    +0.024 A 
ATOM     29  C   UNL     1      -0.430 -12.812   4.804  0.00  0.00    +0.010 A 
BRANCH  27  30
ATOM     30  N   UNL     1       0.706 -15.611   6.901  0.00  0.00    -0.251 N 
ATOM     31  C   UNL     1       0.368 -16.087   8.115  0.00  0.00    +0.410 C 
ATOM     32  O   UNL     1      -0.372 -15.445   8.835  0.00  0.00    -0.226 OA
ATOM     33  H   UNL     1       1.230 -16.157   6.294  0.00  0.00    +0.158 HD
BRANCH  31  34
ATOM     34  O   UNL     1       0.849 -17.274   8.531  0.00  0.00    -0.411 OA
BRANCH  34  35
ATOM     35  C   UNL     1       0.567 -17.668   9.801  0.00  0.00    +0.133 A 
ATOM     36  C   UNL     1       1.544 -17.600  10.783  0.00  0.00    +0.046 A 
ATOM     37  C   UNL     1       1.255 -18.000  12.073  0.00  0.00    +0.004 A 
ATOM     38  C   UNL     1      -0.008 -18.468  12.386  0.00  0.00    +0.000 A 
ATOM     39  C   UNL     1      -0.984 -18.537  11.409  0.00  0.00    +0.004 A 
ATOM     40  C   UNL     1      -0.701 -18.133  10.119  0.00  0.00    +0.046 A 
ENDBRANCH  34  35
ENDBRANCH  31  34
ENDBRANCH  27  30
ENDBRANCH   8  24
BRANCH   9  41
ATOM     41  N   UNL     1      -2.904 -10.594   6.703  0.00  0.00    -0.343 N 
ATOM     42  H   UNL     1      -3.730 -10.208   7.033  0.00  0.00    +0.144 HD
ATOM     43  H   UNL     1      -2.638 -11.483   6.985  0.00  0.00    +0.144 HD
ENDBRANCH   9  41
TORSDOF 7
