REMARK  Name = CHEMBL281775
REMARK  11 active torsions:
REMARK  status: ('A' for Active; 'I' for Inactive)
REMARK    1  A    between atoms: C_1  and  C_2
REMARK    2  A    between atoms: N_4  and  C_5
REMARK    3  A    between atoms: C_5  and  C_7
REMARK    4  A    between atoms: C_5  and  C_19
REMARK    5  A    between atoms: C_7  and  C_8
REMARK    6  A    between atoms: C_11  and  O_14
REMARK    7  A    between atoms: O_14  and  P_15
REMARK    8  A    between atoms: N_21  and  C_22
REMARK    9  A    between atoms: N_28  and  C_31
REMARK   10  A    between atoms: C_31  and  C_32
REMARK   11  A    between atoms: C_35  and  C_38
REMARK                            x       y       z     vdW  Elec       q    Type
REMARK                         _______ _______ _______ _____ _____    ______ ____
ROOT
ATOM      1  C   UNL     1      -0.407  -2.658   1.222  0.00  0.00    +0.234 C 
ATOM      2  O   UNL     1       0.350  -1.922   1.819  0.00  0.00    -0.274 OA
ATOM      3  N   UNL     1      -0.597  -3.922   1.651  0.00  0.00    -0.302 N 
ATOM      4  H   UNL     1      -1.202  -4.510   1.173  0.00  0.00    +0.150 HD
ENDROOT
BRANCH   3   5
ATOM      5  C   UNL     1       0.112  -4.407   2.837  0.00  0.00    +0.159 C 
ATOM      6  C   UNL     1      -0.672  -5.560   3.468  0.00  0.00    +0.032 C 
ATOM      7  C   UNL     1      -0.346  -5.687   4.946  0.00  0.00    +0.004 C 
ATOM      8  C   UNL     1       1.083  -6.115   5.223  0.00  0.00    +0.019 C 
ATOM      9  C   UNL     1       2.071  -5.027   4.800  0.00  0.00    +0.108 C 
ATOM     10  N   UNL     1       2.387  -5.206   3.374  0.00  0.00    -0.296 N 
ATOM     11  C   UNL     1       1.483  -4.913   2.440  0.00  0.00    +0.236 C 
ATOM     12  O   UNL     1       1.757  -5.057   1.268  0.00  0.00    -0.274 OA
BRANCH  10  13
ATOM     13  C   UNL     1       3.707  -5.705   2.978  0.00  0.00    +0.143 C 
BRANCH  13  14
ATOM     14  C   UNL     1       3.673  -7.210   2.903  0.00  0.00    -0.030 A 
ATOM     15  C   UNL     1       3.973  -7.963   4.024  0.00  0.00    +0.006 A 
ATOM     16  C   UNL     1       3.943  -9.341   3.962  0.00  0.00    +0.009 A 
ATOM     17  C   UNL     1       3.610  -9.975   2.764  0.00  0.00    -0.011 A 
ATOM     18  C   UNL     1       3.307  -9.210   1.637  0.00  0.00    +0.009 A 
ATOM     19  C   UNL     1       3.336  -7.832   1.714  0.00  0.00    +0.006 A 
BRANCH  17  20
ATOM     20  C   UNL     1       3.576 -11.451   2.690  0.00  0.00    +0.019 A 
ATOM     21  C   UNL     1       3.282 -12.255   1.621  0.00  0.00    +0.016 A 
ATOM     22  C   UNL     1       3.317 -13.621   1.791  0.00  0.00    +0.008 A 
ATOM     23  C   UNL     1       3.640 -14.129   3.008  0.00  0.00    +0.046 A 
ATOM     24  S   UNL     1       3.917 -12.650   3.968  0.00  0.00    -0.097 S 
ENDBRANCH  17  20
ENDBRANCH  13  14
ENDBRANCH  10  13
ENDBRANCH   3   5
BRANCH   1  25
ATOM     25  C   UNL     1      -1.136  -2.159   0.001  0.00  0.00    +0.163 C 
BRANCH  25  29
ATOM     26  C   UNL     1      -0.018   1.503   0.010  0.00  0.00    +0.109 C 
ATOM     27  C   UNL     1       0.002  -0.004   0.002  0.00  0.00    +0.211 C 
ATOM     28  O   UNL     1       1.060  -0.596  -0.011  0.00  0.00    -0.276 OA
ATOM     29  N   UNL     1      -1.156  -0.694   0.009  0.00  0.00    -0.304 N 
ATOM     30  H   UNL     1      -2.002  -0.220   0.020  0.00  0.00    +0.149 HD
ENDBRANCH  25  29
BRANCH  25  31
ATOM     31  C   UNL     1      -0.420  -2.652  -1.258  0.00  0.00    +0.067 C 
BRANCH  31  32
ATOM     32  C   UNL     1      -1.215  -2.257  -2.475  0.00  0.00    -0.045 A 
ATOM     33  C   UNL     1      -2.188  -3.107  -2.969  0.00  0.00    +0.007 A 
ATOM     34  C   UNL     1      -2.918  -2.747  -4.085  0.00  0.00    +0.046 A 
ATOM     35  C   UNL     1      -2.675  -1.533  -4.711  0.00  0.00    +0.132 A 
ATOM     36  C   UNL     1      -1.698  -0.683  -4.213  0.00  0.00    +0.046 A 
ATOM     37  C   UNL     1      -0.974  -1.044  -3.093  0.00  0.00    +0.007 A 
BRANCH  35  38
ATOM     38  O   UNL     1      -3.391  -1.178  -5.809  0.00  0.00    -0.401 OA
BRANCH  38  39
ATOM     39  P   UNL     1      -4.739  -0.361  -5.477  0.00  0.00    +0.589 P 
ATOM     40  O   UNL     1      -5.617  -1.188  -4.477  0.00  0.00    -0.211 OA
ATOM     41  O   UNL     1      -4.368   1.017  -4.830  0.00  0.00    -0.104 OA
ATOM     42  O   UNL     1      -5.542  -0.118  -6.799  0.00  0.00    -0.104 OA
ENDBRANCH  38  39
ENDBRANCH  35  38
ENDBRANCH  31  32
ENDBRANCH  25  31
ENDBRANCH   1  25
TORSDOF 10
