REMARK  Name = CHEMBL455164
REMARK  6 active torsions:
REMARK  status: ('A' for Active; 'I' for Inactive)
REMARK    1  A    between atoms: C_1  and  S_2
REMARK    2  A    between atoms: S_2  and  C_3
REMARK    3  A    between atoms: N_9  and  C_10
REMARK    4  A    between atoms: C_10  and  C_11
REMARK    5  A    between atoms: C_11  and  C_12
REMARK    6  A    between atoms: C_19  and  N_21
REMARK                            x       y       z     vdW  Elec       q    Type
REMARK                         _______ _______ _______ _____ _____    ______ ____
ROOT
ATOM      1  C   UNL     1       0.799  -0.427   1.522  0.00  0.00    +0.192 A 
ATOM      2  N   UNL     1       1.313   0.546   2.256  0.00  0.00    -0.202 NA
ATOM      3  C   UNL     1       2.058   0.269   3.324  0.00  0.00    +0.164 A 
ATOM      4  C   UNL     1       2.291  -1.079   3.661  0.00  0.00    +0.078 A 
ATOM      5  C   UNL     1       3.099  -1.081   4.819  0.00  0.00    +0.148 A 
ATOM      6  N   UNL     1       3.338   0.153   5.158  0.00  0.00    -0.177 NA
ATOM      7  N   UNL     1       2.710   1.021   4.256  0.00  0.00    -0.245 N 
ATOM      8  C   UNL     1       1.723  -2.081   2.849  0.00  0.00    +0.136 A 
ATOM      9  N   UNL     1       0.990  -1.711   1.807  0.00  0.00    -0.206 NA
ENDROOT
BRANCH   8  10
ATOM     10  N   UNL     1       1.921  -3.417   3.135  0.00  0.00    -0.315 N 
ATOM     11  C   UNL     1       0.993  -4.140   4.016  0.00  0.00    +0.106 C 
ATOM     12  C   UNL     1       0.497  -5.393   3.289  0.00  0.00    +0.019 C 
ATOM     13  C   UNL     1       1.700  -6.220   2.829  0.00  0.00    +0.003 C 
ATOM     14  C   UNL     1       2.544  -5.397   1.853  0.00  0.00    +0.019 C 
ATOM     15  C   UNL     1       3.059  -4.145   2.559  0.00  0.00    +0.106 C 
ENDBRANCH   8  10
BRANCH   1  17
ATOM     16  C   UNL     1      -0.175   1.808   0.109  0.00  0.00    +0.093 C 
ATOM     17  S   UNL     1      -0.180  -0.006   0.119  0.00  0.00    -0.089 S 
ENDBRANCH   1  17
BRANCH   7  18
ATOM     18  C   UNL     1       2.747   2.485   4.305  0.00  0.00    +0.165 C 
BRANCH  18  19
ATOM     19  C   UNL     1       1.577   2.997   5.147  0.00  0.00    +0.108 C 
ATOM     20 BR   UNL     1      -0.117   2.549   4.256  0.00  0.00    -0.081 Br
BRANCH  19  21
ATOM     21  C   UNL     1       1.685   4.492   5.299  0.00  0.00    -0.032 A 
ATOM     22  C   UNL     1       1.562   5.311   4.192  0.00  0.00    +0.005 A 
ATOM     23  C   UNL     1       1.661   6.682   4.332  0.00  0.00    +0.000 A 
ATOM     24  C   UNL     1       1.882   7.236   5.579  0.00  0.00    +0.000 A 
ATOM     25  C   UNL     1       2.004   6.418   6.687  0.00  0.00    +0.000 A 
ATOM     26  C   UNL     1       1.901   5.046   6.547  0.00  0.00    +0.005 A 
ENDBRANCH  19  21
ENDBRANCH  18  19
ENDBRANCH   7  18
TORSDOF 5
