REMARK  Name = CHEMBL387641
REMARK  4 active torsions:
REMARK  status: ('A' for Active; 'I' for Inactive)
REMARK    1  A    between atoms: C_1  and  C_2
REMARK    2  A    between atoms: C_6  and  C_23
REMARK    3  A    between atoms: C_7  and  N_8
REMARK    4  A    between atoms: C_15  and  C_18
REMARK                            x       y       z     vdW  Elec       q    Type
REMARK                         _______ _______ _______ _____ _____    ______ ____
ROOT
ATOM      1  N   UNL     1       0.348  -0.774   2.601  0.00  0.00    -0.297 N 
ATOM      2  C   UNL     1       0.145  -1.588   3.704  0.00  0.00    +0.149 A 
ATOM      3  C   UNL     1       0.035  -1.020   4.994  0.00  0.00    +0.106 A 
ATOM      4  C   UNL     1       0.083   0.262   5.492  0.00  0.00    +0.142 A 
ATOM      5  N   UNL     1      -0.085   0.184   6.814  0.00  0.00    -0.243 NA
ATOM      6  C   UNL     1      -0.234  -1.069   7.170  0.00  0.00    +0.204 A 
ATOM      7  N   UNL     1      -0.167  -1.852   6.080  0.00  0.00    -0.294 N 
ATOM      8  C   UNL     1      -0.255  -3.218   5.864  0.00  0.00    +0.080 A 
ATOM      9  C   UNL     1      -0.141  -3.706   4.597  0.00  0.00    +0.140 A 
ATOM     10  N   UNL     1       0.048  -2.896   3.553  0.00  0.00    -0.236 NA
ATOM     11  H   UNL     1       0.341   0.191   2.702  0.00  0.00    +0.154 HD
ENDROOT
BRANCH   1  18
ATOM     12  C   UNL     1       2.956  -0.603   1.476  0.00  0.00    +0.045 C 
ATOM     13  C   UNL     1       1.820  -1.282   0.756  0.00  0.00    -0.029 A 
ATOM     14  C   UNL     1       2.030  -1.851  -0.485  0.00  0.00    +0.005 A 
ATOM     15  C   UNL     1       0.988  -2.474  -1.146  0.00  0.00    +0.001 A 
ATOM     16  C   UNL     1      -0.267  -2.531  -0.568  0.00  0.00    +0.005 A 
ATOM     17  C   UNL     1      -0.484  -1.966   0.673  0.00  0.00    -0.029 A 
ATOM     18  C   UNL     1       0.562  -1.343   1.343  0.00  0.00    +0.038 A 
ATOM     19  C   UNL     1      -1.852  -2.028   1.302  0.00  0.00    +0.045 C 
ENDBRANCH   1  18
BRANCH   8  20
ATOM     20  C   UNL     1      -0.470  -4.134   6.994  0.00  0.00    +0.038 A 
ATOM     21  C   UNL     1       0.373  -5.107   7.500  0.00  0.00    +0.017 A 
ATOM     22  C   UNL     1      -0.056  -5.847   8.579  0.00  0.00    +0.008 A 
ATOM     23  C   UNL     1      -1.281  -5.601   9.108  0.00  0.00    +0.046 A 
ATOM     24  S   UNL     1      -1.883  -4.275   8.076  0.00  0.00    -0.095 S 
ENDBRANCH   8  20
TORSDOF 2
