REMARK  Name = CHEMBL406661
REMARK  4 active torsions:
REMARK  status: ('A' for Active; 'I' for Inactive)
REMARK    1  A    between atoms: C_1  and  N_2
REMARK    2  A    between atoms: N_5  and  C_8
REMARK    3  A    between atoms: C_11  and  N_14
REMARK    4  A    between atoms: N_30  and  C_33
REMARK                            x       y       z     vdW  Elec       q    Type
REMARK                         _______ _______ _______ _____ _____    ______ ____
ROOT
ATOM      1  N   UNL     1      -2.347  -6.681   4.245  0.00  0.00    -0.284 N 
ATOM      2  C   UNL     1      -1.538  -7.174   5.249  0.00  0.00    +0.221 A 
ATOM      3  N   UNL     1      -0.370  -6.584   5.477  0.00  0.00    -0.222 NA
ATOM      4  C   UNL     1       0.441  -7.018   6.427  0.00  0.00    +0.131 A 
ATOM      5  C   UNL     1       0.042  -8.115   7.190  0.00  0.00    +0.101 A 
ATOM      6  C   UNL     1      -1.204  -8.716   6.921  0.00  0.00    +0.158 A 
ATOM      7  N   UNL     1      -1.958  -8.216   5.955  0.00  0.00    -0.196 NA
ATOM      8  N   UNL     1      -1.606  -9.804   7.672  0.00  0.00    -0.261 N 
ATOM      9  C   UNL     1      -2.755 -10.579   7.630  0.00  0.00    +0.077 A 
ATOM     10  C   UNL     1      -3.899 -10.558   6.846  0.00  0.00    +0.028 A 
ATOM     11  C   UNL     1      -4.892 -11.492   7.058  0.00  0.00    +0.002 A 
ATOM     12  C   UNL     1      -4.754 -12.451   8.051  0.00  0.00    +0.002 A 
ATOM     13  C   UNL     1      -3.626 -12.486   8.838  0.00  0.00    +0.030 A 
ATOM     14  C   UNL     1      -2.610 -11.547   8.636  0.00  0.00    +0.092 A 
ATOM     15  N   UNL     1      -1.411 -11.327   9.232  0.00  0.00    -0.211 NA
ATOM     16  C   UNL     1      -0.811 -10.300   8.670  0.00  0.00    +0.225 A 
ATOM     17  N   UNL     1       0.417  -9.731   8.957  0.00  0.00    -0.243 N 
ATOM     18  C   UNL     1       0.875  -8.667   8.266  0.00  0.00    +0.271 A 
ATOM     19  O   UNL     1       1.957  -8.176   8.527  0.00  0.00    -0.266 OA
ATOM     20  H   UNL     1      -3.239  -7.041   4.120  0.00  0.00    +0.155 HD
ENDROOT
BRANCH  17  21
ATOM     21  C   UNL     1       1.200 -10.270   9.987  0.00  0.00    +0.089 A 
ATOM     22  C   UNL     1       1.058  -9.803  11.287  0.00  0.00    +0.066 A 
ATOM     23  C   UNL     1       1.832 -10.337  12.300  0.00  0.00    +0.022 A 
ATOM     24  C   UNL     1       2.746 -11.336  12.021  0.00  0.00    +0.003 A 
ATOM     25  C   UNL     1       2.891 -11.803  10.727  0.00  0.00    +0.022 A 
ATOM     26  C   UNL     1       2.116 -11.277   9.710  0.00  0.00    +0.066 A 
ATOM     27 CL   UNL     1       2.293 -11.870   8.088  0.00  0.00    -0.081 Cl
ATOM     28 CL   UNL     1      -0.089  -8.549  11.639  0.00  0.00    -0.081 Cl
ENDBRANCH  17  21
BRANCH   1  32
ATOM     29  C   UNL     1      -0.957  -3.641   1.751  0.00  0.00    +0.030 A 
ATOM     30  C   UNL     1      -0.079  -4.608   2.223  0.00  0.00    +0.025 A 
ATOM     31  C   UNL     1      -0.539  -5.614   3.049  0.00  0.00    +0.025 A 
ATOM     32  C   UNL     1      -1.880  -5.660   3.407  0.00  0.00    +0.034 A 
ATOM     33  C   UNL     1      -2.758  -4.694   2.934  0.00  0.00    +0.025 A 
ATOM     34  C   UNL     1      -2.297  -3.684   2.114  0.00  0.00    +0.025 A 
BRANCH  29  39
ATOM     35  C   UNL     1       0.526  -1.103  -2.851  0.00  0.00    -0.096 C 
ATOM     36  N   UNL     1       0.280  -1.278  -1.413  0.00  0.00    +0.380 N 
ATOM     37  C   UNL     1       1.112  -2.378  -0.907  0.00  0.00    -0.060 C 
ATOM     38  C   UNL     1       0.943  -2.487   0.612  0.00  0.00    +0.086 C 
ATOM     39  N   UNL     1      -0.490  -2.622   0.914  0.00  0.00    -0.333 N 
ATOM     40  C   UNL     1      -1.419  -1.654   0.311  0.00  0.00    +0.086 C 
ATOM     41  C   UNL     1      -1.139  -1.584  -1.194  0.00  0.00    -0.060 C 
ATOM     42  H   UNL     1       0.519  -0.428  -0.926  0.00  0.00    -0.082 HD
ENDBRANCH  29  39
ENDBRANCH   1  32
TORSDOF 3
