REMARK  Name = CHEMBL398610
REMARK  7 active torsions:
REMARK  status: ('A' for Active; 'I' for Inactive)
REMARK    1  A    between atoms: C_1  and  C_2
REMARK    2  A    between atoms: C_2  and  O_3
REMARK    3  A    between atoms: O_3  and  C_4
REMARK    4  A    between atoms: C_10  and  C_14
REMARK    5  A    between atoms: N_12  and  C_13
REMARK    6  A    between atoms: C_16  and  C_21
REMARK    7  A    between atoms: C_22  and  C_26
REMARK                            x       y       z     vdW  Elec       q    Type
REMARK                         _______ _______ _______ _____ _____    ______ ____
ROOT
ATOM      1  C   UNL     1      -4.492  -0.470   0.041  0.00  0.00    +0.025 C 
ATOM      2  C   UNL     1      -5.714  -0.071   0.562  0.00  0.00    +0.067 C 
ATOM      3  C   UNL     1      -6.293   1.288   0.560  0.00  0.00    +0.111 C 
ATOM      4  N   UNL     1      -7.457   1.217   1.153  0.00  0.00    -0.178 NA
ATOM      5  N   UNL     1      -7.732  -0.086   1.567  0.00  0.00    -0.202 N 
ATOM      6  C   UNL     1      -6.717  -0.908   1.231  0.00  0.00    +0.265 C 
ATOM      7  O   UNL     1      -6.645  -2.107   1.444  0.00  0.00    -0.268 OA
ATOM      8  H   UNL     1      -8.540  -0.363   2.027  0.00  0.00    +0.178 HD
ENDROOT
BRANCH   1  15
ATOM      9  C   UNL     1      -1.566  -1.932   0.449  0.00  0.00    +0.130 A 
ATOM     10  C   UNL     1      -0.491  -2.794   0.575  0.00  0.00    +0.046 A 
ATOM     11  C   UNL     1      -0.670  -4.159   0.419  0.00  0.00    +0.006 A 
ATOM     12  C   UNL     1      -1.917  -4.677   0.137  0.00  0.00    +0.026 A 
ATOM     13  C   UNL     1      -3.011  -3.828   0.006  0.00  0.00    +0.053 A 
ATOM     14  C   UNL     1      -2.833  -2.447   0.169  0.00  0.00    +0.049 A 
ATOM     15  C   UNL     1      -4.166  -1.841  -0.023  0.00  0.00    +0.004 A 
ATOM     16  C   UNL     1      -5.031  -2.890  -0.277  0.00  0.00    +0.094 A 
ATOM     17  N   UNL     1      -4.347  -4.050  -0.266  0.00  0.00    -0.349 N 
ATOM     18  C   UNL     1      -4.941  -5.369  -0.497  0.00  0.00    +0.149 C 
BRANCH   9  19
ATOM     19  O   UNL     1      -1.391  -0.593   0.602  0.00  0.00    -0.492 OA
BRANCH  19  21
ATOM     20  C   UNL     1      -0.066   1.383   1.025  0.00  0.00    +0.048 C 
ATOM     21  C   UNL     1      -0.066  -0.141   0.887  0.00  0.00    +0.226 C 
ENDBRANCH  19  21
ENDBRANCH   9  19
ENDBRANCH   1  15
BRANCH   3  22
ATOM     22  C   UNL     1      -5.672   2.503  -0.007  0.00  0.00    +0.083 A 
ATOM     23  C   UNL     1      -6.139   3.799  -0.045  0.00  0.00    +0.078 A 
ATOM     24  N   UNL     1      -5.334   4.655  -0.628  0.00  0.00    -0.146 NA
ATOM     25  N   UNL     1      -4.200   4.302  -1.122  0.00  0.00    -0.110 NA
ATOM     26  S   UNL     1      -4.101   2.710  -0.829  0.00  0.00    +0.038 S 
ATOM     27  C   UNL     1      -7.470   4.202   0.537  0.00  0.00    +0.069 C 
ENDBRANCH   3  22
TORSDOF 4
