REMARK  Name = CHEMBL426148
REMARK  12 active torsions:
REMARK  status: ('A' for Active; 'I' for Inactive)
REMARK    1  A    between atoms: C_1  and  N_2
REMARK    2  A    between atoms: N_5  and  C_8
REMARK    3  A    between atoms: C_8  and  C_9
REMARK    4  A    between atoms: C_9  and  C_10
REMARK    5  A    between atoms: C_10  and  O_11
REMARK    6  A    between atoms: O_11  and  C_12
REMARK    7  A    between atoms: C_17  and  O_18
REMARK    8  A    between atoms: O_18  and  C_19
REMARK    9  A    between atoms: C_25  and  N_29
REMARK   10  A    between atoms: N_29  and  C_30
REMARK   11  A    between atoms: C_32  and  O_37
REMARK   12  A    between atoms: O_37  and  C_38
REMARK                            x       y       z     vdW  Elec       q    Type
REMARK                         _______ _______ _______ _____ _____    ______ ____
ROOT
ATOM      1  C   UNL     1       0.193  -8.021   3.690  0.00  0.00    +0.163 A 
ATOM      2  C   UNL     1       0.207  -8.690   2.468  0.00  0.00    +0.051 A 
ATOM      3  C   UNL     1       0.850  -9.885   2.327  0.00  0.00    +0.032 A 
ATOM      4  C   UNL     1       1.509 -10.457   3.422  0.00  0.00    +0.080 A 
ATOM      5  C   UNL     1       1.501  -9.784   4.670  0.00  0.00    +0.086 A 
ATOM      6  C   UNL     1       0.838  -8.554   4.792  0.00  0.00    +0.175 A 
ATOM      7  C   UNL     1       2.176 -10.385   5.758  0.00  0.00    +0.138 A 
ATOM      8  N   UNL     1       2.782 -11.548   5.555  0.00  0.00    -0.220 NA
ATOM      9  C   UNL     1       2.764 -12.140   4.371  0.00  0.00    +0.223 A 
ATOM     10  N   UNL     1       2.155 -11.630   3.327  0.00  0.00    -0.235 NA
ENDROOT
BRANCH   7  11
ATOM     11  N   UNL     1       2.203  -9.778   6.997  0.00  0.00    -0.298 N 
ATOM     12  H   UNL     1       1.826  -8.892   7.111  0.00  0.00    +0.154 HD
BRANCH  11  13
ATOM     13  C   UNL     1       2.775 -10.441   8.087  0.00  0.00    +0.054 A 
ATOM     14  C   UNL     1       2.807 -11.828   8.119  0.00  0.00    +0.070 A 
ATOM     15  C   UNL     1       3.375 -12.482   9.201  0.00  0.00    +0.122 A 
ATOM     16  C   UNL     1       3.910 -11.748  10.251  0.00  0.00    +0.047 A 
ATOM     17  C   UNL     1       3.878 -10.367  10.219  0.00  0.00    +0.025 A 
ATOM     18  C   UNL     1       3.317  -9.711   9.139  0.00  0.00    +0.062 A 
ATOM     19 CL   UNL     1       3.285  -7.976   9.098  0.00  0.00    -0.082 Cl
BRANCH  15  20
ATOM     20  O   UNL     1       3.407 -13.840   9.235  0.00  0.00    -0.495 OA
ATOM     21  C   UNL     1       4.007 -14.447  10.381  0.00  0.00    +0.277 C 
ENDBRANCH  15  20
ENDBRANCH  11  13
ENDBRANCH   7  11
BRANCH   1  22
ATOM     22  O   UNL     1      -0.457  -6.831   3.799  0.00  0.00    -0.488 OA
BRANCH  22  23
ATOM     23  C   UNL     1      -1.103  -6.334   2.625  0.00  0.00    +0.227 C 
BRANCH  23  24
ATOM     24  C   UNL     1      -1.774  -4.996   2.940  0.00  0.00    +0.022 C 
BRANCH  24  25
ATOM     25  C   UNL     1      -2.467  -4.464   1.683  0.00  0.00    -0.075 C 
BRANCH  25  30
ATOM     26  C   UNL     1      -4.162   0.909   1.755  0.00  0.00    +0.104 C 
ATOM     27  N   UNL     1      -3.545  -0.399   1.494  0.00  0.00    -0.309 NA
ATOM     28  C   UNL     1      -4.562  -1.398   1.136  0.00  0.00    +0.065 C 
ATOM     29  C   UNL     1      -3.875  -2.728   0.815  0.00  0.00    -0.063 C 
ATOM     30  N   UNL     1      -3.111  -3.179   1.986  0.00  0.00    +0.381 N 
ATOM     31  C   UNL     1      -2.084  -2.183   2.316  0.00  0.00    -0.063 C 
ATOM     32  C   UNL     1      -2.756  -0.849   2.649  0.00  0.00    +0.065 C 
ATOM     33  H   UNL     1      -3.735  -3.293   2.771  0.00  0.00    -0.082 HD
ENDBRANCH  25  30
ENDBRANCH  24  25
ENDBRANCH  23  24
ENDBRANCH  22  23
ENDBRANCH   1  22
BRANCH   6  34
ATOM     34  O   UNL     1       0.826  -7.895   5.980  0.00  0.00    -0.484 OA
BRANCH  34  35
ATOM     35  C   UNL     1      -0.289  -8.132   6.842  0.00  0.00    +0.178 C 
ATOM     36  C   UNL     1      -1.444  -7.205   6.452  0.00  0.00    +0.072 C 
ATOM     37  C   UNL     1      -2.605  -7.409   7.428  0.00  0.00    +0.163 C 
ATOM     38  O   UNL     1      -2.154  -7.157   8.761  0.00  0.00    -0.380 OA
ATOM     39  C   UNL     1      -1.107  -8.026   9.197  0.00  0.00    +0.163 C 
ATOM     40  C   UNL     1       0.114  -7.846   8.292  0.00  0.00    +0.072 C 
ENDBRANCH  34  35
ENDBRANCH   6  34
TORSDOF 10
