REMARK  Name = CHEMBL196797
REMARK  12 active torsions:
REMARK  status: ('A' for Active; 'I' for Inactive)
REMARK    1  A    between atoms: C_1  and  C_2
REMARK    2  A    between atoms: C_5  and  O_36
REMARK    3  A    between atoms: C_7  and  N_8
REMARK    4  A    between atoms: N_8  and  C_9
REMARK    5  A    between atoms: C_14  and  O_34
REMARK    6  A    between atoms: C_15  and  O_25
REMARK    7  A    between atoms: C_22  and  C_23
REMARK    8  A    between atoms: O_25  and  C_26
REMARK    9  A    between atoms: C_26  and  C_27
REMARK   10  A    between atoms: C_27  and  N_28
REMARK   11  A    between atoms: O_34  and  C_35
REMARK   12  A    between atoms: O_36  and  C_37
REMARK                            x       y       z     vdW  Elec       q    Type
REMARK                         _______ _______ _______ _____ _____    ______ ____
ROOT
ATOM      1  C   UNL     1       0.126  -1.290   3.891  0.00  0.00    +0.060 A 
ATOM      2  C   UNL     1      -0.276  -0.652   5.094  0.00  0.00    +0.023 A 
ATOM      3  C   UNL     1      -0.717   0.668   5.091  0.00  0.00    +0.020 A 
ATOM      4  C   UNL     1      -1.106   1.266   6.290  0.00  0.00    -0.013 A 
ATOM      5  C   UNL     1      -1.559   2.601   6.323  0.00  0.00    +0.058 A 
ATOM      6  C   UNL     1      -1.932   3.155   7.509  0.00  0.00    +0.162 A 
ATOM      7  C   UNL     1      -1.877   2.427   8.709  0.00  0.00    +0.162 A 
ATOM      8  C   UNL     1      -1.449   1.135   8.739  0.00  0.00    +0.058 A 
ATOM      9  C   UNL     1      -1.049   0.505   7.542  0.00  0.00    -0.012 A 
ATOM     10  C   UNL     1      -0.606  -0.818   7.540  0.00  0.00    +0.037 A 
ATOM     11  C   UNL     1      -0.218  -1.415   6.343  0.00  0.00    +0.073 A 
ATOM     12  N   UNL     1       0.211  -2.690   6.322  0.00  0.00    -0.254 NA
ATOM     13  C   UNL     1       0.581  -3.276   5.215  0.00  0.00    +0.132 A 
ATOM     14  C   UNL     1       0.553  -2.622   3.972  0.00  0.00    +0.091 A 
ENDROOT
BRANCH   1  15
ATOM     15  N   UNL     1       0.093  -0.624   2.685  0.00  0.00    -0.313 N 
ATOM     16  H   UNL     1       0.104   0.346   2.666  0.00  0.00    +0.152 HD
BRANCH  15  23
ATOM     17  C   UNL     1      -2.301  -2.026   2.063  0.00  0.00    +0.046 C 
ATOM     18  C   UNL     1      -1.105  -2.045   1.145  0.00  0.00    -0.028 A 
ATOM     19  C   UNL     1      -1.155  -2.754  -0.039  0.00  0.00    +0.028 A 
ATOM     20  C   UNL     1      -0.060  -2.774  -0.883  0.00  0.00    +0.083 A 
ATOM     21  C   UNL     1       1.094  -2.080  -0.541  0.00  0.00    +0.140 A 
ATOM     22  C   UNL     1       1.148  -1.368   0.646  0.00  0.00    +0.070 A 
ATOM     23  C   UNL     1       0.045  -1.345   1.489  0.00  0.00    +0.038 A 
ATOM     24 CL   UNL     1      -0.127  -3.667  -2.370  0.00  0.00    -0.080 Cl
BRANCH  21  25
ATOM     25  O   UNL     1       2.170  -2.101  -1.371  0.00  0.00    -0.494 OA
ATOM     26  C   UNL     1       3.278  -1.270  -1.018  0.00  0.00    +0.277 C 
ENDBRANCH  21  25
ENDBRANCH  15  23
ENDBRANCH   1  15
BRANCH  14  27
ATOM     27  C   UNL     1       0.965  -3.315   2.788  0.00  0.00    +0.103 C 
ATOM     28  N   UNL     1       1.292  -3.865   1.849  0.00  0.00    -0.191 NA
ENDBRANCH  14  27
BRANCH   6  29
ATOM     29  O   UNL     1      -2.367   4.443   7.533  0.00  0.00    -0.491 OA
ATOM     30  C   UNL     1      -2.403   5.139   6.286  0.00  0.00    +0.277 C 
ENDBRANCH   6  29
BRANCH   7  31
ATOM     31  O   UNL     1      -2.260   3.026   9.867  0.00  0.00    -0.490 OA
BRANCH  31  32
ATOM     32  C   UNL     1      -2.186   2.242  11.059  0.00  0.00    +0.211 C 
BRANCH  32  33
ATOM     33  C   UNL     1      -2.654   3.079  12.251  0.00  0.00    -0.037 C 
BRANCH  33  34
ATOM     34  N   UNL     1      -4.076   3.408  12.089  0.00  0.00    +0.385 N 
ATOM     35  C   UNL     1      -4.489   4.332  13.154  0.00  0.00    -0.050 C 
ATOM     36  C   UNL     1      -5.972   4.673  12.984  0.00  0.00    +0.141 C 
ATOM     37  O   UNL     1      -6.739   3.467  13.009  0.00  0.00    -0.383 OA
ATOM     38  C   UNL     1      -6.358   2.523  12.005  0.00  0.00    +0.141 C 
ATOM     39  C   UNL     1      -4.876   2.178  12.173  0.00  0.00    -0.050 C 
ATOM     40  H   UNL     1      -4.221   3.843  11.191  0.00  0.00    -0.081 HD
ENDBRANCH  33  34
ENDBRANCH  32  33
ENDBRANCH  31  32
ENDBRANCH   7  31
TORSDOF 9
