REMARK  Name = CHEMBL559838
REMARK  8 active torsions:
REMARK  status: ('A' for Active; 'I' for Inactive)
REMARK    1  A    between atoms: C_1  and  C_2
REMARK    2  A    between atoms: C_5  and  C_19
REMARK    3  A    between atoms: C_7  and  C_8
REMARK    4  A    between atoms: C_9  and  N_10
REMARK    5  A    between atoms: N_21  and  C_22
REMARK    6  A    between atoms: C_24  and  C_34
REMARK    7  A    between atoms: C_26  and  N_28
REMARK    8  A    between atoms: C_30  and  C_33
REMARK                            x       y       z     vdW  Elec       q    Type
REMARK                         _______ _______ _______ _____ _____    ______ ____
ROOT
ATOM      1  C   UNL     1       0.060  -4.261  -0.036  0.00  0.00    +0.248 C 
ATOM      2  O   UNL     1       0.082  -4.883   1.008  0.00  0.00    -0.270 OA
ATOM      3  N   UNL     1       0.061  -4.919  -1.213  0.00  0.00    -0.281 N 
ATOM      4  H   UNL     1      -0.024  -4.427  -2.044  0.00  0.00    +0.155 HD
ENDROOT
BRANCH   1   9
ATOM      5  C   UNL     1      -0.049   1.502   0.010  0.00  0.00    +0.044 C 
ATOM      6  C   UNL     1      -0.020  -0.004   0.002  0.00  0.00    -0.043 A 
ATOM      7  C   UNL     1      -0.018  -0.687  -1.199  0.00  0.00    +0.004 A 
ATOM      8  C   UNL     1       0.008  -2.067  -1.216  0.00  0.00    +0.013 A 
ATOM      9  C   UNL     1       0.033  -2.783  -0.016  0.00  0.00    +0.038 A 
ATOM     10  C   UNL     1       0.032  -2.101   1.199  0.00  0.00    +0.021 A 
ATOM     11  C   UNL     1       0.011  -0.707   1.208  0.00  0.00    -0.020 A 
BRANCH  11  12
ATOM     12  C   UNL     1       0.016   0.024   2.491  0.00  0.00    +0.026 C 
ATOM     13  C   UNL     1       0.046  -0.650   3.643  0.00  0.00    +0.095 C 
BRANCH  13  14
ATOM     14  N   UNL     1       0.050   0.039   4.851  0.00  0.00    -0.290 N 
ATOM     15  C   UNL     1       0.021   1.395   5.008  0.00  0.00    +0.206 A 
ATOM     16  N   UNL     1       0.035   1.698   6.274  0.00  0.00    -0.232 NA
ATOM     17  C   UNL     1       0.074   0.561   7.012  0.00  0.00    +0.126 A 
ATOM     18  C   UNL     1       0.079  -0.520   6.107  0.00  0.00    +0.167 A 
ATOM     19  N   UNL     1       0.110  -1.757   6.582  0.00  0.00    -0.216 NA
ATOM     20  C   UNL     1       0.133  -1.972   7.881  0.00  0.00    +0.223 A 
ATOM     21  N   UNL     1       0.126  -0.988   8.761  0.00  0.00    -0.241 NA
ATOM     22  C   UNL     1       0.104   0.278   8.378  0.00  0.00    +0.144 A 
ENDBRANCH  13  14
ENDBRANCH  11  12
ENDBRANCH   1   9
BRANCH   3  23
ATOM     23  C   UNL     1       0.185  -6.312  -1.235  0.00  0.00    +0.036 A 
ATOM     24  C   UNL     1       0.890  -6.932  -2.259  0.00  0.00    +0.035 A 
ATOM     25  C   UNL     1       1.012  -8.307  -2.281  0.00  0.00    +0.059 A 
ATOM     26  C   UNL     1       0.434  -9.071  -1.285  0.00  0.00    +0.038 A 
ATOM     27  C   UNL     1      -0.271  -8.458  -0.258  0.00  0.00    +0.050 A 
ATOM     28  C   UNL     1      -0.392  -7.076  -0.230  0.00  0.00    +0.049 A 
BRANCH  27  29
ATOM     29  N   UNL     1      -0.857  -9.234   0.752  0.00  0.00    -0.307 N 
ATOM     30  C   UNL     1      -1.583  -8.770   1.819  0.00  0.00    +0.113 A 
ATOM     31  C   UNL     1      -1.955  -9.848   2.535  0.00  0.00    +0.031 A 
ATOM     32  N   UNL     1      -1.472 -10.942   1.928  0.00  0.00    -0.350 N 
ATOM     33  C   UNL     1      -0.818 -10.588   0.855  0.00  0.00    +0.178 A 
ATOM     34  C   UNL     1      -2.772  -9.828   3.802  0.00  0.00    +0.065 C 
ATOM     35  H   UNL     1      -1.594 -11.854   2.235  0.00  0.00    +0.166 HD
ENDBRANCH  27  29
BRANCH  25  36
ATOM     36  C   UNL     1       1.776  -8.977  -3.394  0.00  0.00    +0.418 C 
ATOM     37  F   UNL     1       2.263  -8.005  -4.275  0.00  0.00    -0.166 F 
ATOM     38  F   UNL     1       2.848  -9.698  -2.856  0.00  0.00    -0.166 F 
ATOM     39  F   UNL     1       0.927  -9.849  -4.084  0.00  0.00    -0.166 F 
ENDBRANCH  25  36
ENDBRANCH   3  23
TORSDOF 6
