REMARK  Name = CHEMBL222548
REMARK  8 active torsions:
REMARK  status: ('A' for Active; 'I' for Inactive)
REMARK    1  A    between atoms: C_1  and  N_2
REMARK    2  A    between atoms: N_5  and  C_8
REMARK    3  A    between atoms: C_12  and  C_14
REMARK    4  A    between atoms: C_19  and  N_25
REMARK    5  A    between atoms: C_20  and  C_23
REMARK    6  A    between atoms: N_25  and  C_26
REMARK    7  A    between atoms: C_28  and  O_34
REMARK    8  A    between atoms: O_34  and  C_35
REMARK                            x       y       z     vdW  Elec       q    Type
REMARK                         _______ _______ _______ _____ _____    ______ ____
ROOT
ATOM      1  C   UNL     1       2.324  -9.027   3.771  0.00  0.00    +0.022 A 
ATOM      2  C   UNL     1       1.437  -9.142   4.794  0.00  0.00    +0.044 A 
ATOM      3  C   UNL     1       1.657  -8.452   5.998  0.00  0.00    +0.080 A 
ATOM      4  C   UNL     1       2.832  -7.668   6.038  0.00  0.00    +0.060 A 
ATOM      5  S   UNL     1       3.561  -7.927   4.441  0.00  0.00    -0.085 S 
ATOM      6  C   UNL     1       3.184  -6.933   7.155  0.00  0.00    +0.066 A 
ATOM      7  C   UNL     1       2.326  -6.984   8.275  0.00  0.00    +0.092 A 
ATOM      8  C   UNL     1       1.173  -7.777   8.184  0.00  0.00    +0.132 A 
ATOM      9  N   UNL     1       0.880  -8.455   7.109  0.00  0.00    -0.253 NA
ENDROOT
BRANCH   1  14
ATOM     10  C   UNL     1       3.293 -10.090   0.296  0.00  0.00    +0.030 A 
ATOM     11  C   UNL     1       2.189 -10.852  -0.067  0.00  0.00    +0.023 A 
ATOM     12  C   UNL     1       1.137 -11.018   0.814  0.00  0.00    +0.002 A 
ATOM     13  C   UNL     1       1.176 -10.427   2.061  0.00  0.00    +0.009 A 
ATOM     14  C   UNL     1       2.280  -9.660   2.436  0.00  0.00    -0.009 A 
ATOM     15  C   UNL     1       3.344  -9.498   1.549  0.00  0.00    +0.032 A 
BRANCH  10  20
ATOM     16  C   UNL     1       8.084 -11.021  -2.177  0.00  0.00    +0.105 C 
ATOM     17  N   UNL     1       6.793 -10.397  -1.859  0.00  0.00    -0.302 NA
ATOM     18  C   UNL     1       6.788  -9.865  -0.490  0.00  0.00    +0.103 C 
ATOM     19  C   UNL     1       5.500  -9.068  -0.260  0.00  0.00    +0.120 C 
ATOM     20  N   UNL     1       4.353  -9.925  -0.598  0.00  0.00    -0.327 N 
ATOM     21  C   UNL     1       4.353 -10.604  -1.903  0.00  0.00    +0.120 C 
ATOM     22  C   UNL     1       5.687 -11.341  -2.068  0.00  0.00    +0.103 C 
ENDBRANCH  10  20
ENDBRANCH   1  14
BRANCH   7  23
ATOM     23  C   UNL     1       2.624  -6.250   9.468  0.00  0.00    +0.103 C 
ATOM     24  N   UNL     1       2.861  -5.668  10.414  0.00  0.00    -0.191 NA
ENDBRANCH   7  23
BRANCH   6  25
ATOM     25  N   UNL     1       4.342  -6.170   7.175  0.00  0.00    -0.311 N 
ATOM     26  H   UNL     1       5.149  -6.523   7.581  0.00  0.00    +0.152 HD
BRANCH  25  27
ATOM     27  C   UNL     1       4.346  -4.891   6.609  0.00  0.00    +0.054 A 
ATOM     28  C   UNL     1       3.229  -4.429   5.927  0.00  0.00    +0.071 A 
ATOM     29  C   UNL     1       3.237  -3.161   5.367  0.00  0.00    +0.140 A 
ATOM     30  C   UNL     1       4.361  -2.355   5.490  0.00  0.00    +0.084 A 
ATOM     31  C   UNL     1       5.473  -2.817   6.170  0.00  0.00    +0.045 A 
ATOM     32  C   UNL     1       5.467  -4.078   6.735  0.00  0.00    +0.064 A 
ATOM     33 CL   UNL     1       6.862  -4.651   7.594  0.00  0.00    -0.082 Cl
ATOM     34 CL   UNL     1       4.370  -0.767   4.789  0.00  0.00    -0.080 Cl
BRANCH  29  35
ATOM     35  O   UNL     1       2.144  -2.707   4.698  0.00  0.00    -0.494 OA
ATOM     36  C   UNL     1       0.982  -3.539   4.712  0.00  0.00    +0.277 C 
ENDBRANCH  29  35
ENDBRANCH  25  27
ENDBRANCH   6  25
TORSDOF 6
