REMARK  Name = CHEMBL72338
REMARK  7 active torsions:
REMARK  status: ('A' for Active; 'I' for Inactive)
REMARK    1  A    between atoms: C_4  and  C_7
REMARK    2  A    between atoms: C_7  and  C_8
REMARK    3  A    between atoms: C_8  and  C_9
REMARK    4  A    between atoms: C_14  and  O_27
REMARK    5  A    between atoms: C_15  and  O_26
REMARK    6  A    between atoms: C_20  and  O_25
REMARK    7  A    between atoms: C_21  and  O_24
REMARK                            x       y       z     vdW  Elec       q    Type
REMARK                         _______ _______ _______ _____ _____    ______ ____
ROOT
ATOM      1  C   UNL     1       5.487  -1.699   1.381  0.00  0.00    +0.233 C 
ATOM      2  O   UNL     1       6.005  -1.990   0.324  0.00  0.00    -0.272 OA
ATOM      3  N   UNL     1       6.087  -2.034   2.541  0.00  0.00    -0.276 N 
ATOM      4  C   UNL     1       5.584  -1.758   3.808  0.00  0.00    +0.061 A 
ATOM      5  C   UNL     1       4.426  -1.117   4.233  0.00  0.00    +0.076 A 
ATOM      6  C   UNL     1       4.168  -0.977   5.584  0.00  0.00    +0.160 A 
ATOM      7  C   UNL     1       5.064  -1.476   6.529  0.00  0.00    +0.159 A 
ATOM      8  C   UNL     1       6.218  -2.115   6.118  0.00  0.00    +0.059 A 
ATOM      9  C   UNL     1       6.484  -2.259   4.758  0.00  0.00    +0.012 A 
ATOM     10  C   UNL     1       7.595  -2.873   4.005  0.00  0.00    +0.012 A 
ATOM     11  C   UNL     1       7.297  -2.711   2.646  0.00  0.00    +0.102 A 
ATOM     12  C   UNL     1       8.180  -3.204   1.689  0.00  0.00    +0.183 A 
ATOM     13  C   UNL     1       9.341  -3.854   2.087  0.00  0.00    +0.160 A 
ATOM     14  C   UNL     1       9.628  -4.014   3.436  0.00  0.00    +0.050 A 
ATOM     15  C   UNL     1       8.766  -3.522   4.393  0.00  0.00    +0.014 A 
ENDROOT
BRANCH  13  16
ATOM     16  O   UNL     1      10.201  -4.335   1.150  0.00  0.00    -0.503 OA
ATOM     17  H   UNL     1      10.881  -3.704   0.878  0.00  0.00    +0.292 HD
ENDBRANCH  13  16
BRANCH  12  18
ATOM     18  O   UNL     1       7.905  -3.051   0.365  0.00  0.00    -0.502 OA
ATOM     19  H   UNL     1       8.256  -2.236  -0.018  0.00  0.00    +0.292 HD
ENDBRANCH  12  18
BRANCH   7  20
ATOM     20  O   UNL     1       4.802  -1.332   7.856  0.00  0.00    -0.503 OA
ATOM     21  H   UNL     1       4.298  -2.063   8.239  0.00  0.00    +0.292 HD
ENDBRANCH   7  20
BRANCH   6  22
ATOM     22  O   UNL     1       3.034  -0.348   5.994  0.00  0.00    -0.503 OA
ATOM     23  H   UNL     1       2.277  -0.938   6.111  0.00  0.00    +0.292 HD
ENDBRANCH   6  22
BRANCH   1  24
ATOM     24  C   UNL     1       4.171  -0.963   1.399  0.00  0.00    +0.104 C 
BRANCH  24  25
ATOM     25  C   UNL     1       3.711  -0.707  -0.038  0.00  0.00    +0.044 C 
BRANCH  25  29
ATOM     26  C   UNL     1      -0.017   1.378   0.010  0.00  0.00    +0.000 A 
ATOM     27  C   UNL     1       1.171   2.086   0.002  0.00  0.00    +0.000 A 
ATOM     28  C   UNL     1       2.377   1.411  -0.013  0.00  0.00    +0.003 A 
ATOM     29  C   UNL     1       2.396   0.029  -0.020  0.00  0.00    -0.047 A 
ATOM     30  C   UNL     1       1.208  -0.679  -0.012  0.00  0.00    +0.003 A 
ATOM     31  C   UNL     1       0.002  -0.004   0.002  0.00  0.00    +0.000 A 
ENDBRANCH  25  29
ENDBRANCH  24  25
ENDBRANCH   1  24
TORSDOF 7
