REMARK  Name = CHEMBL454358
REMARK  9 active torsions:
REMARK  status: ('A' for Active; 'I' for Inactive)
REMARK    1  A    between atoms: C_1  and  C_2
REMARK    2  A    between atoms: C_6  and  C_36
REMARK    3  A    between atoms: C_7  and  C_8
REMARK    4  A    between atoms: C_9  and  N_10
REMARK    5  A    between atoms: C_18  and  N_19
REMARK    6  A    between atoms: N_19  and  C_20
REMARK    7  A    between atoms: C_23  and  P_26
REMARK    8  A    between atoms: P_26  and  C_28
REMARK    9  A    between atoms: P_26  and  C_29
REMARK                            x       y       z     vdW  Elec       q    Type
REMARK                         _______ _______ _______ _____ _____    ______ ____
ROOT
ATOM      1  N   UNL     1      -1.232   0.320   4.580  0.00  0.00    -0.290 N 
ATOM      2  C   UNL     1      -0.611   1.507   4.853  0.00  0.00    +0.206 A 
ATOM      3  N   UNL     1      -1.030   1.975   5.992  0.00  0.00    -0.230 NA
ATOM      4  C   UNL     1      -1.942   1.125   6.523  0.00  0.00    +0.148 A 
ATOM      5  C   UNL     1      -2.088   0.056   5.623  0.00  0.00    +0.171 A 
ATOM      6  N   UNL     1      -2.939  -0.923   5.912  0.00  0.00    -0.194 NA
ATOM      7  C   UNL     1      -3.645  -0.893   7.031  0.00  0.00    +0.222 A 
ATOM      8  N   UNL     1      -3.542   0.098   7.907  0.00  0.00    -0.197 NA
ATOM      9  C   UNL     1      -2.709   1.113   7.701  0.00  0.00    +0.156 A 
ATOM     10  N   UNL     1      -4.521  -1.932   7.296  0.00  0.00    -0.295 N 
ATOM     11  C   UNL     1      -4.752  -3.000   6.310  0.00  0.00    +0.136 C 
ATOM     12  C   UNL     1      -4.582  -4.352   7.013  0.00  0.00    +0.179 C 
ATOM     13  O   UNL     1      -5.403  -4.380   8.182  0.00  0.00    -0.377 OA
ATOM     14  C   UNL     1      -5.056  -3.401   9.165  0.00  0.00    +0.179 C 
ATOM     15  C   UNL     1      -5.246  -2.004   8.575  0.00  0.00    +0.136 C 
ENDROOT
BRANCH   1  17
ATOM     16  C   UNL     1      -0.169  -0.093   2.513  0.00  0.00    +0.026 C 
ATOM     17  C   UNL     1      -1.037  -0.472   3.454  0.00  0.00    +0.095 C 
BRANCH  16  24
ATOM     18  C   UNL     1       2.401  -1.185   1.759  0.00  0.00    +0.044 C 
ATOM     19  C   UNL     1       1.190  -1.404   0.891  0.00  0.00    -0.043 A 
ATOM     20  C   UNL     1       1.297  -2.136  -0.274  0.00  0.00    +0.004 A 
ATOM     21  C   UNL     1       0.185  -2.338  -1.072  0.00  0.00    +0.001 A 
ATOM     22  C   UNL     1      -1.041  -1.808  -0.710  0.00  0.00    +0.004 A 
ATOM     23  C   UNL     1      -1.162  -1.075   0.452  0.00  0.00    -0.043 A 
ATOM     24  C   UNL     1      -0.046  -0.872   1.266  0.00  0.00    -0.018 A 
ATOM     25  C   UNL     1      -2.498  -0.498   0.845  0.00  0.00    +0.044 C 
ENDBRANCH  16  24
ENDBRANCH   1  17
BRANCH   9  26
ATOM     26  N   UNL     1      -2.609   2.143   8.621  0.00  0.00    -0.298 N 
ATOM     27  H   UNL     1      -2.067   2.922   8.419  0.00  0.00    +0.154 HD
BRANCH  26  28
ATOM     28  C   UNL     1      -3.290   2.061   9.839  0.00  0.00    +0.032 A 
ATOM     29  C   UNL     1      -3.463   0.830  10.458  0.00  0.00    +0.024 A 
ATOM     30  C   UNL     1      -4.136   0.753  11.662  0.00  0.00    +0.013 A 
ATOM     31  C   UNL     1      -4.637   1.899  12.250  0.00  0.00    +0.011 A 
ATOM     32  C   UNL     1      -4.467   3.127  11.636  0.00  0.00    +0.013 A 
ATOM     33  C   UNL     1      -3.790   3.212  10.435  0.00  0.00    +0.024 A 
BRANCH  31  34
ATOM     34  P   UNL     1      -5.521   1.793  13.831  0.00  0.00    +0.111 P 
ATOM     35  O   UNL     1      -4.994   0.654  14.615  0.00  0.00    -0.317 OA
ATOM     36  C   UNL     1      -5.282   3.339  14.766  0.00  0.00    +0.085 C 
ATOM     37  C   UNL     1      -7.300   1.542  13.516  0.00  0.00    +0.085 C 
ENDBRANCH  31  34
ENDBRANCH  26  28
ENDBRANCH   9  26
TORSDOF 5
