REMARK  Name = CHEMBL221236
REMARK  10 active torsions:
REMARK  status: ('A' for Active; 'I' for Inactive)
REMARK    1  A    between atoms: C_1  and  C_2
REMARK    2  A    between atoms: C_2  and  O_3
REMARK    3  A    between atoms: O_3  and  C_4
REMARK    4  A    between atoms: N_6  and  C_36
REMARK    5  A    between atoms: N_9  and  C_10
REMARK    6  A    between atoms: C_13  and  N_16
REMARK    7  A    between atoms: C_20  and  C_35
REMARK    8  A    between atoms: C_22  and  C_27
REMARK    9  A    between atoms: C_28  and  C_34
REMARK   10  A    between atoms: C_32  and  C_33
REMARK                            x       y       z     vdW  Elec       q    Type
REMARK                         _______ _______ _______ _____ _____    ______ ____
ROOT
ATOM      1  N   UNL     1       1.012   1.123  -5.330  0.00  0.00    -0.282 N 
ATOM      2  C   UNL     1       1.734   2.245  -4.964  0.00  0.00    +0.240 A 
ATOM      3  N   UNL     1       2.095   3.112  -5.894  0.00  0.00    -0.211 NA
ATOM      4  C   UNL     1       2.793   4.196  -5.535  0.00  0.00    +0.097 A 
ATOM      5  C   UNL     1       3.204   5.152  -6.479  0.00  0.00    -0.022 A 
ATOM      6  C   UNL     1       3.911   6.240  -6.076  0.00  0.00    +0.014 A 
ATOM      7  C   UNL     1       4.241   6.426  -4.723  0.00  0.00    -0.015 A 
ATOM      8  C   UNL     1       3.851   5.503  -3.771  0.00  0.00    +0.040 A 
ATOM      9  C   UNL     1       3.120   4.373  -4.165  0.00  0.00    +0.112 A 
ATOM     10  N   UNL     1       2.720   3.453  -3.280  0.00  0.00    -0.144 NA
ATOM     11  N   UNL     1       2.045   2.430  -3.679  0.00  0.00    -0.112 NA
ATOM     12  C   UNL     1       2.862   4.971  -7.935  0.00  0.00    +0.046 C 
ATOM     13  H   UNL     1       0.846   0.937  -6.267  0.00  0.00    +0.155 HD
ENDROOT
BRANCH   7  14
ATOM     14  C   UNL     1       5.014   7.624  -4.313  0.00  0.00    -0.012 A 
ATOM     15  C   UNL     1       6.322   7.798  -4.760  0.00  0.00    -0.042 A 
ATOM     16  C   UNL     1       7.037   8.915  -4.375  0.00  0.00    +0.004 A 
ATOM     17  C   UNL     1       6.457   9.859  -3.548  0.00  0.00    +0.001 A 
ATOM     18  C   UNL     1       5.159   9.691  -3.101  0.00  0.00    +0.004 A 
ATOM     19  C   UNL     1       4.433   8.581  -3.484  0.00  0.00    -0.042 A 
ATOM     20  C   UNL     1       3.016   8.403  -3.001  0.00  0.00    +0.044 C 
ATOM     21  C   UNL     1       6.956   6.770  -5.661  0.00  0.00    +0.044 C 
ENDBRANCH   7  14
BRANCH   1  25
ATOM     22  C   UNL     1      -0.453  -1.461  -2.402  0.00  0.00    +0.032 A 
ATOM     23  C   UNL     1      -0.366  -0.098  -2.146  0.00  0.00    +0.025 A 
ATOM     24  C   UNL     1       0.119   0.757  -3.115  0.00  0.00    +0.025 A 
ATOM     25  C   UNL     1       0.520   0.255  -4.346  0.00  0.00    +0.034 A 
ATOM     26  C   UNL     1       0.433  -1.107  -4.603  0.00  0.00    +0.025 A 
ATOM     27  C   UNL     1      -0.047  -1.963  -3.632  0.00  0.00    +0.025 A 
BRANCH  22  33
ATOM     28  C   UNL     1      -2.216  -3.043  -1.610  0.00  0.00    +0.189 C 
ATOM     29  C   UNL     1      -1.984  -4.530  -1.319  0.00  0.00    -0.027 C 
ATOM     30  N   UNL     1      -1.398  -4.681   0.018  0.00  0.00    +0.382 N 
ATOM     31  C   UNL     1      -0.068  -4.059   0.054  0.00  0.00    -0.060 C 
ATOM     32  C   UNL     1      -0.204  -2.549  -0.168  0.00  0.00    +0.089 C 
ATOM     33  N   UNL     1      -0.945  -2.328  -1.420  0.00  0.00    -0.308 N 
ATOM     34  C   UNL     1      -1.278  -6.109   0.341  0.00  0.00    -0.096 C 
ATOM     35  H   UNL     1      -1.995  -4.234   0.698  0.00  0.00    -0.082 HD
BRANCH  28  36
ATOM     36  O   UNL     1      -2.661  -2.881  -2.958  0.00  0.00    -0.361 OA
BRANCH  36  38
ATOM     37  C   UNL     1      -3.555  -1.494  -4.723  0.00  0.00    +0.034 C 
ATOM     38  C   UNL     1      -3.229  -1.599  -3.232  0.00  0.00    +0.159 C 
ENDBRANCH  36  38
ENDBRANCH  28  36
ENDBRANCH  22  33
ENDBRANCH   1  25
TORSDOF 5
