REMARK  Name = CHEMBL509767
REMARK  3 active torsions:
REMARK  status: ('A' for Active; 'I' for Inactive)
REMARK    1  A    between atoms: C_4  and  C_7
REMARK    2  A    between atoms: N_9  and  C_17
REMARK    3  A    between atoms: C_12  and  N_16
REMARK                            x       y       z     vdW  Elec       q    Type
REMARK                         _______ _______ _______ _____ _____    ______ ____
ROOT
ATOM      1  C   UNL     1       3.698  -0.688  -0.037  0.00  0.00    +0.012 A 
ATOM      2  C   UNL     1       4.740  -0.463  -0.875  0.00  0.00    +0.097 A 
ATOM      3  N   UNL     1       5.759  -1.328  -0.582  0.00  0.00    -0.328 N 
ATOM      4  C   UNL     1       5.406  -2.143   0.459  0.00  0.00    +0.147 A 
ATOM      5  C   UNL     1       4.107  -1.781   0.854  0.00  0.00    +0.066 A 
ATOM      6  C   UNL     1       3.510  -2.469   1.919  0.00  0.00    +0.129 A 
ATOM      7  N   UNL     1       4.202  -3.436   2.513  0.00  0.00    -0.220 NA
ATOM      8  C   UNL     1       5.423  -3.743   2.113  0.00  0.00    +0.225 A 
ATOM      9  N   UNL     1       6.018  -3.129   1.113  0.00  0.00    -0.218 NA
ENDROOT
BRANCH   1  13
ATOM     10  C   UNL     1      -0.017   1.379   0.010  0.00  0.00    +0.000 A 
ATOM     11  C   UNL     1       1.169   2.092   0.002  0.00  0.00    +0.001 A 
ATOM     12  C   UNL     1       2.377   1.427  -0.013  0.00  0.00    +0.008 A 
ATOM     13  C   UNL     1       2.403   0.033  -0.021  0.00  0.00    -0.016 A 
ATOM     14  C   UNL     1       1.205  -0.680  -0.013  0.00  0.00    +0.008 A 
ATOM     15  C   UNL     1       0.002  -0.004   0.002  0.00  0.00    +0.001 A 
ENDBRANCH   1  13
BRANCH   6  16
ATOM     16  N   UNL     1       2.232  -2.149   2.341  0.00  0.00    -0.343 N 
ATOM     17  H   UNL     1       1.737  -1.441   1.899  0.00  0.00    +0.144 HD
ATOM     18  H   UNL     1       1.830  -2.633   3.079  0.00  0.00    +0.144 HD
ENDBRANCH   6  16
BRANCH   3  19
ATOM     19  C   UNL     1       7.044  -1.375  -1.284  0.00  0.00    +0.089 C 
ATOM     20  C   UNL     1       7.343  -0.260  -2.288  0.00  0.00    +0.027 C 
ATOM     21  C   UNL     1       7.019  -1.670  -2.785  0.00  0.00    +0.027 C 
ENDBRANCH   3  19
TORSDOF 3
