REMARK  Name = CHEMBL128326
REMARK  13 active torsions:
REMARK  status: ('A' for Active; 'I' for Inactive)
REMARK    1  A    between atoms: C_1  and  N_2
REMARK    2  A    between atoms: N_6  and  C_9
REMARK    3  A    between atoms: C_9  and  C_10
REMARK    4  A    between atoms: C_10  and  C_11
REMARK    5  A    between atoms: C_11  and  O_12
REMARK    6  A    between atoms: O_12  and  C_13
REMARK    7  A    between atoms: C_18  and  O_19
REMARK    8  A    between atoms: O_19  and  C_20
REMARK    9  A    between atoms: C_21  and  N_27
REMARK   10  A    between atoms: C_22  and  C_25
REMARK   11  A    between atoms: N_27  and  C_28
REMARK   12  A    between atoms: C_30  and  O_36
REMARK   13  A    between atoms: O_36  and  C_37
REMARK                            x       y       z     vdW  Elec       q    Type
REMARK                         _______ _______ _______ _____ _____    ______ ____
ROOT
ATOM      1  C   UNL     1       5.609  -7.737   4.310  0.00  0.00    +0.164 A 
ATOM      2  C   UNL     1       4.346  -8.255   4.487  0.00  0.00    +0.077 A 
ATOM      3  C   UNL     1       3.889  -8.550   5.781  0.00  0.00    +0.077 A 
ATOM      4  C   UNL     1       4.741  -8.306   6.886  0.00  0.00    +0.026 A 
ATOM      5  C   UNL     1       6.024  -7.777   6.677  0.00  0.00    +0.061 A 
ATOM      6  C   UNL     1       6.448  -7.504   5.409  0.00  0.00    +0.162 A 
ATOM      7  C   UNL     1       4.278  -8.604   8.188  0.00  0.00    +0.060 A 
ATOM      8  C   UNL     1       2.984  -9.130   8.318  0.00  0.00    +0.091 A 
ATOM      9  C   UNL     1       2.208  -9.340   7.167  0.00  0.00    +0.132 A 
ATOM     10  N   UNL     1       2.662  -9.056   5.973  0.00  0.00    -0.253 NA
ENDROOT
BRANCH   6  11
ATOM     11  O   UNL     1       7.693  -6.996   5.210  0.00  0.00    -0.491 OA
ATOM     12  C   UNL     1       8.500  -6.782   6.370  0.00  0.00    +0.277 C 
ENDBRANCH   6  11
BRANCH   8  13
ATOM     13  C   UNL     1       2.461  -9.452   9.612  0.00  0.00    +0.103 C 
ATOM     14  N   UNL     1       2.045  -9.707  10.638  0.00  0.00    -0.191 NA
ENDBRANCH   8  13
BRANCH   7  15
ATOM     15  N   UNL     1       5.073  -8.383   9.295  0.00  0.00    -0.312 N 
ATOM     16  H   UNL     1       5.087  -7.509   9.716  0.00  0.00    +0.152 HD
BRANCH  15  17
ATOM     17  C   UNL     1       5.857  -9.420   9.810  0.00  0.00    +0.053 A 
ATOM     18  C   UNL     1       5.750 -10.700   9.283  0.00  0.00    +0.071 A 
ATOM     19  C   UNL     1       6.529 -11.725   9.796  0.00  0.00    +0.140 A 
ATOM     20  C   UNL     1       7.415 -11.470  10.835  0.00  0.00    +0.084 A 
ATOM     21  C   UNL     1       7.521 -10.195  11.359  0.00  0.00    +0.045 A 
ATOM     22  C   UNL     1       6.750  -9.169  10.846  0.00  0.00    +0.064 A 
ATOM     23 CL   UNL     1       6.890  -7.567  11.501  0.00  0.00    -0.082 Cl
ATOM     24 CL   UNL     1       8.390 -12.755  11.477  0.00  0.00    -0.080 Cl
BRANCH  19  25
ATOM     25  O   UNL     1       6.426 -12.979   9.282  0.00  0.00    -0.494 OA
ATOM     26  C   UNL     1       5.579 -13.146   8.144  0.00  0.00    +0.277 C 
ENDBRANCH  19  25
ENDBRANCH  15  17
ENDBRANCH   7  15
BRANCH   1  27
ATOM     27  O   UNL     1       6.049  -7.453   3.057  0.00  0.00    -0.488 OA
BRANCH  27  28
ATOM     28  C   UNL     1       5.148  -7.712   1.978  0.00  0.00    +0.227 C 
BRANCH  28  29
ATOM     29  C   UNL     1       5.814  -7.333   0.654  0.00  0.00    +0.022 C 
BRANCH  29  30
ATOM     30  C   UNL     1       4.849  -7.610  -0.500  0.00  0.00    -0.075 C 
BRANCH  30  36
ATOM     31  C   UNL     1       6.726  -7.934  -5.973  0.00  0.00    +0.104 C 
ATOM     32  N   UNL     1       6.085  -7.334  -4.794  0.00  0.00    -0.307 NA
ATOM     33  C   UNL     1       7.041  -6.484  -4.045  0.00  0.00    +0.082 C 
ATOM     34  C   UNL     1       6.258  -5.464  -3.258  0.00  0.00    -0.003 C 
ATOM     35  C   UNL     1       5.939  -5.936  -1.830  0.00  0.00    -0.078 C 
ATOM     36  N   UNL     1       5.529  -7.357  -1.778  0.00  0.00    +0.381 N 
ATOM     37  C   UNL     1       4.638  -7.709  -2.860  0.00  0.00    -0.063 C 
ATOM     38  C   UNL     1       5.473  -8.313  -4.005  0.00  0.00    +0.065 C 
ATOM     39  H   UNL     1       6.352  -7.938  -1.829  0.00  0.00    -0.082 HD
ENDBRANCH  30  36
ENDBRANCH  29  30
ENDBRANCH  28  29
ENDBRANCH  27  28
ENDBRANCH   1  27
TORSDOF 10
