REMARK  Name = CHEMBL262371
REMARK  11 active torsions:
REMARK  status: ('A' for Active; 'I' for Inactive)
REMARK    1  A    between atoms: C_1  and  N_2
REMARK    2  A    between atoms: N_5  and  C_8
REMARK    3  A    between atoms: C_8  and  C_9
REMARK    4  A    between atoms: C_9  and  C_10
REMARK    5  A    between atoms: C_10  and  O_11
REMARK    6  A    between atoms: O_11  and  C_12
REMARK    7  A    between atoms: C_16  and  O_18
REMARK    8  A    between atoms: O_18  and  C_19
REMARK    9  A    between atoms: N_29  and  C_30
REMARK   10  A    between atoms: C_32  and  O_37
REMARK   11  A    between atoms: O_37  and  C_38
REMARK                            x       y       z     vdW  Elec       q    Type
REMARK                         _______ _______ _______ _____ _____    ______ ____
ROOT
ATOM      1  C   UNL     1       0.164  -8.274   3.832  0.00  0.00    +0.126 A 
ATOM      2  C   UNL     1      -0.306  -9.289   3.023  0.00  0.00    +0.074 A 
ATOM      3  C   UNL     1      -0.084 -10.622   3.384  0.00  0.00    +0.083 A 
ATOM      4  C   UNL     1       0.622 -10.914   4.577  0.00  0.00    +0.082 A 
ATOM      5  C   UNL     1       1.092  -9.865   5.386  0.00  0.00    +0.137 A 
ATOM      6  C   UNL     1       0.865  -8.560   5.004  0.00  0.00    +0.092 A 
ATOM      7  C   UNL     1       0.831 -12.270   4.914  0.00  0.00    +0.137 A 
ATOM      8  N   UNL     1       0.356 -13.201   4.097  0.00  0.00    -0.220 NA
ATOM      9  C   UNL     1      -0.299 -12.882   2.992  0.00  0.00    +0.223 A 
ATOM     10  N   UNL     1      -0.523 -11.642   2.628  0.00  0.00    -0.235 NA
ATOM     11  N   UNL     1       1.512 -12.617   6.063  0.00  0.00    -0.298 N 
ATOM     12  H   UNL     1       1.773 -11.932   6.698  0.00  0.00    +0.154 HD
ENDROOT
BRANCH  11  13
ATOM     13  C   UNL     1       1.827 -13.957   6.312  0.00  0.00    +0.054 A 
ATOM     14  C   UNL     1       1.551 -14.924   5.355  0.00  0.00    +0.070 A 
ATOM     15  C   UNL     1       1.865 -16.251   5.605  0.00  0.00    +0.122 A 
ATOM     16  C   UNL     1       2.454 -16.610   6.809  0.00  0.00    +0.047 A 
ATOM     17  C   UNL     1       2.728 -15.646   7.761  0.00  0.00    +0.025 A 
ATOM     18  C   UNL     1       2.422 -14.320   7.514  0.00  0.00    +0.062 A 
ATOM     19 CL   UNL     1       2.775 -13.111   8.709  0.00  0.00    -0.082 Cl
BRANCH  15  20
ATOM     20  O   UNL     1       1.596 -17.201   4.671  0.00  0.00    -0.495 OA
ATOM     21  C   UNL     1       1.946 -18.547   4.995  0.00  0.00    +0.277 C 
ENDBRANCH  15  20
ENDBRANCH  11  13
BRANCH   1  22
ATOM     22  O   UNL     1      -0.053  -6.981   3.480  0.00  0.00    -0.492 OA
BRANCH  22  23
ATOM     23  C   UNL     1      -0.776  -6.751   2.269  0.00  0.00    +0.230 C 
BRANCH  23  24
ATOM     24  C   UNL     1      -0.921  -5.246   2.039  0.00  0.00    +0.056 C 
BRANCH  24  25
ATOM     25  C   UNL     1      -1.696  -5.000   0.743  0.00  0.00    +0.087 C 
BRANCH  25  30
ATOM     26  C   UNL     1      -1.783   0.294  -1.186  0.00  0.00    -0.096 C 
ATOM     27  N   UNL     1      -1.624  -1.157  -1.017  0.00  0.00    +0.379 N 
ATOM     28  C   UNL     1      -2.932  -1.763  -0.735  0.00  0.00    -0.064 C 
ATOM     29  C   UNL     1      -2.770  -3.276  -0.578  0.00  0.00    +0.066 C 
ATOM     30  N   UNL     1      -1.835  -3.554   0.522  0.00  0.00    -0.306 NA
ATOM     31  C   UNL     1      -0.528  -2.932   0.266  0.00  0.00    +0.066 C 
ATOM     32  C   UNL     1      -0.709  -1.421   0.101  0.00  0.00    -0.064 C 
ATOM     33  H   UNL     1      -1.245  -1.554  -1.863  0.00  0.00    -0.082 HD
ENDBRANCH  25  30
ENDBRANCH  24  25
ENDBRANCH  23  24
ENDBRANCH  22  23
ENDBRANCH   1  22
BRANCH   5  34
ATOM     34  O   UNL     1       1.769 -10.135   6.530  0.00  0.00    -0.488 OA
BRANCH  34  35
ATOM     35  C   UNL     1       2.358  -9.026   7.212  0.00  0.00    +0.178 C 
ATOM     36  C   UNL     1       3.745  -8.742   6.627  0.00  0.00    +0.072 C 
ATOM     37  C   UNL     1       4.400  -7.605   7.415  0.00  0.00    +0.163 C 
ATOM     38  O   UNL     1       4.476  -7.965   8.796  0.00  0.00    -0.380 OA
ATOM     39  C   UNL     1       3.206  -8.197   9.409  0.00  0.00    +0.163 C 
ATOM     40  C   UNL     1       2.503  -9.358   8.701  0.00  0.00    +0.072 C 
ENDBRANCH  34  35
ENDBRANCH   5  34
TORSDOF 9
