REMARK  Name = CHEMBL255368
REMARK  4 active torsions:
REMARK  status: ('A' for Active; 'I' for Inactive)
REMARK    1  A    between atoms: C_3  and  C_8
REMARK    2  A    between atoms: C_8  and  S_9
REMARK    3  A    between atoms: S_9  and  C_10
REMARK    4  A    between atoms: C_16  and  C_18
REMARK                            x       y       z     vdW  Elec       q    Type
REMARK                         _______ _______ _______ _____ _____    ______ ____
ROOT
ATOM      1  C   UNL     1       5.711   3.388   1.508  0.00  0.00    +0.160 A 
ATOM      2  N   UNL     1       6.342   3.784   0.413  0.00  0.00    -0.133 NA
ATOM      3  N   UNL     1       7.424   4.430   0.463  0.00  0.00    -0.125 NA
ATOM      4  C   UNL     1       7.996   4.751   1.613  0.00  0.00    +0.189 A 
ATOM      5  S   UNL     1       6.819   4.036   2.756  0.00  0.00    -0.024 S 
ATOM      6  N   UNL     1       9.174   5.450   1.861  0.00  0.00    -0.259 N 
ATOM      7  C   UNL     1       9.914   5.911   0.834  0.00  0.00    +0.250 C 
ATOM      8  O   UNL     1       9.553   5.715  -0.311  0.00  0.00    -0.270 OA
ATOM      9  H   UNL     1       9.461   5.605   2.775  0.00  0.00    +0.157 HD
ENDROOT
BRANCH   7  10
ATOM     10  C   UNL     1      11.164   6.652   1.098  0.00  0.00    +0.037 A 
ATOM     11  C   UNL     1      11.584   6.873   2.411  0.00  0.00    +0.014 A 
ATOM     12  C   UNL     1      12.752   7.566   2.651  0.00  0.00    +0.021 A 
ATOM     13  C   UNL     1      13.507   8.043   1.593  0.00  0.00    +0.041 A 
ATOM     14  C   UNL     1      13.095   7.827   0.288  0.00  0.00    +0.021 A 
ATOM     15  C   UNL     1      11.933   7.131   0.035  0.00  0.00    +0.014 A 
ATOM     16 CL   UNL     1      14.976   8.914   1.903  0.00  0.00    -0.084 Cl
ENDBRANCH   7  10
BRANCH   1  17
ATOM     17  S   UNL     1       4.207   2.487   1.686  0.00  0.00    -0.092 S 
BRANCH  17  18
ATOM     18  C   UNL     1       3.672   2.186  -0.021  0.00  0.00    +0.111 C 
BRANCH  18  21
ATOM     19  C   UNL     1      -0.017   1.377   0.010  0.00  0.00    +0.003 A 
ATOM     20  C   UNL     1       1.171   2.086   0.002  0.00  0.00    +0.004 A 
ATOM     21  C   UNL     1       2.378   1.413  -0.013  0.00  0.00    -0.034 A 
ATOM     22  C   UNL     1       2.399   0.030  -0.021  0.00  0.00    +0.042 A 
ATOM     23  C   UNL     1       1.211  -0.679  -0.013  0.00  0.00    +0.124 A 
ATOM     24  C   UNL     1       0.002  -0.004   0.002  0.00  0.00    +0.038 A 
ATOM     25  F   UNL     1       1.230  -2.030  -0.022  0.00  0.00    -0.205 F 
ENDBRANCH  18  21
ENDBRANCH  17  18
ENDBRANCH   1  17
TORSDOF 4
