REMARK  Name = CHEMBL541412
REMARK  7 active torsions:
REMARK  status: ('A' for Active; 'I' for Inactive)
REMARK    1  A    between atoms: C_1  and  C_2
REMARK    2  A    between atoms: C_6  and  C_31
REMARK    3  A    between atoms: C_7  and  N_8
REMARK    4  A    between atoms: C_15  and  C_18
REMARK    5  A    between atoms: C_21  and  C_23
REMARK    6  A    between atoms: C_23  and  N_24
REMARK    7  A    between atoms: N_27  and  C_30
REMARK                            x       y       z     vdW  Elec       q    Type
REMARK                         _______ _______ _______ _____ _____    ______ ____
ROOT
ATOM      1  N   UNL     1      -0.749   0.310   3.812  0.00  0.00    -0.297 N 
ATOM      2  C   UNL     1      -1.200  -0.439   4.883  0.00  0.00    +0.149 A 
ATOM      3  C   UNL     1      -0.616  -1.694   5.168  0.00  0.00    +0.106 A 
ATOM      4  C   UNL     1       0.389  -2.444   4.599  0.00  0.00    +0.142 A 
ATOM      5  N   UNL     1       0.504  -3.565   5.312  0.00  0.00    -0.243 NA
ATOM      6  C   UNL     1      -0.367  -3.561   6.292  0.00  0.00    +0.204 A 
ATOM      7  N   UNL     1      -1.083  -2.426   6.246  0.00  0.00    -0.294 N 
ATOM      8  C   UNL     1      -2.112  -1.899   7.011  0.00  0.00    +0.080 A 
ATOM      9  C   UNL     1      -2.636  -0.683   6.686  0.00  0.00    +0.140 A 
ATOM     10  N   UNL     1      -2.176   0.018   5.649  0.00  0.00    -0.236 NA
ATOM     11  H   UNL     1       0.019   0.012   3.301  0.00  0.00    +0.154 HD
ENDROOT
BRANCH   1  18
ATOM     12  C   UNL     1      -2.283   0.349   1.415  0.00  0.00    +0.045 C 
ATOM     13  C   UNL     1      -2.160   1.560   2.303  0.00  0.00    -0.029 A 
ATOM     14  C   UNL     1      -2.808   2.732   1.966  0.00  0.00    +0.005 A 
ATOM     15  C   UNL     1      -2.696   3.844   2.781  0.00  0.00    +0.001 A 
ATOM     16  C   UNL     1      -1.937   3.786   3.935  0.00  0.00    +0.005 A 
ATOM     17  C   UNL     1      -1.287   2.617   4.278  0.00  0.00    -0.029 A 
ATOM     18  C   UNL     1      -1.401   1.497   3.465  0.00  0.00    +0.038 A 
ATOM     19  C   UNL     1      -0.459   2.555   5.536  0.00  0.00    +0.045 C 
ENDBRANCH   1  18
BRANCH   8  20
ATOM     20  C   UNL     1      -2.635  -2.646   8.162  0.00  0.00    +0.034 C 
ATOM     21  C   UNL     1      -2.698  -2.231   9.423  0.00  0.00    -0.005 C 
ATOM     22  C   UNL     1      -3.288  -3.236  10.358  0.00  0.00    +0.067 C 
ATOM     23  C   UNL     1      -3.685  -4.511   9.657  0.00  0.00    -0.014 C 
ATOM     24  S   UNL     1      -3.317  -4.281   8.152  0.00  0.00    -0.095 S 
BRANCH  23  25
ATOM     25  C   UNL     1      -4.307  -5.738  10.271  0.00  0.00    +0.122 C 
BRANCH  25  26
ATOM     26  N   UNL     1      -4.418  -6.792   9.254  0.00  0.00    -0.301 NA
ATOM     27  C   UNL     1      -5.419  -7.796   9.642  0.00  0.00    +0.066 C 
ATOM     28  C   UNL     1      -5.547  -8.841   8.532  0.00  0.00    -0.064 C 
ATOM     29  N   UNL     1      -4.244  -9.483   8.311  0.00  0.00    +0.379 N 
ATOM     30  C   UNL     1      -3.261  -8.471   7.900  0.00  0.00    -0.064 C 
ATOM     31  C   UNL     1      -3.115  -7.423   9.005  0.00  0.00    +0.066 C 
ATOM     32  C   UNL     1      -4.371 -10.498   7.257  0.00  0.00    -0.096 C 
ATOM     33  H   UNL     1      -3.937  -9.922   9.166  0.00  0.00    -0.082 HD
ENDBRANCH  25  26
ENDBRANCH  23  25
ENDBRANCH   8  20
TORSDOF 4
