REMARK  Name = CHEMBL55496
REMARK  9 active torsions:
REMARK  status: ('A' for Active; 'I' for Inactive)
REMARK    1  A    between atoms: C_1  and  N_2
REMARK    2  A    between atoms: N_2  and  S_3
REMARK    3  A    between atoms: S_3  and  C_6
REMARK    4  A    between atoms: C_13  and  C_14
REMARK    5  A    between atoms: C_15  and  C_24
REMARK    6  A    between atoms: C_24  and  C_25
REMARK    7  A    between atoms: C_25  and  C_26
REMARK    8  A    between atoms: C_26  and  N_27
REMARK    9  A    between atoms: C_30  and  O_33
REMARK                            x       y       z     vdW  Elec       q    Type
REMARK                         _______ _______ _______ _____ _____    ______ ____
ROOT
ATOM      1  C   UNL     1      -4.770  -3.341   5.308  0.00  0.00    +0.044 A 
ATOM      2  C   UNL     1      -5.493  -4.508   5.104  0.00  0.00    -0.019 A 
ATOM      3  C   UNL     1      -6.380  -4.627   6.168  0.00  0.00    -0.023 A 
ATOM      4  C   UNL     1      -6.197  -3.559   6.993  0.00  0.00    +0.020 A 
ATOM      5  N   UNL     1      -5.218  -2.776   6.485  0.00  0.00    -0.358 N 
ATOM      6  H   UNL     1      -4.888  -1.954   6.880  0.00  0.00    +0.166 HD
ATOM      7  C   UNL     1      -6.984  -3.333   8.263  0.00  0.00    +0.053 C 
ATOM      8  C   UNL     1      -8.233  -4.222   8.223  0.00  0.00    +0.006 C 
ATOM      9  C   UNL     1      -7.829  -5.658   7.878  0.00  0.00    +0.005 C 
ATOM     10  C   UNL     1      -7.385  -5.725   6.412  0.00  0.00    +0.037 C 
ENDROOT
BRANCH   1  18
ATOM     11  C   UNL     1      -0.533  -0.247   2.371  0.00  0.00    +0.106 A 
ATOM     12  C   UNL     1      -0.797   1.106   2.506  0.00  0.00    +0.030 A 
ATOM     13  C   UNL     1      -1.909   1.540   3.197  0.00  0.00    +0.026 A 
ATOM     14  C   UNL     1      -2.779   0.618   3.769  0.00  0.00    +0.042 A 
ATOM     15  C   UNL     1      -2.509  -0.750   3.631  0.00  0.00    +0.010 A 
ATOM     16  C   UNL     1      -1.388  -1.177   2.926  0.00  0.00    +0.039 A 
ATOM     17  C   UNL     1      -3.597  -1.463   4.335  0.00  0.00    +0.048 C 
ATOM     18  C   UNL     1      -3.758  -2.829   4.470  0.00  0.00    +0.039 C 
ATOM     19  C   UNL     1      -4.470  -0.405   4.861  0.00  0.00    +0.249 C 
ATOM     20  O   UNL     1      -5.489  -0.573   5.508  0.00  0.00    -0.270 OA
ATOM     21  N   UNL     1      -3.948   0.780   4.503  0.00  0.00    -0.281 N 
ATOM     22  H   UNL     1      -4.337   1.640   4.729  0.00  0.00    +0.155 HD
BRANCH  11  23
ATOM     23  S   UNL     1       0.892  -0.782   1.484  0.00  0.00    +0.058 S 
ATOM     24  O   UNL     1       1.204  -2.083   1.963  0.00  0.00    -0.153 OA
ATOM     25  O   UNL     1       1.824   0.290   1.529  0.00  0.00    -0.153 OA
BRANCH  23  27
ATOM     26  C   UNL     1       0.036   0.217  -0.879  0.00  0.00    +0.127 C 
ATOM     27  N   UNL     1       0.446  -0.955  -0.101  0.00  0.00    -0.193 NA
ATOM     28  H   UNL     1       0.456  -1.832  -0.515  0.00  0.00    +0.148 HD
ENDBRANCH  23  27
ENDBRANCH  11  23
ENDBRANCH   1  18
BRANCH   2  29
ATOM     29  C   UNL     1      -5.346  -5.463   3.948  0.00  0.00    +0.036 C 
BRANCH  29  30
ATOM     30  C   UNL     1      -4.307  -6.530   4.298  0.00  0.00    -0.014 C 
BRANCH  30  31
ATOM     31  C   UNL     1      -4.157  -7.501   3.125  0.00  0.00    -0.079 C 
BRANCH  31  32
ATOM     32  N   UNL     1      -3.160  -8.525   3.461  0.00  0.00    +0.380 N 
ATOM     33  C   UNL     1      -1.845  -7.892   3.622  0.00  0.00    -0.076 C 
ATOM     34  C   UNL     1      -0.818  -8.942   4.051  0.00  0.00    +0.013 C 
ATOM     35  C   UNL     1      -0.733 -10.033   2.979  0.00  0.00    +0.111 C 
ATOM     36  C   UNL     1      -2.125 -10.635   2.767  0.00  0.00    +0.013 C 
ATOM     37  C   UNL     1      -3.104  -9.523   2.385  0.00  0.00    -0.076 C 
ATOM     38  H   UNL     1      -3.421  -8.977   4.324  0.00  0.00    -0.082 HD
BRANCH  35  39
ATOM     39  O   UNL     1       0.169 -11.054   3.408  0.00  0.00    -0.392 OA
ATOM     40  H   UNL     1       0.272 -11.779   2.776  0.00  0.00    +0.210 HD
ENDBRANCH  35  39
ENDBRANCH  31  32
ENDBRANCH  30  31
ENDBRANCH  29  30
ENDBRANCH   2  29
TORSDOF 8
