REMARK  Name = CHEMBL171423
REMARK  8 active torsions:
REMARK  status: ('A' for Active; 'I' for Inactive)
REMARK    1  A    between atoms: C_1  and  O_2
REMARK    2  A    between atoms: O_2  and  C_3
REMARK    3  A    between atoms: C_8  and  O_9
REMARK    4  A    between atoms: O_9  and  C_10
REMARK    5  A    between atoms: C_10  and  C_11
REMARK    6  A    between atoms: C_11  and  C_12
REMARK    7  A    between atoms: C_12  and  N_13
REMARK    8  A    between atoms: N_23  and  C_24
REMARK                            x       y       z     vdW  Elec       q    Type
REMARK                         _______ _______ _______ _____ _____    ______ ____
ROOT
ATOM      1  C   UNL     1      -0.038  -0.508  -1.439  0.00  0.00    +0.162 A 
ATOM      2  C   UNL     1       0.731   0.223  -2.299  0.00  0.00    +0.062 A 
ATOM      3  C   UNL     1       1.286  -0.392  -3.427  0.00  0.00    +0.044 A 
ATOM      4  C   UNL     1       1.046  -1.767  -3.672  0.00  0.00    +0.080 A 
ATOM      5  C   UNL     1       0.255  -2.497  -2.777  0.00  0.00    +0.078 A 
ATOM      6  C   UNL     1      -0.274  -1.870  -1.671  0.00  0.00    +0.164 A 
ATOM      7  N   UNL     1       1.590  -2.332  -4.761  0.00  0.00    -0.235 NA
ATOM      8  C   UNL     1       2.328  -1.622  -5.581  0.00  0.00    +0.223 A 
ATOM      9  N   UNL     1       2.578  -0.336  -5.393  0.00  0.00    -0.220 NA
ATOM     10  C   UNL     1       2.090   0.320  -4.349  0.00  0.00    +0.134 A 
ATOM     11  N   UNL     1       2.359   1.662  -4.166  0.00  0.00    -0.296 N 
ATOM     12  H   UNL     1       2.076   2.106  -3.352  0.00  0.00    +0.154 HD
ENDROOT
BRANCH  11  13
ATOM     13  C   UNL     1       3.039   2.381  -5.157  0.00  0.00    +0.078 A 
ATOM     14  C   UNL     1       3.099   1.890  -6.454  0.00  0.00    +0.027 A 
ATOM     15  C   UNL     1       3.770   2.599  -7.431  0.00  0.00    +0.006 A 
ATOM     16  C   UNL     1       4.386   3.797  -7.121  0.00  0.00    +0.049 A 
ATOM     17  C   UNL     1       4.332   4.295  -5.826  0.00  0.00    +0.164 A 
ATOM     18  C   UNL     1       3.651   3.591  -4.843  0.00  0.00    +0.183 A 
ATOM     19  O   UNL     1       3.575   4.069  -3.569  0.00  0.00    -0.483 OA
ATOM     20  C   UNL     1       4.510   5.090  -3.208  0.00  0.00    +0.270 C 
ATOM     21  C   UNL     1       4.538   6.135  -4.332  0.00  0.00    +0.270 C 
ATOM     22  O   UNL     1       4.948   5.475  -5.538  0.00  0.00    -0.485 OA
ENDBRANCH  11  13
BRANCH   1  24
ATOM     23  C   UNL     1      -0.299   1.480  -0.161  0.00  0.00    +0.277 C 
ATOM     24  O   UNL     1      -0.576   0.090  -0.343  0.00  0.00    -0.491 OA
ENDBRANCH   1  24
BRANCH   6  25
ATOM     25  O   UNL     1      -1.038  -2.578  -0.798  0.00  0.00    -0.488 OA
BRANCH  25  26
ATOM     26  C   UNL     1      -1.242  -3.962  -1.090  0.00  0.00    +0.227 C 
BRANCH  26  27
ATOM     27  C   UNL     1      -2.120  -4.588  -0.004  0.00  0.00    +0.022 C 
BRANCH  27  28
ATOM     28  C   UNL     1      -2.339  -6.069  -0.316  0.00  0.00    -0.075 C 
BRANCH  28  29
ATOM     29  N   UNL     1      -3.182  -6.670   0.726  0.00  0.00    +0.383 N 
ATOM     30  C   UNL     1      -2.467  -6.645   2.009  0.00  0.00    -0.050 C 
ATOM     31  C   UNL     1      -3.347  -7.271   3.094  0.00  0.00    +0.141 C 
ATOM     32  O   UNL     1      -3.691  -8.606   2.710  0.00  0.00    -0.383 OA
ATOM     33  C   UNL     1      -4.370  -8.684   1.453  0.00  0.00    +0.141 C 
ATOM     34  C   UNL     1      -3.491  -8.061   0.365  0.00  0.00    -0.050 C 
ATOM     35  H   UNL     1      -4.040  -6.145   0.809  0.00  0.00    -0.082 HD
ENDBRANCH  28  29
ENDBRANCH  27  28
ENDBRANCH  26  27
ENDBRANCH  25  26
ENDBRANCH   6  25
TORSDOF 7
