REMARK  Name = CHEMBL526321
REMARK  10 active torsions:
REMARK  status: ('A' for Active; 'I' for Inactive)
REMARK    1  A    between atoms: C_1  and  N_2
REMARK    2  A    between atoms: N_5  and  C_8
REMARK    3  A    between atoms: C_8  and  C_9
REMARK    4  A    between atoms: C_9  and  C_10
REMARK    5  A    between atoms: C_10  and  O_11
REMARK    6  A    between atoms: O_11  and  C_12
REMARK    7  A    between atoms: C_17  and  O_18
REMARK    8  A    between atoms: O_18  and  C_19
REMARK    9  A    between atoms: C_20  and  N_26
REMARK   10  A    between atoms: C_21  and  C_24
REMARK                            x       y       z     vdW  Elec       q    Type
REMARK                         _______ _______ _______ _____ _____    ______ ____
ROOT
ATOM      1  C   UNL     1       3.687  -8.939   2.405  0.00  0.00    +0.164 A 
ATOM      2  C   UNL     1       2.588  -9.356   1.689  0.00  0.00    +0.077 A 
ATOM      3  C   UNL     1       1.798 -10.409   2.176  0.00  0.00    +0.077 A 
ATOM      4  C   UNL     1       2.149 -11.025   3.401  0.00  0.00    +0.027 A 
ATOM      5  C   UNL     1       3.275 -10.581   4.111  0.00  0.00    +0.061 A 
ATOM      6  C   UNL     1       4.031  -9.558   3.614  0.00  0.00    +0.162 A 
ATOM      7  C   UNL     1       1.352 -12.085   3.889  0.00  0.00    +0.062 A 
ATOM      8  C   UNL     1       0.242 -12.475   3.125  0.00  0.00    +0.092 A 
ATOM      9  C   UNL     1      -0.032 -11.807   1.920  0.00  0.00    +0.132 A 
ATOM     10  N   UNL     1       0.724 -10.829   1.492  0.00  0.00    -0.253 NA
ENDROOT
BRANCH   7  11
ATOM     11  N   UNL     1       1.656 -12.718   5.081  0.00  0.00    -0.283 N 
ATOM     12  C   UNL     1       1.954 -14.066   5.090  0.00  0.00    +0.198 A 
ATOM     13  N   UNL     1       1.871 -14.896   4.009  0.00  0.00    -0.326 N 
ATOM     14  H   UNL     1       1.596 -14.647   3.112  0.00  0.00    +0.169 HD
ATOM     15  C   UNL     1       2.251 -16.159   4.430  0.00  0.00    +0.067 A 
ATOM     16  C   UNL     1       2.366 -17.389   3.800  0.00  0.00    +0.028 A 
ATOM     17  C   UNL     1       2.783 -18.491   4.516  0.00  0.00    +0.002 A 
ATOM     18  C   UNL     1       3.089 -18.379   5.865  0.00  0.00    +0.002 A 
ATOM     19  C   UNL     1       2.980 -17.166   6.507  0.00  0.00    +0.030 A 
ATOM     20  C   UNL     1       2.560 -16.039   5.795  0.00  0.00    +0.091 A 
ATOM     21  N   UNL     1       2.364 -14.739   6.136  0.00  0.00    -0.214 NA
ATOM     22  H   UNL     1       1.659 -12.214   5.910  0.00  0.00    +0.155 HD
ENDBRANCH   7  11
BRANCH   6  23
ATOM     23  O   UNL     1       5.124  -9.133   4.302  0.00  0.00    -0.491 OA
ATOM     24  C   UNL     1       5.421  -9.805   5.528  0.00  0.00    +0.277 C 
ENDBRANCH   6  23
BRANCH   8  25
ATOM     25  C   UNL     1      -0.602 -13.543   3.568  0.00  0.00    +0.103 C 
ATOM     26  N   UNL     1      -1.272 -14.391   3.920  0.00  0.00    -0.191 NA
ENDBRANCH   8  25
BRANCH   1  27
ATOM     27  O   UNL     1       4.450  -7.919   1.931  0.00  0.00    -0.488 OA
BRANCH  27  28
ATOM     28  C   UNL     1       4.048  -7.329   0.694  0.00  0.00    +0.227 C 
BRANCH  28  29
ATOM     29  C   UNL     1       5.021  -6.207   0.325  0.00  0.00    +0.022 C 
BRANCH  29  30
ATOM     30  C   UNL     1       4.591  -5.575  -1.001  0.00  0.00    -0.075 C 
BRANCH  30  35
ATOM     31  C   UNL     1       8.292  -2.180  -3.555  0.00  0.00    +0.104 C 
ATOM     32  N   UNL     1       7.350  -3.232  -3.152  0.00  0.00    -0.309 NA
ATOM     33  C   UNL     1       6.008  -2.678  -2.922  0.00  0.00    +0.065 C 
ATOM     34  C   UNL     1       5.045  -3.812  -2.563  0.00  0.00    -0.063 C 
ATOM     35  N   UNL     1       5.524  -4.498  -1.355  0.00  0.00    +0.381 N 
ATOM     36  C   UNL     1       6.855  -5.067  -1.608  0.00  0.00    -0.063 C 
ATOM     37  C   UNL     1       7.832  -3.943  -1.959  0.00  0.00    +0.065 C 
ATOM     38  H   UNL     1       5.580  -3.837  -0.594  0.00  0.00    -0.082 HD
ENDBRANCH  30  35
ENDBRANCH  29  30
ENDBRANCH  28  29
ENDBRANCH  27  28
ENDBRANCH   1  27
TORSDOF 8
