REMARK  Name = CHEMBL355282
REMARK  9 active torsions:
REMARK  status: ('A' for Active; 'I' for Inactive)
REMARK    1  A    between atoms: C_1  and  N_2
REMARK    2  A    between atoms: C_10  and  N_11
REMARK    3  A    between atoms: C_15  and  O_32
REMARK    4  A    between atoms: C_16  and  O_22
REMARK    5  A    between atoms: O_22  and  C_23
REMARK    6  A    between atoms: C_23  and  C_24
REMARK    7  A    between atoms: C_24  and  C_25
REMARK    8  A    between atoms: C_25  and  N_26
REMARK    9  A    between atoms: O_32  and  C_33
REMARK                            x       y       z     vdW  Elec       q    Type
REMARK                         _______ _______ _______ _____ _____    ______ ____
ROOT
ATOM      1  N   UNL     1       0.068  -4.509   1.191  0.00  0.00    -0.298 N 
ATOM      2  C   UNL     1       0.190  -5.530   2.112  0.00  0.00    +0.134 A 
ATOM      3  C   UNL     1       0.320  -6.875   1.692  0.00  0.00    +0.044 A 
ATOM      4  C   UNL     1       0.332  -7.231   0.338  0.00  0.00    +0.062 A 
ATOM      5  C   UNL     1       0.460  -8.543  -0.016  0.00  0.00    +0.162 A 
ATOM      6  C   UNL     1       0.580  -9.540   0.962  0.00  0.00    +0.164 A 
ATOM      7  C   UNL     1       0.571  -9.217   2.301  0.00  0.00    +0.078 A 
ATOM      8  C   UNL     1       0.441  -7.877   2.686  0.00  0.00    +0.080 A 
ATOM      9  N   UNL     1       0.428  -7.510   3.977  0.00  0.00    -0.235 NA
ATOM     10  C   UNL     1       0.305  -6.246   4.308  0.00  0.00    +0.223 A 
ATOM     11  N   UNL     1       0.194  -5.276   3.414  0.00  0.00    -0.220 NA
ATOM     12  H   UNL     1       0.168  -4.695   0.244  0.00  0.00    +0.154 HD
ENDROOT
BRANCH   1  22
ATOM     13  C   UNL     1       0.295   1.518   0.372  0.00  0.00    +0.149 C 
ATOM     14  N   UNL     1       0.376   0.056   0.309  0.00  0.00    -0.350 N 
ATOM     15  C   UNL     1       0.932  -0.657  -0.719  0.00  0.00    +0.086 A 
ATOM     16  C   UNL     1       0.843  -1.972  -0.463  0.00  0.00    +0.029 A 
ATOM     17  C   UNL     1       0.175  -2.111   0.833  0.00  0.00    +0.021 A 
ATOM     18  C   UNL     1      -0.091  -0.805   1.277  0.00  0.00    +0.051 A 
ATOM     19  C   UNL     1      -0.725  -0.613   2.501  0.00  0.00    +0.026 A 
ATOM     20  C   UNL     1      -1.084  -1.699   3.270  0.00  0.00    +0.004 A 
ATOM     21  C   UNL     1      -0.821  -2.991   2.840  0.00  0.00    +0.024 A 
ATOM     22  C   UNL     1      -0.198  -3.208   1.623  0.00  0.00    +0.042 A 
ENDBRANCH   1  22
BRANCH   5  23
ATOM     23  O   UNL     1       0.471  -8.887  -1.331  0.00  0.00    -0.491 OA
ATOM     24  C   UNL     1       0.344  -7.827  -2.281  0.00  0.00    +0.277 C 
ENDBRANCH   5  23
BRANCH   6  25
ATOM     25  O   UNL     1       0.707 -10.840   0.586  0.00  0.00    -0.488 OA
BRANCH  25  26
ATOM     26  C   UNL     1       0.825 -11.809   1.629  0.00  0.00    +0.227 C 
BRANCH  26  27
ATOM     27  C   UNL     1       0.957 -13.204   1.016  0.00  0.00    +0.022 C 
BRANCH  27  28
ATOM     28  C   UNL     1       1.084 -14.242   2.133  0.00  0.00    -0.075 C 
BRANCH  28  29
ATOM     29  N   UNL     1       1.211 -15.582   1.545  0.00  0.00    +0.383 N 
ATOM     30  C   UNL     1      -0.029 -15.925   0.836  0.00  0.00    -0.050 C 
ATOM     31  C   UNL     1       0.105 -17.322   0.224  0.00  0.00    +0.141 C 
ATOM     32  O   UNL     1       0.397 -18.265   1.259  0.00  0.00    -0.383 OA
ATOM     33  C   UNL     1       1.585 -17.960   1.994  0.00  0.00    +0.141 C 
ATOM     34  C   UNL     1       1.453 -16.565   2.610  0.00  0.00    -0.050 C 
ATOM     35  H   UNL     1       1.984 -15.593   0.896  0.00  0.00    -0.082 HD
ENDBRANCH  28  29
ENDBRANCH  27  28
ENDBRANCH  26  27
ENDBRANCH  25  26
ENDBRANCH   6  25
TORSDOF 7
