REMARK  Name = CHEMBL196797
REMARK  12 active torsions:
REMARK  status: ('A' for Active; 'I' for Inactive)
REMARK    1  A    between atoms: C_1  and  C_2
REMARK    2  A    between atoms: C_5  and  O_36
REMARK    3  A    between atoms: C_7  and  N_8
REMARK    4  A    between atoms: N_8  and  C_9
REMARK    5  A    between atoms: C_14  and  O_34
REMARK    6  A    between atoms: C_15  and  O_25
REMARK    7  A    between atoms: C_22  and  C_23
REMARK    8  A    between atoms: O_25  and  C_26
REMARK    9  A    between atoms: C_26  and  C_27
REMARK   10  A    between atoms: C_27  and  N_28
REMARK   11  A    between atoms: O_34  and  C_35
REMARK   12  A    between atoms: O_36  and  C_37
REMARK                            x       y       z     vdW  Elec       q    Type
REMARK                         _______ _______ _______ _____ _____    ______ ____
ROOT
ATOM      1  C   UNL     1       0.326  -0.527   3.556  0.00  0.00    +0.060 A 
ATOM      2  C   UNL     1      -0.099   0.038   4.787  0.00  0.00    +0.023 A 
ATOM      3  C   UNL     1      -0.530   1.359   4.858  0.00  0.00    +0.020 A 
ATOM      4  C   UNL     1      -0.941   1.884   6.083  0.00  0.00    -0.013 A 
ATOM      5  C   UNL     1      -1.384   3.219   6.191  0.00  0.00    +0.058 A 
ATOM      6  C   UNL     1      -1.780   3.701   7.401  0.00  0.00    +0.162 A 
ATOM      7  C   UNL     1      -1.758   2.898   8.553  0.00  0.00    +0.163 A 
ATOM      8  C   UNL     1      -1.341   1.602   8.511  0.00  0.00    +0.058 A 
ATOM      9  C   UNL     1      -0.919   1.045   7.286  0.00  0.00    -0.012 A 
ATOM     10  C   UNL     1      -0.486  -0.279   7.210  0.00  0.00    +0.037 A 
ATOM     11  C   UNL     1      -0.076  -0.803   5.987  0.00  0.00    +0.073 A 
ATOM     12  N   UNL     1       0.344  -2.078   5.895  0.00  0.00    -0.254 NA
ATOM     13  C   UNL     1       0.734  -2.596   4.761  0.00  0.00    +0.132 A 
ATOM     14  C   UNL     1       0.740  -1.865   3.562  0.00  0.00    +0.091 A 
ENDROOT
BRANCH   1  15
ATOM     15  N   UNL     1       0.326   0.215   2.394  0.00  0.00    -0.313 N 
ATOM     16  H   UNL     1       0.406   1.180   2.435  0.00  0.00    +0.152 HD
BRANCH  15  23
ATOM     17  C   UNL     1      -2.149  -1.034   1.759  0.00  0.00    +0.046 C 
ATOM     18  C   UNL     1      -0.982  -1.048   0.805  0.00  0.00    -0.028 A 
ATOM     19  C   UNL     1      -1.099  -1.676  -0.420  0.00  0.00    +0.028 A 
ATOM     20  C   UNL     1      -0.030  -1.691  -1.296  0.00  0.00    +0.083 A 
ATOM     21  C   UNL     1       1.165  -1.075  -0.948  0.00  0.00    +0.140 A 
ATOM     22  C   UNL     1       1.286  -0.444   0.280  0.00  0.00    +0.070 A 
ATOM     23  C   UNL     1       0.209  -0.425   1.157  0.00  0.00    +0.038 A 
ATOM     24 CL   UNL     1      -0.181  -2.482  -2.834  0.00  0.00    -0.080 Cl
BRANCH  21  25
ATOM     25  O   UNL     1       2.216  -1.091  -1.810  0.00  0.00    -0.494 OA
ATOM     26  C   UNL     1       3.378  -0.350  -1.431  0.00  0.00    +0.277 C 
ENDBRANCH  21  25
ENDBRANCH  15  23
ENDBRANCH   1  15
BRANCH  14  27
ATOM     27  C   UNL     1       1.173  -2.486   2.346  0.00  0.00    +0.103 C 
ATOM     28  N   UNL     1       1.517  -2.979   1.382  0.00  0.00    -0.191 NA
ENDBRANCH  14  27
BRANCH   6  29
ATOM     29  O   UNL     1      -2.204   4.988   7.496  0.00  0.00    -0.491 OA
ATOM     30  C   UNL     1      -2.206   5.762   6.295  0.00  0.00    +0.277 C 
ENDBRANCH   6  29
BRANCH   7  31
ATOM     31  O   UNL     1      -2.163   3.426   9.737  0.00  0.00    -0.487 OA
BRANCH  31  32
ATOM     32  C   UNL     1      -2.122   2.567  10.879  0.00  0.00    +0.244 C 
BRANCH  32  33
ATOM     33  C   UNL     1      -2.610   3.333  12.110  0.00  0.00    +0.125 C 
BRANCH  33  34
ATOM     34  N   UNL     1      -4.028   3.680  11.941  0.00  0.00    -0.295 NA
ATOM     35  C   UNL     1      -4.411   4.781  12.836  0.00  0.00    +0.112 C 
ATOM     36  C   UNL     1      -5.875   5.149  12.585  0.00  0.00    +0.175 C 
ATOM     37  O   UNL     1      -6.692   3.990  12.772  0.00  0.00    -0.377 OA
ATOM     38  C   UNL     1      -6.347   2.898  11.915  0.00  0.00    +0.175 C 
ATOM     39  C   UNL     1      -4.887   2.507  12.160  0.00  0.00    +0.112 C 
ENDBRANCH  33  34
ENDBRANCH  32  33
ENDBRANCH  31  32
ENDBRANCH   7  31
TORSDOF 9
