REMARK  Name = CHEMBL97771
REMARK  7 active torsions:
REMARK  status: ('A' for Active; 'I' for Inactive)
REMARK    1  A    between atoms: C_1  and  O_2
REMARK    2  A    between atoms: O_2  and  C_3
REMARK    3  A    between atoms: C_8  and  O_9
REMARK    4  A    between atoms: O_9  and  C_10
REMARK    5  A    between atoms: N_15  and  C_16
REMARK    6  A    between atoms: C_19  and  O_22
REMARK    7  A    between atoms: O_22  and  C_23
REMARK                            x       y       z     vdW  Elec       q    Type
REMARK                         _______ _______ _______ _____ _____    ______ ____
ROOT
ATOM      1  C   UNL     1      -0.917  -0.057  -1.871  0.00  0.00    +0.162 A 
ATOM      2  C   UNL     1      -0.168   0.583  -2.818  0.00  0.00    +0.062 A 
ATOM      3  C   UNL     1       0.990  -0.028  -3.315  0.00  0.00    +0.044 A 
ATOM      4  C   UNL     1       1.378  -1.303  -2.833  0.00  0.00    +0.080 A 
ATOM      5  C   UNL     1       0.596  -1.940  -1.863  0.00  0.00    +0.078 A 
ATOM      6  C   UNL     1      -0.536  -1.315  -1.386  0.00  0.00    +0.164 A 
ATOM      7  N   UNL     1       2.493  -1.866  -3.326  0.00  0.00    -0.235 NA
ATOM      8  C   UNL     1       3.206  -1.245  -4.235  0.00  0.00    +0.223 A 
ATOM      9  N   UNL     1       2.883  -0.054  -4.713  0.00  0.00    -0.220 NA
ATOM     10  C   UNL     1       1.801   0.591  -4.295  0.00  0.00    +0.134 A 
ATOM     11  N   UNL     1       1.476   1.832  -4.804  0.00  0.00    -0.299 N 
ATOM     12  H   UNL     1       0.622   2.236  -4.586  0.00  0.00    +0.154 HD
ENDROOT
BRANCH  11  13
ATOM     13  C   UNL     1       2.380   2.508  -5.632  0.00  0.00    +0.033 A 
ATOM     14  C   UNL     1       2.422   3.896  -5.628  0.00  0.00    +0.027 A 
ATOM     15  C   UNL     1       3.314   4.562  -6.446  0.00  0.00    +0.048 A 
ATOM     16  C   UNL     1       4.167   3.844  -7.271  0.00  0.00    +0.129 A 
ATOM     17  C   UNL     1       4.125   2.457  -7.276  0.00  0.00    +0.048 A 
ATOM     18  C   UNL     1       3.238   1.790  -6.455  0.00  0.00    +0.027 A 
BRANCH  16  19
ATOM     19  O   UNL     1       5.044   4.500  -8.077  0.00  0.00    -0.456 OA
BRANCH  19  20
ATOM     20  C   UNL     1       5.183   5.842  -7.910  0.00  0.00    +0.128 A 
ATOM     21  C   UNL     1       5.945   6.337  -6.862  0.00  0.00    +0.046 A 
ATOM     22  C   UNL     1       6.085   7.701  -6.694  0.00  0.00    +0.004 A 
ATOM     23  C   UNL     1       5.464   8.573  -7.570  0.00  0.00    +0.000 A 
ATOM     24  C   UNL     1       4.704   8.082  -8.615  0.00  0.00    +0.004 A 
ATOM     25  C   UNL     1       4.566   6.719  -8.791  0.00  0.00    +0.046 A 
ENDBRANCH  19  20
ENDBRANCH  16  19
ENDBRANCH  11  13
BRANCH   1  27
ATOM     26  C   UNL     1      -2.377   1.820  -1.923  0.00  0.00    +0.277 C 
ATOM     27  O   UNL     1      -2.041   0.537  -1.390  0.00  0.00    -0.491 OA
ENDBRANCH   1  27
BRANCH   6  28
ATOM     28  O   UNL     1      -1.294  -1.929  -0.441  0.00  0.00    -0.491 OA
ATOM     29  C   UNL     1      -0.854  -3.210   0.013  0.00  0.00    +0.277 C 
ENDBRANCH   6  28
TORSDOF 5
