REMARK  Name = CHEMBL200217
REMARK  10 active torsions:
REMARK  status: ('A' for Active; 'I' for Inactive)
REMARK    1  A    between atoms: C_1  and  O_2
REMARK    2  A    between atoms: O_2  and  C_3
REMARK    3  A    between atoms: C_7  and  N_9
REMARK    4  A    between atoms: C_14  and  O_24
REMARK    5  A    between atoms: C_16  and  O_17
REMARK    6  A    between atoms: O_17  and  C_18
REMARK    7  A    between atoms: O_24  and  C_25
REMARK    8  A    between atoms: C_25  and  C_26
REMARK    9  A    between atoms: C_26  and  C_27
REMARK   10  A    between atoms: C_27  and  N_28
REMARK                            x       y       z     vdW  Elec       q    Type
REMARK                         _______ _______ _______ _____ _____    ______ ____
ROOT
ATOM      1  N   UNL     1      -2.484  -4.126   0.262  0.00  0.00    -0.298 N 
ATOM      2  C   UNL     1      -1.358  -4.844  -0.085  0.00  0.00    +0.137 A 
ATOM      3  C   UNL     1      -1.447  -6.212  -0.429  0.00  0.00    +0.082 A 
ATOM      4  C   UNL     1      -0.254  -6.894  -0.775  0.00  0.00    +0.083 A 
ATOM      5  C   UNL     1      -0.311  -8.248  -1.120  0.00  0.00    +0.074 A 
ATOM      6  C   UNL     1      -1.525  -8.904  -1.119  0.00  0.00    +0.126 A 
ATOM      7  C   UNL     1      -2.700  -8.234  -0.778  0.00  0.00    +0.092 A 
ATOM      8  C   UNL     1      -2.672  -6.899  -0.434  0.00  0.00    +0.137 A 
ATOM      9  N   UNL     1       0.904  -6.215  -0.762  0.00  0.00    -0.235 NA
ATOM     10  C   UNL     1       0.926  -4.945  -0.434  0.00  0.00    +0.223 A 
ATOM     11  N   UNL     1      -0.163  -4.267  -0.109  0.00  0.00    -0.220 NA
ATOM     12  H   UNL     1      -3.346  -4.569   0.306  0.00  0.00    +0.154 HD
ENDROOT
BRANCH   1  17
ATOM     13  C   UNL     1      -1.101  -0.891   1.339  0.00  0.00    +0.122 A 
ATOM     14  C   UNL     1      -2.188  -0.057   1.118  0.00  0.00    +0.047 A 
ATOM     15  C   UNL     1      -3.367  -0.572   0.614  0.00  0.00    +0.025 A 
ATOM     16  C   UNL     1      -3.468  -1.921   0.329  0.00  0.00    +0.062 A 
ATOM     17  C   UNL     1      -2.382  -2.762   0.549  0.00  0.00    +0.054 A 
ATOM     18  C   UNL     1      -1.196  -2.243   1.050  0.00  0.00    +0.070 A 
ATOM     19 CL   UNL     1      -4.950  -2.566  -0.303  0.00  0.00    -0.082 Cl
BRANCH  13  21
ATOM     20  C   UNL     1       0.084   1.020   2.111  0.00  0.00    +0.277 C 
ATOM     21  O   UNL     1       0.057  -0.382   1.835  0.00  0.00    -0.495 OA
ENDBRANCH  13  21
ENDBRANCH   1  17
BRANCH   8  22
ATOM     22  O   UNL     1      -3.820  -6.254  -0.103  0.00  0.00    -0.488 OA
BRANCH  22  23
ATOM     23  C   UNL     1      -5.004  -7.047  -0.002  0.00  0.00    +0.178 C 
ATOM     24  C   UNL     1      -5.631  -7.210  -1.390  0.00  0.00    +0.072 C 
ATOM     25  C   UNL     1      -6.940  -7.994  -1.261  0.00  0.00    +0.163 C 
ATOM     26  O   UNL     1      -7.817  -7.310  -0.363  0.00  0.00    -0.380 OA
ATOM     27  C   UNL     1      -7.303  -7.170   0.962  0.00  0.00    +0.163 C 
ATOM     28  C   UNL     1      -6.008  -6.353   0.922  0.00  0.00    +0.072 C 
ENDBRANCH  22  23
ENDBRANCH   8  22
BRANCH   6  29
ATOM     29  O   UNL     1      -1.577 -10.219  -1.454  0.00  0.00    -0.492 OA
BRANCH  29  30
ATOM     30  C   UNL     1      -0.341 -10.851  -1.794  0.00  0.00    +0.230 C 
BRANCH  30  31
ATOM     31  C   UNL     1      -0.597 -12.319  -2.140  0.00  0.00    +0.056 C 
BRANCH  31  32
ATOM     32  C   UNL     1       0.726 -12.996  -2.504  0.00  0.00    +0.088 C 
BRANCH  32  33
ATOM     33  N   UNL     1       0.480 -14.406  -2.837  0.00  0.00    -0.298 NA
ATOM     34  C   UNL     1       0.025 -15.154  -1.655  0.00  0.00    +0.112 C 
ATOM     35  C   UNL     1      -0.276 -16.600  -2.059  0.00  0.00    +0.175 C 
ATOM     36  O   UNL     1       0.891 -17.177  -2.650  0.00  0.00    -0.377 OA
ATOM     37  C   UNL     1       1.361 -16.474  -3.803  0.00  0.00    +0.175 C 
ATOM     38  C   UNL     1       1.679 -15.027  -3.417  0.00  0.00    +0.112 C 
ENDBRANCH  32  33
ENDBRANCH  31  32
ENDBRANCH  30  31
ENDBRANCH  29  30
ENDBRANCH   6  29
TORSDOF 9
