REMARK  Name = CHEMBL567875
REMARK  9 active torsions:
REMARK  status: ('A' for Active; 'I' for Inactive)
REMARK    1  A    between atoms: C_1  and  N_2
REMARK    2  A    between atoms: N_5  and  C_8
REMARK    3  A    between atoms: C_8  and  C_9
REMARK    4  A    between atoms: C_12  and  C_15
REMARK    5  A    between atoms: C_23  and  C_36
REMARK    6  A    between atoms: C_24  and  N_25
REMARK    7  A    between atoms: N_25  and  C_26
REMARK    8  A    between atoms: C_28  and  O_34
REMARK    9  A    between atoms: O_34  and  C_35
REMARK                            x       y       z     vdW  Elec       q    Type
REMARK                         _______ _______ _______ _____ _____    ______ ____
ROOT
ATOM      1  C   UNL     1       1.383  -6.697   5.975  0.00  0.00    +0.002 A 
ATOM      2  C   UNL     1       2.751  -6.799   6.269  0.00  0.00    +0.011 A 
ATOM      3  C   UNL     1       3.174  -6.972   7.550  0.00  0.00    +0.012 A 
ATOM      4  C   UNL     1       2.239  -7.050   8.592  0.00  0.00    +0.023 A 
ATOM      5  C   UNL     1       0.855  -6.948   8.311  0.00  0.00    +0.073 A 
ATOM      6  C   UNL     1       0.439  -6.765   6.984  0.00  0.00    +0.038 A 
ATOM      7  N   UNL     1      -0.043  -7.022   9.304  0.00  0.00    -0.254 NA
ATOM      8  C   UNL     1       0.314  -7.187  10.552  0.00  0.00    +0.132 A 
ATOM      9  C   UNL     1       1.664  -7.298  10.923  0.00  0.00    +0.091 A 
ATOM     10  C   UNL     1       2.655  -7.229   9.933  0.00  0.00    +0.060 A 
ENDROOT
BRANCH   1  14
ATOM     11  C   UNL     1       0.109  -6.163   2.002  0.00  0.00    -0.015 A 
ATOM     12  C   UNL     1       1.471  -6.265   2.248  0.00  0.00    +0.008 A 
ATOM     13  C   UNL     1       1.895  -6.441   3.554  0.00  0.00    +0.029 A 
ATOM     14  C   UNL     1       0.945  -6.509   4.571  0.00  0.00    +0.071 A 
ATOM     15  N   UNL     1      -0.348  -6.408   4.293  0.00  0.00    -0.255 NA
ATOM     16  C   UNL     1      -0.778  -6.234   3.060  0.00  0.00    +0.116 A 
BRANCH  11  17
ATOM     17  C   UNL     1      -0.398  -5.971   0.596  0.00  0.00    +0.121 C 
BRANCH  17  22
ATOM     18  C   UNL     1      -0.083  -0.756  -1.515  0.00  0.00    -0.096 C 
ATOM     19  N   UNL     1       0.031  -2.199  -1.264  0.00  0.00    +0.379 N 
ATOM     20  C   UNL     1      -1.310  -2.794  -1.211  0.00  0.00    -0.064 C 
ATOM     21  C   UNL     1      -1.191  -4.300  -0.968  0.00  0.00    +0.066 C 
ATOM     22  N   UNL     1      -0.483  -4.535   0.298  0.00  0.00    -0.302 NA
ATOM     23  C   UNL     1       0.853  -3.923   0.269  0.00  0.00    +0.066 C 
ATOM     24  C   UNL     1       0.717  -2.420   0.016  0.00  0.00    -0.064 C 
ATOM     25  H   UNL     1       0.561  -2.629  -2.007  0.00  0.00    -0.082 HD
ENDBRANCH  17  22
ENDBRANCH  11  17
ENDBRANCH   1  14
BRANCH  10  26
ATOM     26  N   UNL     1       3.993  -7.334  10.255  0.00  0.00    -0.312 N 
ATOM     27  H   UNL     1       4.666  -6.972   9.657  0.00  0.00    +0.152 HD
BRANCH  26  28
ATOM     28  C   UNL     1       4.378  -7.961  11.444  0.00  0.00    +0.053 A 
ATOM     29  C   UNL     1       4.965  -7.220  12.462  0.00  0.00    +0.071 A 
ATOM     30  C   UNL     1       5.346  -7.844  13.639  0.00  0.00    +0.140 A 
ATOM     31  C   UNL     1       5.140  -9.209  13.799  0.00  0.00    +0.084 A 
ATOM     32  C   UNL     1       4.556  -9.945  12.785  0.00  0.00    +0.045 A 
ATOM     33  C   UNL     1       4.169  -9.325  11.611  0.00  0.00    +0.064 A 
ATOM     34 CL   UNL     1       3.429 -10.251  10.343  0.00  0.00    -0.082 Cl
ATOM     35 CL   UNL     1       5.618  -9.990  15.273  0.00  0.00    -0.080 Cl
BRANCH  30  36
ATOM     36  O   UNL     1       5.921  -7.122  14.636  0.00  0.00    -0.494 OA
ATOM     37  C   UNL     1       5.998  -5.707  14.451  0.00  0.00    +0.277 C 
ENDBRANCH  30  36
ENDBRANCH  26  28
ENDBRANCH  10  26
BRANCH   9  38
ATOM     38  C   UNL     1       2.024  -7.478  12.297  0.00  0.00    +0.103 C 
ATOM     39  N   UNL     1       2.310  -7.621  13.387  0.00  0.00    -0.191 NA
ENDBRANCH   9  38
TORSDOF 7
