REMARK  Name = CHEMBL197186
REMARK  10 active torsions:
REMARK  status: ('A' for Active; 'I' for Inactive)
REMARK    1  A    between atoms: C_1  and  O_2
REMARK    2  A    between atoms: O_2  and  C_3
REMARK    3  A    between atoms: C_5  and  N_10
REMARK    4  A    between atoms: C_15  and  O_25
REMARK    5  A    between atoms: C_17  and  O_18
REMARK    6  A    between atoms: O_18  and  C_19
REMARK    7  A    between atoms: O_25  and  C_26
REMARK    8  A    between atoms: C_26  and  C_27
REMARK    9  A    between atoms: C_27  and  C_28
REMARK   10  A    between atoms: C_28  and  N_29
REMARK                            x       y       z     vdW  Elec       q    Type
REMARK                         _______ _______ _______ _____ _____    ______ ____
ROOT
ATOM      1  N   UNL     1       1.092  -4.054  -2.388  0.00  0.00    -0.297 N 
ATOM      2  C   UNL     1       0.865  -4.819  -1.262  0.00  0.00    +0.137 A 
ATOM      3  C   UNL     1       1.256  -6.176  -1.216  0.00  0.00    +0.082 A 
ATOM      4  C   UNL     1       0.995  -6.910  -0.032  0.00  0.00    +0.083 A 
ATOM      5  C   UNL     1       1.370  -8.255   0.042  0.00  0.00    +0.074 A 
ATOM      6  C   UNL     1       1.990  -8.852  -1.037  0.00  0.00    +0.126 A 
ATOM      7  C   UNL     1       2.247  -8.132  -2.204  0.00  0.00    +0.092 A 
ATOM      8  C   UNL     1       1.887  -6.805  -2.303  0.00  0.00    +0.137 A 
ATOM      9  N   UNL     1       0.390  -6.286   0.992  0.00  0.00    -0.235 NA
ATOM     10  C   UNL     1       0.049  -5.023   0.893  0.00  0.00    +0.223 A 
ATOM     11  N   UNL     1       0.278  -4.299  -0.191  0.00  0.00    -0.220 NA
ATOM     12  H   UNL     1       1.574  -4.430  -3.141  0.00  0.00    +0.154 HD
ENDROOT
BRANCH   1  15
ATOM     13  C   UNL     1      -0.922  -1.032  -1.800  0.00  0.00    +0.216 A 
ATOM     14  C   UNL     1      -0.494  -2.349  -1.719  0.00  0.00    +0.092 A 
ATOM     15  C   UNL     1       0.629  -2.740  -2.442  0.00  0.00    +0.058 A 
ATOM     16  C   UNL     1       1.280  -1.783  -3.224  0.00  0.00    +0.080 A 
ATOM     17  C   UNL     1       0.793  -0.493  -3.253  0.00  0.00    +0.136 A 
ATOM     18  N   UNL     1      -0.279  -0.158  -2.558  0.00  0.00    -0.220 NA
ATOM     19 CL   UNL     1       2.686  -2.212  -4.148  0.00  0.00    -0.080 Cl
BRANCH  13  21
ATOM     20  C   UNL     1      -2.410   0.730  -1.229  0.00  0.00    +0.279 C 
ATOM     21  O   UNL     1      -2.015  -0.638  -1.100  0.00  0.00    -0.480 OA
ENDBRANCH  13  21
ENDBRANCH   1  15
BRANCH   8  22
ATOM     22  O   UNL     1       2.141  -6.111  -3.442  0.00  0.00    -0.488 OA
BRANCH  22  23
ATOM     23  C   UNL     1       2.667  -6.848  -4.547  0.00  0.00    +0.178 C 
ATOM     24  C   UNL     1       4.187  -6.974  -4.402  0.00  0.00    +0.072 C 
ATOM     25  C   UNL     1       4.750  -7.696  -5.629  0.00  0.00    +0.163 C 
ATOM     26  O   UNL     1       4.393  -6.976  -6.810  0.00  0.00    -0.380 OA
ATOM     27  C   UNL     1       2.984  -6.866  -7.023  0.00  0.00    +0.163 C 
ATOM     28  C   UNL     1       2.349  -6.111  -5.852  0.00  0.00    +0.072 C 
ENDBRANCH  22  23
ENDBRANCH   8  22
BRANCH   6  29
ATOM     29  O   UNL     1       2.353 -10.159  -0.962  0.00  0.00    -0.492 OA
BRANCH  29  30
ATOM     30  C   UNL     1       2.063 -10.844   0.258  0.00  0.00    +0.227 C 
BRANCH  30  31
ATOM     31  C   UNL     1       2.541 -12.293   0.155  0.00  0.00    +0.022 C 
BRANCH  31  32
ATOM     32  C   UNL     1       2.231 -13.027   1.461  0.00  0.00    -0.075 C 
BRANCH  32  33
ATOM     33  N   UNL     1       2.691 -14.419   1.362  0.00  0.00    +0.383 N 
ATOM     34  C   UNL     1       1.914 -15.119   0.330  0.00  0.00    -0.050 C 
ATOM     35  C   UNL     1       2.394 -16.569   0.229  0.00  0.00    +0.141 C 
ATOM     36  O   UNL     1       2.261 -17.200   1.506  0.00  0.00    -0.383 OA
ATOM     37  C   UNL     1       2.982 -16.540   2.550  0.00  0.00    +0.141 C 
ATOM     38  C   UNL     1       2.502 -15.090   2.656  0.00  0.00    -0.050 C 
ATOM     39  H   UNL     1       3.669 -14.433   1.115  0.00  0.00    -0.082 HD
ENDBRANCH  32  33
ENDBRANCH  31  32
ENDBRANCH  30  31
ENDBRANCH  29  30
ENDBRANCH   6  29
TORSDOF 9
