REMARK  Name = CHEMBL83847
REMARK  9 active torsions:
REMARK  status: ('A' for Active; 'I' for Inactive)
REMARK    1  A    between atoms: C_1  and  C_2
REMARK    2  A    between atoms: C_2  and  N_3
REMARK    3  A    between atoms: N_3  and  C_4
REMARK    4  A    between atoms: C_4  and  C_5
REMARK    5  A    between atoms: N_10  and  C_17
REMARK    6  A    between atoms: C_13  and  S_15
REMARK    7  A    between atoms: S_15  and  C_16
REMARK    8  A    between atoms: C_17  and  C_18
REMARK    9  A    between atoms: C_18  and  C_19
REMARK                            x       y       z     vdW  Elec       q    Type
REMARK                         _______ _______ _______ _____ _____    ______ ____
ROOT
ATOM      1  N   UNL     1       0.688  -0.476  -1.203  0.00  0.00    -0.315 N 
ATOM      2  C   UNL     1      -0.029  -0.765  -2.348  0.00  0.00    +0.136 A 
ATOM      3  C   UNL     1       0.623  -1.226  -3.510  0.00  0.00    +0.078 A 
ATOM      4  C   UNL     1       1.965  -1.500  -3.849  0.00  0.00    +0.148 A 
ATOM      5  N   UNL     1       2.003  -1.911  -5.085  0.00  0.00    -0.177 NA
ATOM      6  N   UNL     1       0.707  -1.927  -5.616  0.00  0.00    -0.245 N 
ATOM      7  C   UNL     1      -0.156  -1.505  -4.649  0.00  0.00    +0.164 A 
ATOM      8  N   UNL     1      -1.474  -1.324  -4.588  0.00  0.00    -0.202 NA
ATOM      9  C   UNL     1      -2.044  -0.890  -3.476  0.00  0.00    +0.192 A 
ATOM     10  N   UNL     1      -1.348  -0.619  -2.377  0.00  0.00    -0.206 NA
ENDROOT
BRANCH   1  12
ATOM     11  C   UNL     1       2.610  -1.972  -0.980  0.00  0.00    +0.024 C 
ATOM     12  C   UNL     1       2.152  -0.532  -1.222  0.00  0.00    +0.103 C 
ENDBRANCH   1  12
BRANCH   1  13
ATOM     13  C   UNL     1      -0.016  -0.115   0.030  0.00  0.00    +0.103 C 
ATOM     14  C   UNL     1      -0.154   1.407   0.111  0.00  0.00    +0.024 C 
ENDBRANCH   1  13
BRANCH   9  15
ATOM     15  S   UNL     1      -3.792  -0.668  -3.449  0.00  0.00    -0.089 S 
ATOM     16  C   UNL     1      -4.322  -1.151  -5.115  0.00  0.00    +0.093 C 
ENDBRANCH   9  15
BRANCH   6  17
ATOM     17  C   UNL     1       0.342  -2.330  -6.976  0.00  0.00    +0.169 C 
BRANCH  17  18
ATOM     18  C   UNL     1       0.048  -3.831  -7.003  0.00  0.00    +0.132 C 
ATOM     19 CL   UNL     1       1.556  -4.745  -6.624  0.00  0.00    -0.115 Cl
BRANCH  18  20
ATOM     20  C   UNL     1      -0.445  -4.222  -8.372  0.00  0.00    -0.028 A 
ATOM     21  C   UNL     1       0.395  -4.121  -9.465  0.00  0.00    +0.005 A 
ATOM     22  C   UNL     1      -0.058  -4.480 -10.721  0.00  0.00    +0.000 A 
ATOM     23  C   UNL     1      -1.351  -4.941 -10.883  0.00  0.00    +0.000 A 
ATOM     24  C   UNL     1      -2.191  -5.043  -9.791  0.00  0.00    +0.000 A 
ATOM     25  C   UNL     1      -1.737  -4.688  -8.534  0.00  0.00    +0.005 A 
ENDBRANCH  18  20
ENDBRANCH  17  18
ENDBRANCH   6  17
TORSDOF 6
