REMARK  Name = CHEMBL212629
REMARK  12 active torsions:
REMARK  status: ('A' for Active; 'I' for Inactive)
REMARK    1  A    between atoms: C_1  and  N_2
REMARK    2  A    between atoms: N_5  and  C_8
REMARK    3  A    between atoms: C_8  and  C_9
REMARK    4  A    between atoms: C_12  and  C_15
REMARK    5  A    between atoms: C_16  and  C_17
REMARK    6  A    between atoms: C_22  and  O_23
REMARK    7  A    between atoms: O_23  and  C_24
REMARK    8  A    between atoms: C_25  and  N_31
REMARK    9  A    between atoms: C_26  and  C_29
REMARK   10  A    between atoms: N_31  and  C_32
REMARK   11  A    between atoms: C_34  and  O_40
REMARK   12  A    between atoms: O_40  and  C_41
REMARK                            x       y       z     vdW  Elec       q    Type
REMARK                         _______ _______ _______ _____ _____    ______ ____
ROOT
ATOM      1  C   UNL     1       5.078  -4.307  11.464  0.00  0.00    +0.069 A 
ATOM      2  C   UNL     1       5.428  -5.396  10.679  0.00  0.00    +0.049 A 
ATOM      3  C   UNL     1       4.876  -6.655  10.954  0.00  0.00    +0.074 A 
ATOM      4  C   UNL     1       3.967  -6.792  12.031  0.00  0.00    +0.026 A 
ATOM      5  C   UNL     1       3.627  -5.678  12.813  0.00  0.00    +0.058 A 
ATOM      6  C   UNL     1       4.176  -4.460  12.538  0.00  0.00    +0.136 A 
ATOM      7  C   UNL     1       3.414  -8.066  12.303  0.00  0.00    +0.060 A 
ATOM      8  C   UNL     1       3.798  -9.136  11.482  0.00  0.00    +0.091 A 
ATOM      9  C   UNL     1       4.706  -8.908  10.434  0.00  0.00    +0.132 A 
ATOM     10  N   UNL     1       5.204  -7.720  10.205  0.00  0.00    -0.254 NA
ENDROOT
BRANCH   1  12
ATOM     11  C   UNL     1       6.102  -1.964  10.958  0.00  0.00    -0.041 C 
ATOM     12  C   UNL     1       5.641  -3.019  11.186  0.00  0.00    -0.056 C 
BRANCH  11  16
ATOM     13  C   UNL     1       7.719   1.784  10.175  0.00  0.00    -0.015 A 
ATOM     14  C   UNL     1       8.093   0.724   9.360  0.00  0.00    +0.009 A 
ATOM     15  C   UNL     1       7.558  -0.526   9.616  0.00  0.00    +0.037 A 
ATOM     16  C   UNL     1       6.665  -0.677  10.680  0.00  0.00    +0.114 A 
ATOM     17  N   UNL     1       6.333   0.365  11.435  0.00  0.00    -0.246 NA
ATOM     18  C   UNL     1       6.834   1.564  11.215  0.00  0.00    +0.117 A 
BRANCH  13  19
ATOM     19  C   UNL     1       8.277   3.163   9.932  0.00  0.00    +0.121 C 
BRANCH  19  24
ATOM     20  C   UNL     1      13.498   4.144  11.810  0.00  0.00    -0.096 C 
ATOM     21  N   UNL     1      12.282   3.994  11.000  0.00  0.00    +0.379 N 
ATOM     22  C   UNL     1      11.229   4.871  11.531  0.00  0.00    -0.064 C 
ATOM     23  C   UNL     1       9.968   4.729  10.676  0.00  0.00    +0.066 C 
ATOM     24  N   UNL     1       9.520   3.329  10.697  0.00  0.00    -0.302 NA
ATOM     25  C   UNL     1      10.573   2.437  10.191  0.00  0.00    +0.066 C 
ATOM     26  C   UNL     1      11.830   2.598  11.050  0.00  0.00    -0.064 C 
ATOM     27  H   UNL     1      12.481   4.249  10.044  0.00  0.00    -0.082 HD
ENDBRANCH  19  24
ENDBRANCH  13  19
ENDBRANCH  11  16
ENDBRANCH   1  12
BRANCH   6  28
ATOM     28  O   UNL     1       3.848  -3.385  13.301  0.00  0.00    -0.494 OA
ATOM     29  C   UNL     1       2.929  -3.606  14.373  0.00  0.00    +0.277 C 
ENDBRANCH   6  28
BRANCH   8  30
ATOM     30  C   UNL     1       3.271 -10.448  11.709  0.00  0.00    +0.103 C 
ATOM     31  N   UNL     1       2.853 -11.489  11.889  0.00  0.00    -0.191 NA
ENDBRANCH   8  30
BRANCH   7  32
ATOM     32  N   UNL     1       2.524  -8.250  13.343  0.00  0.00    -0.312 N 
ATOM     33  H   UNL     1       1.570  -8.251  13.170  0.00  0.00    +0.152 HD
BRANCH  32  34
ATOM     34  C   UNL     1       2.999  -8.433  14.645  0.00  0.00    +0.053 A 
ATOM     35  C   UNL     1       4.356  -8.314  14.913  0.00  0.00    +0.071 A 
ATOM     36  C   UNL     1       4.824  -8.496  16.205  0.00  0.00    +0.140 A 
ATOM     37  C   UNL     1       3.935  -8.797  17.228  0.00  0.00    +0.084 A 
ATOM     38  C   UNL     1       2.584  -8.915  16.960  0.00  0.00    +0.045 A 
ATOM     39  C   UNL     1       2.113  -8.729  15.674  0.00  0.00    +0.064 A 
ATOM     40 CL   UNL     1       0.415  -8.872  15.342  0.00  0.00    -0.082 Cl
ATOM     41 CL   UNL     1       4.521  -9.024  18.846  0.00  0.00    -0.080 Cl
BRANCH  36  42
ATOM     42  O   UNL     1       6.152  -8.380  16.470  0.00  0.00    -0.494 OA
ATOM     43  C   UNL     1       6.993  -7.952  15.396  0.00  0.00    +0.277 C 
ENDBRANCH  36  42
ENDBRANCH  32  34
ENDBRANCH   7  32
TORSDOF 9
