REMARK  Name = CHEMBL567875
REMARK  9 active torsions:
REMARK  status: ('A' for Active; 'I' for Inactive)
REMARK    1  A    between atoms: C_1  and  N_2
REMARK    2  A    between atoms: N_5  and  C_8
REMARK    3  A    between atoms: C_8  and  C_9
REMARK    4  A    between atoms: C_12  and  C_15
REMARK    5  A    between atoms: C_23  and  C_36
REMARK    6  A    between atoms: C_24  and  N_25
REMARK    7  A    between atoms: N_25  and  C_26
REMARK    8  A    between atoms: C_28  and  O_34
REMARK    9  A    between atoms: O_34  and  C_35
REMARK                            x       y       z     vdW  Elec       q    Type
REMARK                         _______ _______ _______ _____ _____    ______ ____
ROOT
ATOM      1  C   UNL     1       1.674  -6.963   5.543  0.00  0.00    +0.002 A 
ATOM      2  C   UNL     1       3.053  -7.030   5.798  0.00  0.00    +0.011 A 
ATOM      3  C   UNL     1       3.515  -7.268   7.054  0.00  0.00    +0.012 A 
ATOM      4  C   UNL     1       2.611  -7.449   8.112  0.00  0.00    +0.023 A 
ATOM      5  C   UNL     1       1.217  -7.384   7.870  0.00  0.00    +0.073 A 
ATOM      6  C   UNL     1       0.760  -7.132   6.568  0.00  0.00    +0.038 A 
ATOM      7  N   UNL     1       0.348  -7.555   8.877  0.00  0.00    -0.254 NA
ATOM      8  C   UNL     1       0.744  -7.786  10.103  0.00  0.00    +0.132 A 
ATOM      9  C   UNL     1       2.105  -7.867  10.434  0.00  0.00    +0.091 A 
ATOM     10  C   UNL     1       3.068  -7.697   9.427  0.00  0.00    +0.060 A 
ENDROOT
BRANCH   1  14
ATOM     11  C   UNL     1       0.279  -6.226   1.644  0.00  0.00    -0.046 A 
ATOM     12  C   UNL     1       1.650  -6.291   1.851  0.00  0.00    +0.005 A 
ATOM     13  C   UNL     1       2.114  -6.533   3.132  0.00  0.00    +0.028 A 
ATOM     14  C   UNL     1       1.193  -6.703   4.165  0.00  0.00    +0.071 A 
ATOM     15  N   UNL     1      -0.110  -6.634   3.925  0.00  0.00    -0.255 NA
ATOM     16  C   UNL     1      -0.578  -6.399   2.716  0.00  0.00    +0.113 A 
BRANCH  11  17
ATOM     17  C   UNL     1      -0.271  -5.964   0.266  0.00  0.00    -0.041 C 
BRANCH  17  22
ATOM     18  C   UNL     1      -0.029  -0.667  -1.638  0.00  0.00    +0.104 C 
ATOM     19  N   UNL     1       0.086  -2.110  -1.391  0.00  0.00    -0.309 NA
ATOM     20  C   UNL     1      -1.233  -2.759  -1.433  0.00  0.00    +0.065 C 
ATOM     21  C   UNL     1      -1.063  -4.266  -1.231  0.00  0.00    -0.063 C 
ATOM     22  N   UNL     1      -0.417  -4.517   0.064  0.00  0.00    +0.384 N 
ATOM     23  C   UNL     1       0.908  -3.884   0.082  0.00  0.00    -0.063 C 
ATOM     24  C   UNL     1       0.755  -2.373  -0.109  0.00  0.00    +0.065 C 
ATOM     25  H   UNL     1      -0.984  -4.130   0.803  0.00  0.00    -0.081 HD
ENDBRANCH  17  22
ENDBRANCH  11  17
ENDBRANCH   1  14
BRANCH  10  26
ATOM     26  N   UNL     1       4.416  -7.770   9.711  0.00  0.00    -0.312 N 
ATOM     27  H   UNL     1       5.059  -7.346   9.122  0.00  0.00    +0.152 HD
BRANCH  26  28
ATOM     28  C   UNL     1       4.856  -8.456  10.848  0.00  0.00    +0.053 A 
ATOM     29  C   UNL     1       5.441  -7.760  11.897  0.00  0.00    +0.071 A 
ATOM     30  C   UNL     1       5.875  -8.443  13.022  0.00  0.00    +0.140 A 
ATOM     31  C   UNL     1       5.724  -9.822  13.098  0.00  0.00    +0.084 A 
ATOM     32  C   UNL     1       5.141 -10.514  12.052  0.00  0.00    +0.045 A 
ATOM     33  C   UNL     1       4.702  -9.835  10.931  0.00  0.00    +0.064 A 
ATOM     34 CL   UNL     1       3.964 -10.707   9.623  0.00  0.00    -0.082 Cl
ATOM     35 CL   UNL     1       6.269 -10.677  14.507  0.00  0.00    -0.080 Cl
BRANCH  30  36
ATOM     36  O   UNL     1       6.448  -7.764  14.050  0.00  0.00    -0.494 OA
ATOM     37  C   UNL     1       6.467  -6.338  13.956  0.00  0.00    +0.277 C 
ENDBRANCH  30  36
ENDBRANCH  26  28
ENDBRANCH  10  26
BRANCH   9  38
ATOM     38  C   UNL     1       2.508  -8.121  11.785  0.00  0.00    +0.103 C 
ATOM     39  N   UNL     1       2.827  -8.322  12.856  0.00  0.00    -0.191 NA
ENDBRANCH   9  38
TORSDOF 7
