REMARK  Name = CHEMBL217463
REMARK  7 active torsions:
REMARK  status: ('A' for Active; 'I' for Inactive)
REMARK    1  A    between atoms: C_4  and  N_10
REMARK    2  A    between atoms: C_15  and  O_25
REMARK    3  A    between atoms: C_17  and  O_18
REMARK    4  A    between atoms: O_18  and  C_19
REMARK    5  A    between atoms: O_25  and  C_26
REMARK    6  A    between atoms: C_26  and  C_27
REMARK    7  A    between atoms: C_27  and  C_28
REMARK                            x       y       z     vdW  Elec       q    Type
REMARK                         _______ _______ _______ _____ _____    ______ ____
ROOT
ATOM      1  N   UNL     1       3.676  -0.665   0.161  0.00  0.00    -0.295 N 
ATOM      2  C   UNL     1       4.846   0.066   0.141  0.00  0.00    +0.138 A 
ATOM      3  C   UNL     1       6.078  -0.547  -0.182  0.00  0.00    +0.082 A 
ATOM      4  C   UNL     1       7.245   0.257  -0.186  0.00  0.00    +0.083 A 
ATOM      5  C   UNL     1       8.479  -0.321  -0.502  0.00  0.00    +0.074 A 
ATOM      6  C   UNL     1       8.546  -1.666  -0.805  0.00  0.00    +0.126 A 
ATOM      7  C   UNL     1       7.398  -2.458  -0.803  0.00  0.00    +0.092 A 
ATOM      8  C   UNL     1       6.170  -1.913  -0.495  0.00  0.00    +0.137 A 
ATOM      9  N   UNL     1       7.131   1.560   0.116  0.00  0.00    -0.235 NA
ATOM     10  C   UNL     1       5.960   2.075   0.409  0.00  0.00    +0.223 A 
ATOM     11  N   UNL     1       4.844   1.364   0.419  0.00  0.00    -0.220 NA
ATOM     12  H   UNL     1       3.677  -1.590  -0.129  0.00  0.00    +0.154 HD
ENDROOT
BRANCH   1  16
ATOM     13  C   UNL     1       0.131   1.113   1.462  0.00  0.00    +0.051 A 
ATOM     14  C   UNL     1       0.715   1.519   0.277  0.00  0.00    +0.025 A 
ATOM     15  C   UNL     1       1.889   0.932  -0.156  0.00  0.00    +0.066 A 
ATOM     16  C   UNL     1       2.486  -0.069   0.600  0.00  0.00    +0.097 A 
ATOM     17  C   UNL     1       1.901  -0.480   1.792  0.00  0.00    +0.189 A 
ATOM     18  C   UNL     1       0.719   0.114   2.223  0.00  0.00    +0.168 A 
ATOM     19  O   UNL     1       0.350  -0.456   3.408  0.00  0.00    -0.453 OA
ATOM     20  C   UNL     1       1.096  -1.685   3.492  0.00  0.00    +0.466 C 
ATOM     21  O   UNL     1       2.274  -1.424   2.706  0.00  0.00    -0.451 OA
ATOM     22 CL   UNL     1       2.618   1.446  -1.646  0.00  0.00    -0.081 Cl
ENDBRANCH   1  16
BRANCH   8  23
ATOM     23  O   UNL     1       5.058  -2.691  -0.493  0.00  0.00    -0.488 OA
BRANCH  23  24
ATOM     24  C   UNL     1       5.245  -4.091  -0.712  0.00  0.00    +0.178 C 
ATOM     25  C   UNL     1       5.285  -4.374  -2.217  0.00  0.00    +0.072 C 
ATOM     26  C   UNL     1       5.406  -5.883  -2.441  0.00  0.00    +0.163 C 
ATOM     27  O   UNL     1       4.309  -6.547  -1.810  0.00  0.00    -0.380 OA
ATOM     28  C   UNL     1       4.248  -6.358  -0.395  0.00  0.00    +0.163 C 
ATOM     29  C   UNL     1       4.080  -4.867  -0.088  0.00  0.00    +0.072 C 
ENDBRANCH  23  24
ENDBRANCH   8  23
BRANCH   6  30
ATOM     30  O   UNL     1       9.745  -2.224  -1.111  0.00  0.00    -0.491 OA
BRANCH  30  31
ATOM     31  C   UNL     1      10.885  -1.362  -1.098  0.00  0.00    +0.233 C 
BRANCH  31  32
ATOM     32  C   UNL     1      12.135  -2.164  -1.465  0.00  0.00    +0.076 C 
BRANCH  32  33
ATOM     33  C   UNL     1      13.337  -1.255  -1.451  0.00  0.00    -0.041 A 
ATOM     34  C   UNL     1      13.723  -0.571  -2.594  0.00  0.00    +0.023 A 
ATOM     35  C   UNL     1      14.831   0.254  -2.543  0.00  0.00    +0.111 A 
ATOM     36  N   UNL     1      15.517   0.394  -1.426  0.00  0.00    -0.263 NA
ATOM     37  C   UNL     1      15.179  -0.241  -0.320  0.00  0.00    +0.111 A 
ATOM     38  C   UNL     1      14.080  -1.078  -0.293  0.00  0.00    +0.023 A 
ENDBRANCH  32  33
ENDBRANCH  31  32
ENDBRANCH  30  31
ENDBRANCH   6  30
TORSDOF 7
