REMARK  Name = CHEMBL227836
REMARK  8 active torsions:
REMARK  status: ('A' for Active; 'I' for Inactive)
REMARK    1  A    between atoms: C_1  and  C_2
REMARK    2  A    between atoms: C_6  and  C_33
REMARK    3  A    between atoms: C_7  and  N_8
REMARK    4  A    between atoms: C_15  and  C_18
REMARK    5  A    between atoms: C_21  and  O_24
REMARK    6  A    between atoms: O_24  and  C_25
REMARK    7  A    between atoms: C_25  and  C_26
REMARK    8  A    between atoms: C_26  and  N_27
REMARK                            x       y       z     vdW  Elec       q    Type
REMARK                         _______ _______ _______ _____ _____    ______ ____
ROOT
ATOM      1  N   UNL     1      -0.113   0.122   2.735  0.00  0.00    -0.297 N 
ATOM      2  C   UNL     1      -0.376  -0.607   3.883  0.00  0.00    +0.149 A 
ATOM      3  C   UNL     1      -0.263   0.003   5.153  0.00  0.00    +0.106 A 
ATOM      4  C   UNL     1       0.075   1.263   5.594  0.00  0.00    +0.142 A 
ATOM      5  N   UNL     1       0.008   1.252   6.926  0.00  0.00    -0.243 NA
ATOM      6  C   UNL     1      -0.351   0.062   7.344  0.00  0.00    +0.204 A 
ATOM      7  N   UNL     1      -0.530  -0.746   6.285  0.00  0.00    -0.294 N 
ATOM      8  C   UNL     1      -0.901  -2.071   6.133  0.00  0.00    +0.073 A 
ATOM      9  C   UNL     1      -0.993  -2.603   4.885  0.00  0.00    +0.139 A 
ATOM     10  N   UNL     1      -0.739  -1.873   3.796  0.00  0.00    -0.236 NA
ATOM     11  H   UNL     1       0.121   1.062   2.800  0.00  0.00    +0.154 HD
ENDROOT
BRANCH   1  18
ATOM     12  C   UNL     1       2.308  -0.277   1.295  0.00  0.00    +0.045 C 
ATOM     13  C   UNL     1       0.973  -0.710   0.746  0.00  0.00    -0.029 A 
ATOM     14  C   UNL     1       0.899  -1.325  -0.488  0.00  0.00    +0.005 A 
ATOM     15  C   UNL     1      -0.326  -1.722  -0.993  0.00  0.00    +0.001 A 
ATOM     16  C   UNL     1      -1.481  -1.504  -0.264  0.00  0.00    +0.005 A 
ATOM     17  C   UNL     1      -1.414  -0.890   0.971  0.00  0.00    -0.029 A 
ATOM     18  C   UNL     1      -0.185  -0.495   1.484  0.00  0.00    +0.038 A 
ATOM     19  C   UNL     1      -2.673  -0.653   1.765  0.00  0.00    +0.045 C 
ENDBRANCH   1  18
BRANCH   8  20
ATOM     20  C   UNL     1      -1.194  -2.901   7.318  0.00  0.00    +0.001 A 
ATOM     21  C   UNL     1      -2.290  -2.600   8.131  0.00  0.00    +0.013 A 
ATOM     22  C   UNL     1      -2.560  -3.379   9.236  0.00  0.00    +0.046 A 
ATOM     23  C   UNL     1      -1.744  -4.461   9.542  0.00  0.00    +0.121 A 
ATOM     24  C   UNL     1      -0.654  -4.763   8.737  0.00  0.00    +0.046 A 
ATOM     25  C   UNL     1      -0.380  -3.994   7.626  0.00  0.00    +0.013 A 
BRANCH  23  26
ATOM     26  O   UNL     1      -2.014  -5.225  10.632  0.00  0.00    -0.491 OA
BRANCH  26  27
ATOM     27  C   UNL     1      -1.135  -6.322  10.889  0.00  0.00    +0.244 C 
BRANCH  27  28
ATOM     28  C   UNL     1      -1.595  -7.060  12.148  0.00  0.00    +0.125 C 
BRANCH  28  29
ATOM     29  N   UNL     1      -2.928  -7.634  11.920  0.00  0.00    -0.295 NA
ATOM     30  C   UNL     1      -3.595  -7.939  13.194  0.00  0.00    +0.112 C 
ATOM     31  C   UNL     1      -5.000  -8.477  12.912  0.00  0.00    +0.175 C 
ATOM     32  O   UNL     1      -4.905  -9.624  12.062  0.00  0.00    -0.377 OA
ATOM     33  C   UNL     1      -4.261  -9.363  10.813  0.00  0.00    +0.175 C 
ATOM     34  C   UNL     1      -2.848  -8.833  11.073  0.00  0.00    +0.112 C 
ENDBRANCH  28  29
ENDBRANCH  27  28
ENDBRANCH  26  27
ENDBRANCH  23  26
ENDBRANCH   8  20
TORSDOF 6
