REMARK  Name = CHEMBL306019
REMARK  7 active torsions:
REMARK  status: ('A' for Active; 'I' for Inactive)
REMARK    1  A    between atoms: C_3  and  C_25
REMARK    2  A    between atoms: C_6  and  C_7
REMARK    3  A    between atoms: C_7  and  N_8
REMARK    4  A    between atoms: C_11  and  O_24
REMARK    5  A    between atoms: C_12  and  O_23
REMARK    6  A    between atoms: C_17  and  O_22
REMARK    7  A    between atoms: C_18  and  O_21
REMARK                            x       y       z     vdW  Elec       q    Type
REMARK                         _______ _______ _______ _____ _____    ______ ____
ROOT
ATOM      1  N   UNL     1      -1.729  -1.013  -1.367  0.00  0.00    -0.332 N 
ATOM      2  C   UNL     1      -2.538  -0.163  -2.104  0.00  0.00    +0.054 A 
ATOM      3  C   UNL     1      -3.130   1.059  -1.802  0.00  0.00    +0.075 A 
ATOM      4  C   UNL     1      -3.906   1.705  -2.745  0.00  0.00    +0.160 A 
ATOM      5  C   UNL     1      -4.100   1.141  -4.006  0.00  0.00    +0.159 A 
ATOM      6  C   UNL     1      -3.518  -0.071  -4.319  0.00  0.00    +0.059 A 
ATOM      7  C   UNL     1      -2.734  -0.729  -3.372  0.00  0.00    +0.011 A 
ATOM      8  C   UNL     1      -1.989  -2.002  -3.384  0.00  0.00    +0.012 A 
ATOM      9  C   UNL     1      -1.385  -2.122  -2.125  0.00  0.00    +0.096 A 
ATOM     10  C   UNL     1      -0.601  -3.240  -1.847  0.00  0.00    +0.183 A 
ATOM     11  C   UNL     1      -0.423  -4.218  -2.815  0.00  0.00    +0.160 A 
ATOM     12  C   UNL     1      -1.022  -4.091  -4.062  0.00  0.00    +0.050 A 
ATOM     13  C   UNL     1      -1.807  -2.994  -4.346  0.00  0.00    +0.014 A 
ENDROOT
BRANCH  11  14
ATOM     14  O   UNL     1       0.343  -5.309  -2.541  0.00  0.00    -0.503 OA
ATOM     15  H   UNL     1      -0.150  -6.050  -2.162  0.00  0.00    +0.292 HD
ENDBRANCH  11  14
BRANCH  10  16
ATOM     16  O   UNL     1      -0.010  -3.373  -0.628  0.00  0.00    -0.502 OA
ATOM     17  H   UNL     1      -0.553  -3.837   0.024  0.00  0.00    +0.292 HD
ENDBRANCH  10  16
BRANCH   5  18
ATOM     18  O   UNL     1      -4.865   1.785  -4.928  0.00  0.00    -0.503 OA
ATOM     19  H   UNL     1      -4.371   2.394  -5.494  0.00  0.00    +0.292 HD
ENDBRANCH   5  18
BRANCH   4  20
ATOM     20  O   UNL     1      -4.483   2.899  -2.443  0.00  0.00    -0.503 OA
ATOM     21  H   UNL     1      -3.934   3.666  -2.655  0.00  0.00    +0.292 HD
ENDBRANCH   4  20
BRANCH   1  22
ATOM     22  C   UNL     1      -1.295  -0.772   0.011  0.00  0.00    +0.157 C 
BRANCH  22  28
ATOM     23  C   UNL     1      -0.017   1.379   0.010  0.00  0.00    +0.006 A 
ATOM     24  C   UNL     1       1.167   2.088   0.002  0.00  0.00    +0.019 A 
ATOM     25  C   UNL     1       2.385   1.407  -0.013  0.00  0.00    +0.052 A 
ATOM     26  C   UNL     1       2.397   0.011  -0.021  0.00  0.00    +0.019 A 
ATOM     27  C   UNL     1       1.206  -0.686  -0.013  0.00  0.00    +0.006 A 
ATOM     28  C   UNL     1       0.002  -0.004   0.002  0.00  0.00    -0.028 A 
BRANCH  25  29
ATOM     29  C   UNL     1       3.617   2.136  -0.021  0.00  0.00    +0.099 C 
ATOM     30  N   UNL     1       4.595   2.715  -0.028  0.00  0.00    -0.191 NA
ENDBRANCH  25  29
ENDBRANCH  22  28
ENDBRANCH   1  22
TORSDOF 7
