REMARK  Name = CHEMBL393150
REMARK  10 active torsions:
REMARK  status: ('A' for Active; 'I' for Inactive)
REMARK    1  A    between atoms: C_1  and  N_2
REMARK    2  A    between atoms: N_5  and  C_8
REMARK    3  A    between atoms: C_8  and  C_9
REMARK    4  A    between atoms: C_9  and  C_10
REMARK    5  A    between atoms: C_11  and  C_12
REMARK    6  A    between atoms: C_18  and  N_24
REMARK    7  A    between atoms: C_19  and  C_22
REMARK    8  A    between atoms: N_24  and  C_25
REMARK    9  A    between atoms: C_27  and  O_33
REMARK   10  A    between atoms: O_33  and  C_34
REMARK                            x       y       z     vdW  Elec       q    Type
REMARK                         _______ _______ _______ _____ _____    ______ ____
ROOT
ATOM      1  C   UNL     1       3.596 -11.609   2.845  0.00  0.00    +0.026 A 
ATOM      2  C   UNL     1       3.058 -12.298   1.744  0.00  0.00    +0.019 A 
ATOM      3  C   UNL     1       1.753 -12.676   1.728  0.00  0.00    +0.029 A 
ATOM      4  C   UNL     1       0.918 -12.381   2.820  0.00  0.00    +0.073 A 
ATOM      5  C   UNL     1       1.452 -11.687   3.933  0.00  0.00    +0.024 A 
ATOM      6  C   UNL     1       2.799 -11.308   3.939  0.00  0.00    +0.028 A 
ATOM      7  C   UNL     1       0.606 -11.392   5.030  0.00  0.00    +0.060 A 
ATOM      8  C   UNL     1      -0.732 -11.808   4.954  0.00  0.00    +0.091 A 
ATOM      9  C   UNL     1      -1.174 -12.491   3.810  0.00  0.00    +0.132 A 
ATOM     10  N   UNL     1      -0.370 -12.750   2.811  0.00  0.00    -0.254 NA
ENDROOT
BRANCH   1  12
ATOM     11  C   UNL     1       6.104 -10.904   2.833  0.00  0.00    -0.096 C 
ATOM     12  C   UNL     1       4.974 -11.222   2.838  0.00  0.00    -0.066 C 
BRANCH  11  13
ATOM     13  C   UNL     1       7.521 -10.505   2.827  0.00  0.00    +0.104 C 
BRANCH  13  14
ATOM     14  C   UNL     1       8.171 -10.953   1.516  0.00  0.00    +0.097 C 
BRANCH  14  19
ATOM     15  C   UNL     1      13.785 -10.578   1.219  0.00  0.00    -0.096 C 
ATOM     16  N   UNL     1      12.387 -11.027   1.212  0.00  0.00    +0.379 N 
ATOM     17  C   UNL     1      11.635 -10.272   0.202  0.00  0.00    -0.064 C 
ATOM     18  C   UNL     1      10.182 -10.753   0.182  0.00  0.00    +0.066 C 
ATOM     19  N   UNL     1       9.585 -10.555   1.510  0.00  0.00    -0.305 NA
ATOM     20  C   UNL     1      10.342 -11.286   2.536  0.00  0.00    +0.066 C 
ATOM     21  C   UNL     1      11.794 -10.800   2.537  0.00  0.00    -0.064 C 
ATOM     22  H   UNL     1      12.351 -12.011   0.992  0.00  0.00    -0.082 HD
ENDBRANCH  14  19
ENDBRANCH  13  14
ENDBRANCH  11  13
ENDBRANCH   1  12
BRANCH   8  23
ATOM     23  C   UNL     1      -1.636 -11.539   6.031  0.00  0.00    +0.103 C 
ATOM     24  N   UNL     1      -2.353 -11.326   6.886  0.00  0.00    -0.191 NA
ENDBRANCH   8  23
BRANCH   7  25
ATOM     25  N   UNL     1       1.081 -10.718   6.136  0.00  0.00    -0.312 N 
ATOM     26  H   UNL     1       0.947  -9.761   6.215  0.00  0.00    +0.152 HD
BRANCH  25  27
ATOM     27  C   UNL     1       1.756 -11.416   7.142  0.00  0.00    +0.053 A 
ATOM     28  C   UNL     1       2.054 -12.762   6.976  0.00  0.00    +0.071 A 
ATOM     29  C   UNL     1       2.723 -13.450   7.975  0.00  0.00    +0.140 A 
ATOM     30  C   UNL     1       3.095 -12.793   9.140  0.00  0.00    +0.084 A 
ATOM     31  C   UNL     1       2.798 -11.452   9.306  0.00  0.00    +0.045 A 
ATOM     32  C   UNL     1       2.135 -10.761   8.308  0.00  0.00    +0.064 A 
ATOM     33 CL   UNL     1       1.771  -9.076   8.515  0.00  0.00    -0.082 Cl
ATOM     34 CL   UNL     1       3.932 -13.656  10.392  0.00  0.00    -0.080 Cl
BRANCH  29  35
ATOM     35  O   UNL     1       3.015 -14.768   7.814  0.00  0.00    -0.494 OA
ATOM     36  C   UNL     1       2.710 -15.350   6.545  0.00  0.00    +0.277 C 
ENDBRANCH  29  35
ENDBRANCH  25  27
ENDBRANCH   7  25
TORSDOF 8
