REMARK  Name = CHEMBL220931
REMARK  10 active torsions:
REMARK  status: ('A' for Active; 'I' for Inactive)
REMARK    1  A    between atoms: C_1  and  C_2
REMARK    2  A    between atoms: C_6  and  C_37
REMARK    3  A    between atoms: C_7  and  C_8
REMARK    4  A    between atoms: C_10  and  C_36
REMARK    5  A    between atoms: N_18  and  C_19
REMARK    6  A    between atoms: C_23  and  N_25
REMARK    7  A    between atoms: N_25  and  S_26
REMARK    8  A    between atoms: S_26  and  C_29
REMARK    9  A    between atoms: C_29  and  C_30
REMARK   10  A    between atoms: C_30  and  N_31
REMARK                            x       y       z     vdW  Elec       q    Type
REMARK                         _______ _______ _______ _____ _____    ______ ____
ROOT
ATOM      1  C   UNL     1       0.083   0.114   2.447  0.00  0.00    -0.015 A 
ATOM      2  C   UNL     1       1.048  -0.206   3.416  0.00  0.00    +0.014 A 
ATOM      3  C   UNL     1       1.032   0.386   4.639  0.00  0.00    -0.022 A 
ATOM      4  C   UNL     1       0.041   1.332   4.946  0.00  0.00    +0.097 A 
ATOM      5  C   UNL     1      -0.940   1.664   3.974  0.00  0.00    +0.112 A 
ATOM      6  C   UNL     1      -0.903   1.045   2.716  0.00  0.00    +0.040 A 
ATOM      7  N   UNL     1      -1.877   2.568   4.283  0.00  0.00    -0.144 NA
ATOM      8  N   UNL     1      -1.877   3.119   5.448  0.00  0.00    -0.112 NA
ATOM      9  C   UNL     1      -0.962   2.819   6.373  0.00  0.00    +0.240 A 
ATOM     10  N   UNL     1      -0.007   1.936   6.139  0.00  0.00    -0.211 NA
ATOM     11  N   UNL     1      -1.015   3.446   7.606  0.00  0.00    -0.282 N 
ATOM     12  C   UNL     1       2.077   0.027   5.664  0.00  0.00    +0.046 C 
ATOM     13  H   UNL     1      -0.312   3.297   8.257  0.00  0.00    +0.155 HD
ENDROOT
BRANCH   1  20
ATOM     14  C   UNL     1       0.621   1.684   0.077  0.00  0.00    +0.044 C 
ATOM     15  C   UNL     1       0.383   0.200  -0.027  0.00  0.00    -0.042 A 
ATOM     16  C   UNL     1       0.426  -0.423  -1.258  0.00  0.00    +0.004 A 
ATOM     17  C   UNL     1       0.209  -1.786  -1.355  0.00  0.00    +0.001 A 
ATOM     18  C   UNL     1      -0.053  -2.532  -0.220  0.00  0.00    +0.004 A 
ATOM     19  C   UNL     1      -0.099  -1.920   1.016  0.00  0.00    -0.042 A 
ATOM     20  C   UNL     1       0.125  -0.548   1.120  0.00  0.00    -0.012 A 
ATOM     21  C   UNL     1      -0.385  -2.735   2.251  0.00  0.00    +0.044 C 
ENDBRANCH   1  20
BRANCH  11  22
ATOM     22  C   UNL     1      -2.083   4.294   7.913  0.00  0.00    +0.035 A 
ATOM     23  C   UNL     1      -3.371   3.967   7.505  0.00  0.00    +0.023 A 
ATOM     24  C   UNL     1      -4.427   4.804   7.809  0.00  0.00    +0.004 A 
ATOM     25  C   UNL     1      -4.207   5.970   8.517  0.00  0.00    +0.027 A 
ATOM     26  C   UNL     1      -2.922   6.303   8.927  0.00  0.00    +0.076 A 
ATOM     27  C   UNL     1      -1.860   5.462   8.629  0.00  0.00    +0.050 A 
BRANCH  26  28
ATOM     28  N   UNL     1      -2.701   7.482   9.643  0.00  0.00    -0.103 NA
BRANCH  28  29
ATOM     29  S   UNL     1      -3.970   8.482  10.004  0.00  0.00    +0.061 S 
ATOM     30  O   UNL     1      -4.446   8.934   8.743  0.00  0.00    -0.154 OA
ATOM     31  O   UNL     1      -4.804   7.715  10.861  0.00  0.00    -0.154 OA
BRANCH  29  32
ATOM     32  C   UNL     1      -3.231   9.861  10.922  0.00  0.00    +0.172 C 
BRANCH  32  33
ATOM     33  C   UNL     1      -4.323  10.859  11.312  0.00  0.00    -0.054 C 
BRANCH  33  34
ATOM     34  N   UNL     1      -3.724  11.975  12.056  0.00  0.00    +0.381 N 
ATOM     35  C   UNL     1      -2.869  12.790  11.155  0.00  0.00    -0.079 C 
ATOM     36  C   UNL     1      -2.792  14.157  11.881  0.00  0.00    -0.020 C 
ATOM     37  C   UNL     1      -4.213  14.317  12.468  0.00  0.00    -0.020 C 
ATOM     38  C   UNL     1      -4.781  12.888  12.543  0.00  0.00    -0.079 C 
ATOM     39  H   UNL     1      -3.181  11.626  12.831  0.00  0.00    -0.082 HD
ENDBRANCH  33  34
ENDBRANCH  32  33
ENDBRANCH  29  32
ENDBRANCH  28  29
ENDBRANCH  26  28
ENDBRANCH  11  22
TORSDOF 7
