REMARK  Name = CHEMBL326041
REMARK  4 active torsions:
REMARK  status: ('A' for Active; 'I' for Inactive)
REMARK    1  A    between atoms: C_1  and  N_2
REMARK    2  A    between atoms: C_6  and  C_9
REMARK    3  A    between atoms: N_21  and  C_22
REMARK    4  A    between atoms: C_22  and  C_23
REMARK                            x       y       z     vdW  Elec       q    Type
REMARK                         _______ _______ _______ _____ _____    ______ ____
ROOT
ATOM      1  C   UNL     1      -0.018   1.461   0.010  0.00  0.00    +0.154 C 
ATOM      2  N   UNL     1       0.002  -0.004   0.002  0.00  0.00    -0.295 N 
ATOM      3  C   UNL     1      -1.181  -0.699   0.004  0.00  0.00    +0.148 A 
ATOM      4  C   UNL     1      -1.179  -2.111  -0.004  0.00  0.00    +0.037 A 
ATOM      5  C   UNL     1       0.043  -2.821  -0.013  0.00  0.00    +0.027 A 
ATOM      6  C   UNL     1       1.218  -2.119  -0.015  0.00  0.00    +0.050 A 
ATOM      7  C   UNL     1       1.181  -0.655  -0.013  0.00  0.00    +0.260 A 
ATOM      8  O   UNL     1       2.222  -0.022  -0.020  0.00  0.00    -0.267 OA
ATOM      9  C   UNL     1      -2.410  -2.783  -0.002  0.00  0.00    +0.126 A 
ATOM     10  N   UNL     1      -3.520  -2.069   0.007  0.00  0.00    -0.222 NA
ATOM     11  C   UNL     1      -3.484  -0.741   0.014  0.00  0.00    +0.217 A 
ATOM     12  N   UNL     1      -2.346  -0.062   0.013  0.00  0.00    -0.196 NA
ATOM     13  N   UNL     1      -4.675  -0.043   0.022  0.00  0.00    -0.308 N 
ATOM     14  H   UNL     1      -4.668   0.927   0.028  0.00  0.00    +0.149 HD
ENDROOT
BRANCH   6  15
ATOM     15  C   UNL     1       2.516  -2.833  -0.025  0.00  0.00    +0.024 A 
ATOM     16  C   UNL     1       3.133  -3.183   1.177  0.00  0.00    +0.050 A 
ATOM     17  C   UNL     1       4.342  -3.849   1.161  0.00  0.00    +0.021 A 
ATOM     18  C   UNL     1       4.943  -4.170  -0.043  0.00  0.00    +0.003 A 
ATOM     19  C   UNL     1       4.337  -3.827  -1.238  0.00  0.00    +0.021 A 
ATOM     20  C   UNL     1       3.124  -3.166  -1.236  0.00  0.00    +0.050 A 
ATOM     21 CL   UNL     1       2.362  -2.742  -2.737  0.00  0.00    -0.083 Cl
ATOM     22 CL   UNL     1       2.381  -2.780   2.689  0.00  0.00    -0.083 Cl
ENDBRANCH   6  15
BRANCH  13  23
ATOM     23  C   UNL     1      -5.948  -0.767   0.024  0.00  0.00    +0.160 C 
BRANCH  23  24
ATOM     24  C   UNL     1      -7.087   0.220   0.034  0.00  0.00    +0.058 A 
ATOM     25  C   UNL     1      -7.680   0.591  -1.159  0.00  0.00    +0.025 A 
ATOM     26  C   UNL     1      -8.727   1.499  -1.139  0.00  0.00    +0.003 A 
ATOM     27  C   UNL     1      -9.140   2.003   0.086  0.00  0.00    +0.020 A 
ATOM     28  C   UNL     1      -8.499   1.586   1.236  0.00  0.00    +0.111 A 
ATOM     29  N   UNL     1      -7.510   0.716   1.180  0.00  0.00    -0.258 NA
ENDBRANCH  23  24
ENDBRANCH  13  23
TORSDOF 3
