REMARK  Name = CHEMBL193695
REMARK  9 active torsions:
REMARK  status: ('A' for Active; 'I' for Inactive)
REMARK    1  A    between atoms: C_1  and  N_2
REMARK    2  A    between atoms: N_5  and  C_8
REMARK    3  A    between atoms: C_8  and  C_9
REMARK    4  A    between atoms: C_13  and  C_15
REMARK    5  A    between atoms: C_20  and  N_26
REMARK    6  A    between atoms: C_21  and  C_24
REMARK    7  A    between atoms: N_26  and  C_27
REMARK    8  A    between atoms: C_29  and  O_35
REMARK    9  A    between atoms: O_35  and  C_36
REMARK                            x       y       z     vdW  Elec       q    Type
REMARK                         _______ _______ _______ _____ _____    ______ ____
ROOT
ATOM      1  C   UNL     1       6.506  -2.076   3.962  0.00  0.00    +0.040 A 
ATOM      2  C   UNL     1       6.510  -2.873   2.861  0.00  0.00    +0.046 A 
ATOM      3  C   UNL     1       6.806  -4.241   2.983  0.00  0.00    +0.081 A 
ATOM      4  C   UNL     1       7.085  -4.683   4.295  0.00  0.00    +0.061 A 
ATOM      5  S   UNL     1       6.935  -3.210   5.272  0.00  0.00    -0.083 S 
ATOM      6  C   UNL     1       7.395  -6.003   4.574  0.00  0.00    +0.066 A 
ATOM      7  C   UNL     1       7.425  -6.913   3.496  0.00  0.00    +0.092 A 
ATOM      8  C   UNL     1       7.140  -6.424   2.214  0.00  0.00    +0.132 A 
ATOM      9  N   UNL     1       6.853  -5.171   1.996  0.00  0.00    -0.253 NA
ENDROOT
BRANCH   1  14
ATOM     10  C   UNL     1       5.793   1.370   2.977  0.00  0.00    +0.026 A 
ATOM     11  C   UNL     1       5.703   2.042   4.183  0.00  0.00    +0.021 A 
ATOM     12  C   UNL     1       5.883   1.343   5.368  0.00  0.00    +0.004 A 
ATOM     13  C   UNL     1       6.147  -0.014   5.301  0.00  0.00    +0.029 A 
ATOM     14  C   UNL     1       6.224  -0.628   4.051  0.00  0.00    +0.078 A 
ATOM     15  N   UNL     1       6.041   0.077   2.941  0.00  0.00    -0.253 NA
BRANCH  10  16
ATOM     16  C   UNL     1       5.598   2.127   1.689  0.00  0.00    -0.022 C 
BRANCH  16  21
ATOM     17  C   UNL     1      10.162   2.999  -1.500  0.00  0.00    +0.104 C 
ATOM     18  N   UNL     1       8.867   2.619  -0.920  0.00  0.00    -0.309 NA
ATOM     19  C   UNL     1       8.073   3.808  -0.578  0.00  0.00    +0.065 C 
ATOM     20  C   UNL     1       6.712   3.370  -0.034  0.00  0.00    -0.063 C 
ATOM     21  N   UNL     1       6.906   2.532   1.156  0.00  0.00    +0.385 N 
ATOM     22  C   UNL     1       7.679   1.336   0.794  0.00  0.00    -0.063 C 
ATOM     23  C   UNL     1       9.049   1.757   0.257  0.00  0.00    +0.065 C 
ATOM     24  H   UNL     1       7.407   3.056   1.858  0.00  0.00    -0.081 HD
ENDBRANCH  16  21
ENDBRANCH  10  16
ENDBRANCH   1  14
BRANCH   7  25
ATOM     25  C   UNL     1       7.738  -8.295   3.705  0.00  0.00    +0.103 C 
ATOM     26  N   UNL     1       7.986  -9.391   3.872  0.00  0.00    -0.191 NA
ENDBRANCH   7  25
BRANCH   6  27
ATOM     27  N   UNL     1       7.667  -6.417   5.869  0.00  0.00    -0.311 N 
ATOM     28  H   UNL     1       8.562  -6.323   6.230  0.00  0.00    +0.152 HD
BRANCH  27  29
ATOM     29  C   UNL     1       6.651  -6.970   6.654  0.00  0.00    +0.054 A 
ATOM     30  C   UNL     1       5.397  -7.204   6.105  0.00  0.00    +0.071 A 
ATOM     31  C   UNL     1       4.392  -7.751   6.886  0.00  0.00    +0.140 A 
ATOM     32  C   UNL     1       4.640  -8.065   8.216  0.00  0.00    +0.084 A 
ATOM     33  C   UNL     1       5.888  -7.831   8.762  0.00  0.00    +0.045 A 
ATOM     34  C   UNL     1       6.895  -7.290   7.984  0.00  0.00    +0.064 A 
ATOM     35 CL   UNL     1       8.464  -7.005   8.671  0.00  0.00    -0.082 Cl
ATOM     36 CL   UNL     1       3.380  -8.750   9.194  0.00  0.00    -0.080 Cl
BRANCH  31  37
ATOM     37  O   UNL     1       3.164  -7.981   6.350  0.00  0.00    -0.494 OA
ATOM     38  C   UNL     1       2.945  -7.532   5.011  0.00  0.00    +0.277 C 
ENDBRANCH  31  37
ENDBRANCH  27  29
ENDBRANCH   6  27
TORSDOF 7
