REMARK  Name = CHEMBL371688
REMARK  11 active torsions:
REMARK  status: ('A' for Active; 'I' for Inactive)
REMARK    1  A    between atoms: C_1  and  C_2
REMARK    2  A    between atoms: C_2  and  C_3
REMARK    3  A    between atoms: C_2  and  O_4
REMARK    4  A    between atoms: O_4  and  C_5
REMARK    5  A    between atoms: C_7  and  O_25
REMARK    6  A    between atoms: C_20  and  O_22
REMARK    7  A    between atoms: O_22  and  C_23
REMARK    8  A    between atoms: O_25  and  C_26
REMARK    9  A    between atoms: C_26  and  C_27
REMARK   10  A    between atoms: C_27  and  N_28
REMARK   11  A    between atoms: N_31  and  C_34
REMARK                            x       y       z     vdW  Elec       q    Type
REMARK                         _______ _______ _______ _____ _____    ______ ____
ROOT
ATOM      1  C   UNL     1      -1.259  -1.661  -0.718  0.00  0.00    +0.137 A 
ATOM      2  C   UNL     1      -0.252  -2.370  -1.337  0.00  0.00    +0.092 A 
ATOM      3  C   UNL     1      -0.534  -3.548  -2.030  0.00  0.00    +0.126 A 
ATOM      4  C   UNL     1      -1.825  -4.029  -2.112  0.00  0.00    +0.074 A 
ATOM      5  C   UNL     1      -2.866  -3.329  -1.493  0.00  0.00    +0.083 A 
ATOM      6  C   UNL     1      -2.580  -2.136  -0.784  0.00  0.00    +0.082 A 
ATOM      7  C   UNL     1      -3.651  -1.454  -0.165  0.00  0.00    +0.139 A 
ATOM      8  N   UNL     1      -4.870  -1.968  -0.274  0.00  0.00    -0.220 NA
ATOM      9  C   UNL     1      -5.090  -3.089  -0.942  0.00  0.00    +0.223 A 
ATOM     10  N   UNL     1      -4.137  -3.758  -1.546  0.00  0.00    -0.235 NA
ATOM     11  N   UNL     1      -3.436  -0.283   0.536  0.00  0.00    -0.282 N 
ATOM     12  C   UNL     1      -4.483   0.313   1.233  0.00  0.00    +0.146 A 
ATOM     13  C   UNL     1      -4.260   1.495   1.932  0.00  0.00    +0.081 A 
ATOM     14  C   UNL     1      -5.309   2.080   2.623  0.00  0.00    +0.028 A 
ATOM     15  C   UNL     1      -6.549   1.462   2.592  0.00  0.00    +0.069 A 
ATOM     16  C   UNL     1      -6.703   0.284   1.875  0.00  0.00    +0.216 A 
ATOM     17  N   UNL     1      -5.683  -0.248   1.221  0.00  0.00    -0.196 NA
ATOM     18 CL   UNL     1      -2.686   2.228   1.939  0.00  0.00    -0.080 Cl
ATOM     19  H   UNL     1      -2.555   0.123   0.541  0.00  0.00    +0.155 HD
ENDROOT
BRANCH  16  20
ATOM     20  O   UNL     1      -7.914  -0.328   1.840  0.00  0.00    -0.480 OA
ATOM     21  C   UNL     1      -8.009  -1.537   1.085  0.00  0.00    +0.279 C 
ENDBRANCH  16  20
BRANCH   1  22
ATOM     22  O   UNL     1      -0.976  -0.517  -0.046  0.00  0.00    -0.488 OA
BRANCH  22  24
ATOM     23  C   UNL     1       0.399   1.461   0.147  0.00  0.00    +0.051 C 
ATOM     24  C   UNL     1       0.373  -0.049  -0.101  0.00  0.00    +0.167 C 
ATOM     25  C   UNL     1       1.203  -0.756   0.972  0.00  0.00    +0.051 C 
ENDBRANCH  22  24
ENDBRANCH   1  22
BRANCH   3  26
ATOM     26  O   UNL     1       0.474  -4.229  -2.632  0.00  0.00    -0.491 OA
BRANCH  26  27
ATOM     27  C   UNL     1       0.123  -5.428  -3.326  0.00  0.00    +0.244 C 
BRANCH  27  28
ATOM     28  C   UNL     1       1.381  -6.052  -3.934  0.00  0.00    +0.125 C 
BRANCH  28  29
ATOM     29  N   UNL     1       2.291  -6.468  -2.859  0.00  0.00    -0.303 NA
ATOM     30  C   UNL     1       3.662  -6.631  -3.362  0.00  0.00    +0.066 C 
ATOM     31  C   UNL     1       4.587  -7.005  -2.202  0.00  0.00    -0.064 C 
ATOM     32  N   UNL     1       4.120  -8.255  -1.588  0.00  0.00    +0.379 N 
ATOM     33  C   UNL     1       2.759  -8.069  -1.068  0.00  0.00    -0.064 C 
ATOM     34  C   UNL     1       1.819  -7.704  -2.219  0.00  0.00    +0.066 C 
ATOM     35  C   UNL     1       5.019  -8.624  -0.486  0.00  0.00    -0.096 C 
ATOM     36  H   UNL     1       4.119  -8.990  -2.280  0.00  0.00    -0.082 HD
ENDBRANCH  28  29
ENDBRANCH  27  28
ENDBRANCH  26  27
ENDBRANCH   3  26
TORSDOF 7
