REMARK  Name = CHEMBL501458
REMARK  12 active torsions:
REMARK  status: ('A' for Active; 'I' for Inactive)
REMARK    1  A    between atoms: C_1  and  C_2
REMARK    2  A    between atoms: C_7  and  O_8
REMARK    3  A    between atoms: O_8  and  C_9
REMARK    4  A    between atoms: C_9  and  C_10
REMARK    5  A    between atoms: C_10  and  C_11
REMARK    6  A    between atoms: C_11  and  N_12
REMARK    7  A    between atoms: N_15  and  C_18
REMARK    8  A    between atoms: C_21  and  C_39
REMARK    9  A    between atoms: C_22  and  N_23
REMARK   10  A    between atoms: C_29  and  O_33
REMARK   11  A    between atoms: O_33  and  C_34
REMARK   12  A    between atoms: C_34  and  C_35
REMARK                            x       y       z     vdW  Elec       q    Type
REMARK                         _______ _______ _______ _____ _____    ______ ____
ROOT
ATOM      1  C   UNL     1      -4.935  -1.528  -2.351  0.00  0.00    +0.047 C 
ATOM      2  C   UNL     1      -3.737  -2.186  -1.716  0.00  0.00    -0.008 A 
ATOM      3  C   UNL     1      -2.535  -2.157  -2.354  0.00  0.00    +0.018 A 
ATOM      4  C   UNL     1      -1.418  -2.768  -1.767  0.00  0.00    +0.023 A 
ATOM      5  C   UNL     1      -1.543  -3.414  -0.513  0.00  0.00    +0.076 A 
ATOM      6  C   UNL     1      -2.793  -3.430   0.123  0.00  0.00    +0.074 A 
ATOM      7  C   UNL     1      -3.871  -2.816  -0.475  0.00  0.00    +0.125 A 
ATOM      8  N   UNL     1      -0.479  -4.000   0.055  0.00  0.00    -0.253 NA
ATOM      9  C   UNL     1       0.699  -4.000  -0.515  0.00  0.00    +0.132 A 
ATOM     10  C   UNL     1       0.915  -3.383  -1.758  0.00  0.00    +0.092 A 
ATOM     11  C   UNL     1      -0.157  -2.752  -2.407  0.00  0.00    +0.061 A 
ENDROOT
BRANCH  11  12
ATOM     12  N   UNL     1       0.014  -2.135  -3.631  0.00  0.00    -0.292 N 
ATOM     13  C   UNL     1      -0.190  -2.848  -4.800  0.00  0.00    +0.163 A 
ATOM     14  N   UNL     1      -0.478  -4.119  -4.948  0.00  0.00    -0.225 NA
ATOM     15  C   UNL     1      -0.651  -4.687  -6.163  0.00  0.00    +0.081 A 
ATOM     16  C   UNL     1      -0.961  -6.035  -6.459  0.00  0.00    +0.032 A 
ATOM     17  C   UNL     1      -1.103  -6.453  -7.756  0.00  0.00    +0.048 A 
ATOM     18  C   UNL     1      -0.949  -5.574  -8.824  0.00  0.00    +0.122 A 
ATOM     19  C   UNL     1      -0.645  -4.245  -8.568  0.00  0.00    +0.063 A 
ATOM     20  C   UNL     1      -0.501  -3.822  -7.270  0.00  0.00    +0.044 A 
ATOM     21  S   UNL     1      -0.134  -2.268  -6.489  0.00  0.00    -0.052 S 
ATOM     22  H   UNL     1       0.277  -1.202  -3.672  0.00  0.00    +0.154 HD
BRANCH  18  23
ATOM     23  O   UNL     1      -1.095  -6.013 -10.102  0.00  0.00    -0.483 OA
BRANCH  23  24
ATOM     24  C   UNL     1      -1.408  -7.396 -10.283  0.00  0.00    +0.342 C 
BRANCH  24  25
ATOM     25  C   UNL     1      -1.532  -7.700 -11.777  0.00  0.00    +0.424 C 
ATOM     26  F   UNL     1      -0.321  -7.409 -12.414  0.00  0.00    -0.167 F 
ATOM     27  F   UNL     1      -1.838  -9.054 -11.953  0.00  0.00    -0.167 F 
ATOM     28  F   UNL     1      -2.550  -6.916 -12.329  0.00  0.00    -0.167 F 
ENDBRANCH  24  25
ENDBRANCH  23  24
ENDBRANCH  18  23
ENDBRANCH  11  12
BRANCH  10  29
ATOM     29  C   UNL     1       2.215  -3.398  -2.357  0.00  0.00    +0.103 C 
ATOM     30  N   UNL     1       3.247  -3.410  -2.832  0.00  0.00    -0.191 NA
ENDBRANCH  10  29
BRANCH   7  31
ATOM     31  O   UNL     1      -5.080  -2.827   0.144  0.00  0.00    -0.492 OA
BRANCH  31  32
ATOM     32  C   UNL     1      -5.153  -3.486   1.410  0.00  0.00    +0.230 C 
BRANCH  32  33
ATOM     33  C   UNL     1      -6.582  -3.396   1.950  0.00  0.00    +0.056 C 
BRANCH  33  34
ATOM     34  C   UNL     1      -6.661  -4.102   3.305  0.00  0.00    +0.087 C 
BRANCH  34  35
ATOM     35  N   UNL     1      -8.033  -4.015   3.823  0.00  0.00    -0.306 NA
ATOM     36  C   UNL     1      -8.390  -2.625   4.138  0.00  0.00    +0.066 C 
ATOM     37  C   UNL     1      -9.843  -2.571   4.616  0.00  0.00    -0.064 C 
ATOM     38  N   UNL     1      -9.998  -3.415   5.808  0.00  0.00    +0.379 N 
ATOM     39  C   UNL     1      -9.661  -4.805   5.472  0.00  0.00    -0.064 C 
ATOM     40  C   UNL     1      -8.207  -4.878   5.000  0.00  0.00    +0.066 C 
ATOM     41  C   UNL     1     -11.388  -3.349   6.278  0.00  0.00    -0.096 C 
ATOM     42  H   UNL     1      -9.381  -3.087   6.535  0.00  0.00    -0.082 HD
ENDBRANCH  34  35
ENDBRANCH  33  34
ENDBRANCH  32  33
ENDBRANCH  31  32
ENDBRANCH   7  31
TORSDOF 10
