REMARK  Name = CHEMBL197186
REMARK  10 active torsions:
REMARK  status: ('A' for Active; 'I' for Inactive)
REMARK    1  A    between atoms: C_1  and  O_2
REMARK    2  A    between atoms: O_2  and  C_3
REMARK    3  A    between atoms: C_5  and  N_10
REMARK    4  A    between atoms: C_15  and  O_25
REMARK    5  A    between atoms: C_17  and  O_18
REMARK    6  A    between atoms: O_18  and  C_19
REMARK    7  A    between atoms: O_25  and  C_26
REMARK    8  A    between atoms: C_26  and  C_27
REMARK    9  A    between atoms: C_27  and  C_28
REMARK   10  A    between atoms: C_28  and  N_29
REMARK                            x       y       z     vdW  Elec       q    Type
REMARK                         _______ _______ _______ _____ _____    ______ ____
ROOT
ATOM      1  N   UNL     1      -2.510  -4.117   0.267  0.00  0.00    -0.297 N 
ATOM      2  C   UNL     1      -1.402  -4.857  -0.097  0.00  0.00    +0.137 A 
ATOM      3  C   UNL     1      -1.525  -6.218  -0.453  0.00  0.00    +0.082 A 
ATOM      4  C   UNL     1      -0.350  -6.923  -0.817  0.00  0.00    +0.083 A 
ATOM      5  C   UNL     1      -0.440  -8.272  -1.174  0.00  0.00    +0.074 A 
ATOM      6  C   UNL     1      -1.669  -8.901  -1.169  0.00  0.00    +0.126 A 
ATOM      7  C   UNL     1      -2.825  -8.208  -0.811  0.00  0.00    +0.092 A 
ATOM      8  C   UNL     1      -2.765  -6.878  -0.455  0.00  0.00    +0.137 A 
ATOM      9  N   UNL     1       0.823  -6.270  -0.807  0.00  0.00    -0.235 NA
ATOM     10  C   UNL     1       0.876  -5.004  -0.467  0.00  0.00    +0.223 A 
ATOM     11  N   UNL     1      -0.195  -4.306  -0.126  0.00  0.00    -0.220 NA
ATOM     12  H   UNL     1      -3.393  -4.516   0.227  0.00  0.00    +0.154 HD
ENDROOT
BRANCH   1  15
ATOM     13  C   UNL     1      -1.071  -1.054   1.707  0.00  0.00    +0.216 A 
ATOM     14  C   UNL     1      -1.181  -2.374   1.300  0.00  0.00    +0.092 A 
ATOM     15  C   UNL     1      -2.359  -2.797   0.691  0.00  0.00    +0.058 A 
ATOM     16  C   UNL     1      -3.385  -1.867   0.514  0.00  0.00    +0.080 A 
ATOM     17  C   UNL     1      -3.199  -0.571   0.946  0.00  0.00    +0.136 A 
ATOM     18  N   UNL     1      -2.070  -0.205   1.526  0.00  0.00    -0.220 NA
ATOM     19 CL   UNL     1      -4.877  -2.336  -0.239  0.00  0.00    -0.080 Cl
BRANCH  13  21
ATOM     20  C   UNL     1       0.123   0.742   2.704  0.00  0.00    +0.279 C 
ATOM     21  O   UNL     1       0.072  -0.628   2.302  0.00  0.00    -0.480 OA
ENDBRANCH  13  21
ENDBRANCH   1  15
BRANCH   8  22
ATOM     22  O   UNL     1      -3.895  -6.211  -0.107  0.00  0.00    -0.488 OA
BRANCH  22  23
ATOM     23  C   UNL     1      -5.096  -6.978  -0.008  0.00  0.00    +0.178 C 
ATOM     24  C   UNL     1      -5.727  -7.125  -1.396  0.00  0.00    +0.072 C 
ATOM     25  C   UNL     1      -7.053  -7.880  -1.268  0.00  0.00    +0.163 C 
ATOM     26  O   UNL     1      -7.915  -7.178  -0.370  0.00  0.00    -0.380 OA
ATOM     27  C   UNL     1      -7.398  -7.051   0.956  0.00  0.00    +0.163 C 
ATOM     28  C   UNL     1      -6.086  -6.263   0.917  0.00  0.00    +0.072 C 
ENDBRANCH  22  23
ENDBRANCH   8  22
BRANCH   6  29
ATOM     29  O   UNL     1      -1.753 -10.211  -1.516  0.00  0.00    -0.492 OA
BRANCH  29  30
ATOM     30  C   UNL     1      -0.534 -10.867  -1.873  0.00  0.00    +0.230 C 
BRANCH  30  31
ATOM     31  C   UNL     1      -0.826 -12.326  -2.231  0.00  0.00    +0.056 C 
BRANCH  31  32
ATOM     32  C   UNL     1       0.478 -13.028  -2.612  0.00  0.00    +0.088 C 
BRANCH  32  33
ATOM     33  N   UNL     1       0.198 -14.429  -2.956  0.00  0.00    -0.298 NA
ATOM     34  C   UNL     1      -0.263 -15.178  -1.778  0.00  0.00    +0.112 C 
ATOM     35  C   UNL     1      -0.600 -16.613  -2.193  0.00  0.00    +0.175 C 
ATOM     36  O   UNL     1       0.549 -17.211  -2.799  0.00  0.00    -0.377 OA
ATOM     37  C   UNL     1       1.025 -16.507  -3.950  0.00  0.00    +0.175 C 
ATOM     38  C   UNL     1       1.378 -15.071  -3.553  0.00  0.00    +0.112 C 
ENDBRANCH  32  33
ENDBRANCH  31  32
ENDBRANCH  30  31
ENDBRANCH  29  30
ENDBRANCH   6  29
TORSDOF 9
