REMARK  Name = CHEMBL43773
REMARK  9 active torsions:
REMARK  status: ('A' for Active; 'I' for Inactive)
REMARK    1  A    between atoms: C_1  and  N_2
REMARK    2  A    between atoms: N_5  and  C_8
REMARK    3  A    between atoms: C_11  and  N_14
REMARK    4  A    between atoms: C_17  and  C_19
REMARK    5  A    between atoms: C_22  and  N_27
REMARK    6  A    between atoms: C_23  and  O_25
REMARK    7  A    between atoms: O_25  and  C_26
REMARK    8  A    between atoms: C_28  and  C_30
REMARK    9  A    between atoms: C_39  and  N_43
REMARK                            x       y       z     vdW  Elec       q    Type
REMARK                         _______ _______ _______ _____ _____    ______ ____
ROOT
ATOM      1  N   UNL     1      -2.119  -8.062   1.618  0.00  0.00    -0.243 N 
ATOM      2  C   UNL     1      -2.384  -8.976   2.594  0.00  0.00    +0.164 A 
ATOM      3  C   UNL     1      -2.080 -10.243   2.062  0.00  0.00    +0.086 A 
ATOM      4  C   UNL     1      -1.614 -10.017   0.694  0.00  0.00    +0.105 A 
ATOM      5  N   UNL     1      -1.659  -8.724   0.474  0.00  0.00    -0.168 NA
ATOM      6  C   UNL     1      -2.266 -11.374   2.874  0.00  0.00    +0.131 A 
ATOM      7  N   UNL     1      -2.722 -11.195   4.110  0.00  0.00    -0.220 NA
ATOM      8  C   UNL     1      -2.994  -9.987   4.569  0.00  0.00    +0.225 A 
ATOM      9  N   UNL     1      -2.836  -8.900   3.846  0.00  0.00    -0.216 NA
ENDROOT
BRANCH   1  13
ATOM     10  C   UNL     1      -2.142  -3.918   0.607  0.00  0.00    -0.068 C 
ATOM     11  C   UNL     1      -3.485  -4.616   0.830  0.00  0.00    -0.013 C 
ATOM     12  C   UNL     1      -3.301  -6.129   0.698  0.00  0.00    +0.025 C 
ATOM     13  C   UNL     1      -2.295  -6.614   1.744  0.00  0.00    +0.109 C 
ATOM     14  C   UNL     1      -0.952  -5.915   1.521  0.00  0.00    +0.025 C 
ATOM     15  C   UNL     1      -1.136  -4.402   1.653  0.00  0.00    -0.013 C 
BRANCH  10  20
ATOM     16  C   UNL     1      -2.352   1.649  -0.236  0.00  0.00    +0.104 C 
ATOM     17  N   UNL     1      -2.193   0.191  -0.311  0.00  0.00    -0.309 NA
ATOM     18  C   UNL     1      -3.483  -0.489  -0.126  0.00  0.00    +0.065 C 
ATOM     19  C   UNL     1      -3.285  -2.000  -0.270  0.00  0.00    -0.063 C 
ATOM     20  N   UNL     1      -2.318  -2.465   0.734  0.00  0.00    +0.383 N 
ATOM     21  C   UNL     1      -1.029  -1.795   0.521  0.00  0.00    -0.063 C 
ATOM     22  C   UNL     1      -1.208  -0.283   0.672  0.00  0.00    +0.065 C 
ATOM     23  H   UNL     1      -2.662  -2.247   1.657  0.00  0.00    -0.081 HD
ENDBRANCH  10  20
ENDBRANCH   1  13
BRANCH   4  24
ATOM     24  C   UNL     1      -1.177 -11.056  -0.268  0.00  0.00    +0.006 A 
ATOM     25  C   UNL     1      -1.909 -12.236  -0.401  0.00  0.00    +0.012 A 
ATOM     26  C   UNL     1      -1.503 -13.203  -1.296  0.00  0.00    +0.027 A 
ATOM     27  C   UNL     1      -0.366 -13.005  -2.067  0.00  0.00    +0.076 A 
ATOM     28  C   UNL     1       0.370 -11.828  -1.938  0.00  0.00    +0.142 A 
ATOM     29  C   UNL     1      -0.038 -10.854  -1.045  0.00  0.00    +0.057 A 
BRANCH  27  30
ATOM     30  N   UNL     1       0.043 -13.989  -2.975  0.00  0.00    -0.276 N 
ATOM     31  C   UNL     1      -0.836 -14.915  -3.406  0.00  0.00    +0.284 C 
ATOM     32  O   UNL     1      -2.007 -14.838  -3.085  0.00  0.00    -0.266 OA
ATOM     33  H   UNL     1       0.959 -14.004  -3.293  0.00  0.00    +0.155 HD
BRANCH  31  34
ATOM     34  C   UNL     1      -0.379 -16.017  -4.263  0.00  0.00    +0.191 A 
ATOM     35  C   UNL     1      -1.173 -17.001  -4.760  0.00  0.00    +0.063 A 
ATOM     36  C   UNL     1      -0.299 -17.867  -5.550  0.00  0.00    +0.021 A 
ATOM     37  C   UNL     1      -0.498 -19.028  -6.301  0.00  0.00    +0.011 A 
ATOM     38  C   UNL     1       0.560 -19.613  -6.939  0.00  0.00    +0.001 A 
ATOM     39  C   UNL     1       1.830 -19.061  -6.844  0.00  0.00    +0.004 A 
ATOM     40  C   UNL     1       2.048 -17.916  -6.108  0.00  0.00    +0.047 A 
ATOM     41  C   UNL     1       0.987 -17.303  -5.452  0.00  0.00    +0.136 A 
ATOM     42  O   UNL     1       0.890 -16.202  -4.681  0.00  0.00    -0.450 OA
ENDBRANCH  31  34
ENDBRANCH  27  30
BRANCH  28  43
ATOM     43  O   UNL     1       1.484 -11.635  -2.693  0.00  0.00    -0.493 OA
ATOM     44  C   UNL     1       2.188 -10.406  -2.508  0.00  0.00    +0.277 C 
ENDBRANCH  28  43
ENDBRANCH   4  24
BRANCH   6  45
ATOM     45  N   UNL     1      -1.984 -12.640   2.399  0.00  0.00    -0.342 N 
ATOM     46  H   UNL     1      -1.475 -12.749   1.580  0.00  0.00    +0.144 HD
ATOM     47  H   UNL     1      -2.294 -13.421   2.885  0.00  0.00    +0.144 HD
ENDBRANCH   6  45
TORSDOF 7
