REMARK  Name = CHEMBL474998
REMARK  11 active torsions:
REMARK  status: ('A' for Active; 'I' for Inactive)
REMARK    1  A    between atoms: C_3  and  C_8
REMARK    2  A    between atoms: C_5  and  O_7
REMARK    3  A    between atoms: N_10  and  C_18
REMARK    4  A    between atoms: C_13  and  N_17
REMARK    5  A    between atoms: C_21  and  O_24
REMARK    6  A    between atoms: O_24  and  C_25
REMARK    7  A    between atoms: C_25  and  C_26
REMARK    8  A    between atoms: C_26  and  N_27
REMARK    9  A    between atoms: N_27  and  C_28
REMARK   10  A    between atoms: C_28  and  C_29
REMARK   11  A    between atoms: C_29  and  O_30
REMARK                            x       y       z     vdW  Elec       q    Type
REMARK                         _______ _______ _______ _____ _____    ______ ____
ROOT
ATOM      1  C   UNL     1       3.658   2.171  -0.022  0.00  0.00    +0.013 A 
ATOM      2  C   UNL     1       4.723   1.979   0.796  0.00  0.00    +0.102 A 
ATOM      3  N   UNL     1       5.711   2.875   0.483  0.00  0.00    -0.300 N 
ATOM      4  C   UNL     1       5.311   3.678  -0.553  0.00  0.00    +0.151 A 
ATOM      5  C   UNL     1       4.016   3.276  -0.921  0.00  0.00    +0.066 A 
ATOM      6  C   UNL     1       3.376   3.944  -1.974  0.00  0.00    +0.129 A 
ATOM      7  N   UNL     1       4.027   4.932  -2.583  0.00  0.00    -0.220 NA
ATOM      8  C   UNL     1       5.245   5.277  -2.207  0.00  0.00    +0.225 A 
ATOM      9  N   UNL     1       5.879   4.682  -1.220  0.00  0.00    -0.217 NA
ENDROOT
BRANCH   1  12
ATOM     10  C   UNL     1      -0.017   1.378   0.010  0.00  0.00    +0.004 A 
ATOM     11  C   UNL     1       1.167   2.088   0.002  0.00  0.00    +0.009 A 
ATOM     12  C   UNL     1       2.386   1.411  -0.013  0.00  0.00    -0.012 A 
ATOM     13  C   UNL     1       2.404   0.018  -0.021  0.00  0.00    +0.054 A 
ATOM     14  C   UNL     1       1.211  -0.686  -0.013  0.00  0.00    +0.117 A 
ATOM     15  C   UNL     1       0.002  -0.004   0.002  0.00  0.00    +0.045 A 
BRANCH  14  16
ATOM     16  O   UNL     1       1.225  -2.045  -0.021  0.00  0.00    -0.507 OA
ATOM     17  H   UNL     1       1.237  -2.443   0.861  0.00  0.00    +0.292 HD
ENDBRANCH  14  16
ENDBRANCH   1  12
BRANCH   3  18
ATOM     18  C   UNL     1       6.952   2.958   1.131  0.00  0.00    +0.048 A 
ATOM     19  C   UNL     1       8.123   2.989   0.386  0.00  0.00    +0.030 A 
ATOM     20  C   UNL     1       9.345   3.072   1.024  0.00  0.00    +0.047 A 
ATOM     21  C   UNL     1       9.402   3.123   2.409  0.00  0.00    +0.121 A 
ATOM     22  C   UNL     1       8.232   3.092   3.154  0.00  0.00    +0.047 A 
ATOM     23  C   UNL     1       7.010   3.016   2.517  0.00  0.00    +0.030 A 
BRANCH  21  24
ATOM     24  O   UNL     1      10.605   3.204   3.037  0.00  0.00    -0.494 OA
BRANCH  24  25
ATOM     25  C   UNL     1      10.590   3.254   4.465  0.00  0.00    +0.210 C 
BRANCH  25  26
ATOM     26  C   UNL     1      12.026   3.342   4.987  0.00  0.00    -0.041 C 
BRANCH  26  27
ATOM     27  N   UNL     1      12.624   4.614   4.561  0.00  0.00    +0.383 N 
ATOM     28  H   UNL     1      12.630   4.662   3.553  0.00  0.00    -0.086 HD
ATOM     29  H   UNL     1      12.084   5.381   4.931  0.00  0.00    -0.086 HD
BRANCH  27  30
ATOM     30  C   UNL     1      14.002   4.699   5.062  0.00  0.00    -0.054 C 
BRANCH  30  31
ATOM     31  C   UNL     1      14.626   6.024   4.618  0.00  0.00    +0.137 C 
BRANCH  31  32
ATOM     32  O   UNL     1      13.931   7.109   5.236  0.00  0.00    -0.397 OA
ATOM     33  H   UNL     1      14.274   7.981   4.999  0.00  0.00    +0.209 HD
ENDBRANCH  31  32
ENDBRANCH  30  31
ENDBRANCH  27  30
ENDBRANCH  26  27
ENDBRANCH  25  26
ENDBRANCH  24  25
ENDBRANCH  21  24
ENDBRANCH   3  18
BRANCH   6  34
ATOM     34  N   UNL     1       2.100   3.585  -2.370  0.00  0.00    -0.343 N 
ATOM     35  H   UNL     1       1.637   2.862  -1.918  0.00  0.00    +0.144 HD
ATOM     36  H   UNL     1       1.669   4.056  -3.100  0.00  0.00    +0.144 HD
ENDBRANCH   6  34
TORSDOF 11
