REMARK  Name = CHEMBL426148
REMARK  12 active torsions:
REMARK  status: ('A' for Active; 'I' for Inactive)
REMARK    1  A    between atoms: C_1  and  N_2
REMARK    2  A    between atoms: N_5  and  C_8
REMARK    3  A    between atoms: C_8  and  C_9
REMARK    4  A    between atoms: C_9  and  C_10
REMARK    5  A    between atoms: C_10  and  O_11
REMARK    6  A    between atoms: O_11  and  C_12
REMARK    7  A    between atoms: C_17  and  O_18
REMARK    8  A    between atoms: O_18  and  C_19
REMARK    9  A    between atoms: C_25  and  N_29
REMARK   10  A    between atoms: N_29  and  C_30
REMARK   11  A    between atoms: C_32  and  O_37
REMARK   12  A    between atoms: O_37  and  C_38
REMARK                            x       y       z     vdW  Elec       q    Type
REMARK                         _______ _______ _______ _____ _____    ______ ____
ROOT
ATOM      1  C   UNL     1      -0.095  -7.817   4.155  0.00  0.00    +0.163 A 
ATOM      2  C   UNL     1      -0.078  -8.564   2.979  0.00  0.00    +0.051 A 
ATOM      3  C   UNL     1       0.521  -9.789   2.932  0.00  0.00    +0.032 A 
ATOM      4  C   UNL     1       1.132 -10.312   4.078  0.00  0.00    +0.080 A 
ATOM      5  C   UNL     1       1.121  -9.561   5.279  0.00  0.00    +0.086 A 
ATOM      6  C   UNL     1       0.504  -8.301   5.305  0.00  0.00    +0.175 A 
ATOM      7  C   UNL     1       1.746 -10.114   6.420  0.00  0.00    +0.138 A 
ATOM      8  N   UNL     1       2.311 -11.310   6.308  0.00  0.00    -0.220 NA
ATOM      9  C   UNL     1       2.297 -11.976   5.165  0.00  0.00    +0.223 A 
ATOM     10  N   UNL     1       1.733 -11.512   4.075  0.00  0.00    -0.235 NA
ENDROOT
BRANCH   7  11
ATOM     11  N   UNL     1       1.768  -9.430   7.618  0.00  0.00    -0.298 N 
ATOM     12  H   UNL     1       1.422  -8.525   7.666  0.00  0.00    +0.154 HD
BRANCH  11  13
ATOM     13  C   UNL     1       2.287 -10.041   8.764  0.00  0.00    +0.054 A 
ATOM     14  C   UNL     1       2.264 -11.424   8.885  0.00  0.00    +0.070 A 
ATOM     15  C   UNL     1       2.781 -12.026  10.021  0.00  0.00    +0.122 A 
ATOM     16  C   UNL     1       3.320 -11.247  11.035  0.00  0.00    +0.047 A 
ATOM     17  C   UNL     1       3.342  -9.870  10.914  0.00  0.00    +0.025 A 
ATOM     18  C   UNL     1       2.833  -9.266   9.780  0.00  0.00    +0.062 A 
ATOM     19 CL   UNL     1       2.870  -7.537   9.628  0.00  0.00    -0.082 Cl
BRANCH  15  20
ATOM     20  O   UNL     1       2.760 -13.380  10.142  0.00  0.00    -0.495 OA
ATOM     21  C   UNL     1       3.309 -13.933  11.340  0.00  0.00    +0.277 C 
ENDBRANCH  15  20
ENDBRANCH  11  13
ENDBRANCH   7  11
BRANCH   1  22
ATOM     22  O   UNL     1      -0.700  -6.598   4.171  0.00  0.00    -0.488 OA
BRANCH  22  23
ATOM     23  C   UNL     1      -1.299  -6.155   2.951  0.00  0.00    +0.230 C 
BRANCH  23  24
ATOM     24  C   UNL     1      -1.925  -4.775   3.163  0.00  0.00    +0.056 C 
BRANCH  24  25
ATOM     25  C   UNL     1      -2.566  -4.301   1.857  0.00  0.00    +0.087 C 
BRANCH  25  30
ATOM     26  C   UNL     1      -4.232   1.078   1.665  0.00  0.00    -0.096 C 
ATOM     27  N   UNL     1      -3.604  -0.227   1.418  0.00  0.00    +0.379 N 
ATOM     28  C   UNL     1      -4.647  -1.234   1.183  0.00  0.00    -0.064 C 
ATOM     29  C   UNL     1      -3.994  -2.590   0.907  0.00  0.00    +0.066 C 
ATOM     30  N   UNL     1      -3.167  -2.976   2.060  0.00  0.00    -0.306 NA
ATOM     31  C   UNL     1      -2.134  -1.964   2.323  0.00  0.00    +0.066 C 
ATOM     32  C   UNL     1      -2.803  -0.613   2.587  0.00  0.00    -0.064 C 
ATOM     33  H   UNL     1      -3.008  -0.165   0.607  0.00  0.00    -0.082 HD
ENDBRANCH  25  30
ENDBRANCH  24  25
ENDBRANCH  23  24
ENDBRANCH  22  23
ENDBRANCH   1  22
BRANCH   6  34
ATOM     34  O   UNL     1       0.489  -7.567   6.448  0.00  0.00    -0.484 OA
BRANCH  34  35
ATOM     35  C   UNL     1      -0.654  -7.705   7.294  0.00  0.00    +0.178 C 
ATOM     36  C   UNL     1      -1.763  -6.763   6.816  0.00  0.00    +0.072 C 
ATOM     37  C   UNL     1      -2.953  -6.860   7.773  0.00  0.00    +0.163 C 
ATOM     38  O   UNL     1      -2.525  -6.539   9.098  0.00  0.00    -0.380 OA
ATOM     39  C   UNL     1      -1.523  -7.416   9.616  0.00  0.00    +0.163 C 
ATOM     40  C   UNL     1      -0.275  -7.341   8.733  0.00  0.00    +0.072 C 
ENDBRANCH  34  35
ENDBRANCH   6  34
TORSDOF 10
