REMARK  Name = CHEMBL331906
REMARK  3 active torsions:
REMARK  status: ('A' for Active; 'I' for Inactive)
REMARK    1  A    between atoms: C_3  and  C_8
REMARK    2  A    between atoms: C_5  and  O_7
REMARK    3  A    between atoms: N_15  and  C_16
REMARK                            x       y       z     vdW  Elec       q    Type
REMARK                         _______ _______ _______ _____ _____    ______ ____
ROOT
ATOM      1  C   UNL     1       3.670   2.309   0.047  0.00  0.00    +0.078 A 
ATOM      2  C   UNL     1       3.694   3.576  -0.529  0.00  0.00    +0.086 A 
ATOM      3  C   UNL     1       4.693   4.355   0.218  0.00  0.00    +0.186 A 
ATOM      4  N   UNL     1       4.902   5.633  -0.156  0.00  0.00    -0.214 NA
ATOM      5  C   UNL     1       4.229   6.149  -1.154  0.00  0.00    +0.225 A 
ATOM      6  N   UNL     1       3.322   5.484  -1.852  0.00  0.00    -0.220 NA
ATOM      7  C   UNL     1       3.018   4.219  -1.591  0.00  0.00    +0.138 A 
ATOM      8  N   UNL     1       2.068   3.550  -2.334  0.00  0.00    -0.299 N 
ATOM      9  N   UNL     1       5.184   3.559   1.145  0.00  0.00    -0.153 NA
ATOM     10  N   UNL     1       4.564   2.307   1.057  0.00  0.00    -0.274 N 
ATOM     11  H   UNL     1       4.752   1.551   1.634  0.00  0.00    +0.189 HD
ATOM     12  H   UNL     1       1.799   2.653  -2.083  0.00  0.00    +0.154 HD
ENDROOT
BRANCH   8  13
ATOM     13  C   UNL     1       1.492   4.166  -3.449  0.00  0.00    +0.034 A 
ATOM     14  C   UNL     1       2.239   5.049  -4.220  0.00  0.00    +0.023 A 
ATOM     15  C   UNL     1       1.668   5.656  -5.321  0.00  0.00    +0.003 A 
ATOM     16  C   UNL     1       0.354   5.387  -5.657  0.00  0.00    +0.020 A 
ATOM     17  C   UNL     1      -0.393   4.509  -4.892  0.00  0.00    +0.043 A 
ATOM     18  C   UNL     1       0.175   3.893  -3.792  0.00  0.00    +0.043 A 
ATOM     19 CL   UNL     1      -2.043   4.174  -5.318  0.00  0.00    -0.083 Cl
ENDBRANCH   8  13
BRANCH   1  22
ATOM     20  C   UNL     1       0.647   0.290  -0.895  0.00  0.00    +0.004 A 
ATOM     21  C   UNL     1       1.440   1.351  -0.507  0.00  0.00    +0.010 A 
ATOM     22  C   UNL     1       2.818   1.177  -0.367  0.00  0.00    +0.004 A 
ATOM     23  C   UNL     1       3.388  -0.073  -0.621  0.00  0.00    +0.055 A 
ATOM     24  C   UNL     1       2.582  -1.129  -1.009  0.00  0.00    +0.117 A 
ATOM     25  C   UNL     1       1.212  -0.946  -1.146  0.00  0.00    +0.045 A 
BRANCH  24  26
ATOM     26  O   UNL     1       3.132  -2.347  -1.257  0.00  0.00    -0.507 OA
ATOM     27  H   UNL     1       3.177  -2.924  -0.482  0.00  0.00    +0.292 HD
ENDBRANCH  24  26
ENDBRANCH   1  22
TORSDOF 3
