REMARK  Name = CHEMBL230898
REMARK  9 active torsions:
REMARK  status: ('A' for Active; 'I' for Inactive)
REMARK    1  A    between atoms: C_1  and  C_2
REMARK    2  A    between atoms: C_4  and  C_27
REMARK    3  A    between atoms: N_12  and  C_13
REMARK    4  A    between atoms: C_16  and  O_19
REMARK    5  A    between atoms: O_19  and  C_20
REMARK    6  A    between atoms: C_20  and  C_21
REMARK    7  A    between atoms: C_21  and  N_22
REMARK    8  A    between atoms: C_28  and  C_33
REMARK    9  A    between atoms: C_31  and  C_32
REMARK                            x       y       z     vdW  Elec       q    Type
REMARK                         _______ _______ _______ _____ _____    ______ ____
ROOT
ATOM      1  C   UNL     1      -0.080   1.315  -0.051  0.00  0.00    +0.046 C 
ATOM      2  C   UNL     1      -0.973   0.113   0.118  0.00  0.00    -0.022 A 
ATOM      3  C   UNL     1      -1.646  -0.391  -0.950  0.00  0.00    +0.014 A 
ATOM      4  C   UNL     1      -2.483  -1.510  -0.813  0.00  0.00    -0.010 A 
ATOM      5  C   UNL     1      -2.641  -2.124   0.416  0.00  0.00    +0.040 A 
ATOM      6  C   UNL     1      -1.956  -1.621   1.531  0.00  0.00    +0.112 A 
ATOM      7  C   UNL     1      -1.108  -0.491   1.378  0.00  0.00    +0.097 A 
ATOM      8  N   UNL     1      -0.459  -0.027   2.453  0.00  0.00    -0.211 NA
ATOM      9  C   UNL     1      -0.624  -0.634   3.615  0.00  0.00    +0.240 A 
ATOM     10  N   UNL     1      -1.421  -1.698   3.739  0.00  0.00    -0.112 NA
ATOM     11  N   UNL     1      -2.077  -2.181   2.740  0.00  0.00    -0.144 NA
ATOM     12  N   UNL     1       0.045  -0.157   4.728  0.00  0.00    -0.282 N 
ATOM     13  H   UNL     1       0.563   0.661   4.670  0.00  0.00    +0.155 HD
ENDROOT
BRANCH   4  14
ATOM     14  C   UNL     1      -3.205  -2.037  -1.997  0.00  0.00    +0.047 A 
ATOM     15  C   UNL     1      -4.210  -1.361  -2.731  0.00  0.00    +0.088 A 
ATOM     16  N   UNL     1      -4.600  -2.145  -3.694  0.00  0.00    -0.083 NA
ATOM     17  O   UNL     1      -3.861  -3.350  -3.612  0.00  0.00    -0.359 OA
ATOM     18  C   UNL     1      -3.017  -3.253  -2.574  0.00  0.00    +0.142 A 
ATOM     19  C   UNL     1      -2.037  -4.306  -2.126  0.00  0.00    +0.090 C 
ATOM     20  C   UNL     1      -4.735   0.022  -2.447  0.00  0.00    +0.070 C 
ENDBRANCH   4  14
BRANCH  12  21
ATOM     21  C   UNL     1      -0.025  -0.856   5.940  0.00  0.00    +0.034 A 
ATOM     22  C   UNL     1       0.006  -2.244   5.944  0.00  0.00    +0.027 A 
ATOM     23  C   UNL     1      -0.063  -2.932   7.140  0.00  0.00    +0.047 A 
ATOM     24  C   UNL     1      -0.164  -2.236   8.336  0.00  0.00    +0.121 A 
ATOM     25  C   UNL     1      -0.195  -0.850   8.332  0.00  0.00    +0.047 A 
ATOM     26  C   UNL     1      -0.120  -0.160   7.138  0.00  0.00    +0.027 A 
BRANCH  24  27
ATOM     27  O   UNL     1      -0.232  -2.915   9.513  0.00  0.00    -0.494 OA
BRANCH  27  28
ATOM     28  C   UNL     1      -0.334  -2.135  10.706  0.00  0.00    +0.210 C 
BRANCH  28  29
ATOM     29  C   UNL     1      -0.399  -3.065  11.919  0.00  0.00    -0.037 C 
BRANCH  29  30
ATOM     30  N   UNL     1       0.867  -3.799  12.041  0.00  0.00    +0.382 N 
ATOM     31  C   UNL     1       1.030  -4.707  10.886  0.00  0.00    -0.079 C 
ATOM     32  C   UNL     1       1.719  -5.967  11.467  0.00  0.00    -0.020 C 
ATOM     33  C   UNL     1       1.043  -6.081  12.859  0.00  0.00    -0.020 C 
ATOM     34  C   UNL     1       0.855  -4.607  13.275  0.00  0.00    -0.079 C 
ATOM     35  H   UNL     1       1.637  -3.148  12.070  0.00  0.00    -0.082 HD
ENDBRANCH  29  30
ENDBRANCH  28  29
ENDBRANCH  27  28
ENDBRANCH  24  27
ENDBRANCH  12  21
TORSDOF 6
