REMARK  Name = CHEMBL375433
REMARK  11 active torsions:
REMARK  status: ('A' for Active; 'I' for Inactive)
REMARK    1  A    between atoms: C_1  and  C_2
REMARK    2  A    between atoms: C_2  and  C_3
REMARK    3  A    between atoms: C_3  and  O_4
REMARK    4  A    between atoms: O_4  and  C_5
REMARK    5  A    between atoms: N_7  and  C_37
REMARK    6  A    between atoms: N_10  and  C_11
REMARK    7  A    between atoms: C_15  and  N_17
REMARK    8  A    between atoms: C_21  and  C_36
REMARK    9  A    between atoms: C_23  and  C_28
REMARK   10  A    between atoms: C_29  and  C_35
REMARK   11  A    between atoms: C_33  and  C_34
REMARK                            x       y       z     vdW  Elec       q    Type
REMARK                         _______ _______ _______ _____ _____    ______ ____
ROOT
ATOM      1  N   UNL     1       6.995  -0.217  -3.497  0.00  0.00    -0.282 N 
ATOM      2  C   UNL     1       7.803   0.189  -4.546  0.00  0.00    +0.240 A 
ATOM      3  N   UNL     1       9.108   0.273  -4.360  0.00  0.00    -0.211 NA
ATOM      4  C   UNL     1       9.885   0.665  -5.377  0.00  0.00    +0.097 A 
ATOM      5  C   UNL     1      11.278   0.773  -5.240  0.00  0.00    -0.022 A 
ATOM      6  C   UNL     1      12.034   1.175  -6.295  0.00  0.00    +0.014 A 
ATOM      7  C   UNL     1      11.441   1.486  -7.529  0.00  0.00    -0.015 A 
ATOM      8  C   UNL     1      10.071   1.391  -7.697  0.00  0.00    +0.040 A 
ATOM      9  C   UNL     1       9.273   0.978  -6.620  0.00  0.00    +0.112 A 
ATOM     10  N   UNL     1       7.945   0.869  -6.733  0.00  0.00    -0.144 NA
ATOM     11  N   UNL     1       7.245   0.481  -5.723  0.00  0.00    -0.112 NA
ATOM     12  C   UNL     1      11.935   0.443  -3.924  0.00  0.00    +0.046 C 
ATOM     13  H   UNL     1       7.394  -0.510  -2.663  0.00  0.00    +0.155 HD
ENDROOT
BRANCH   7  14
ATOM     14  C   UNL     1      12.290   1.923  -8.664  0.00  0.00    -0.012 A 
ATOM     15  C   UNL     1      12.998   3.121  -8.587  0.00  0.00    -0.042 A 
ATOM     16  C   UNL     1      13.787   3.523  -9.646  0.00  0.00    +0.004 A 
ATOM     17  C   UNL     1      13.876   2.738 -10.782  0.00  0.00    +0.001 A 
ATOM     18  C   UNL     1      13.176   1.548 -10.864  0.00  0.00    +0.004 A 
ATOM     19  C   UNL     1      12.389   1.134  -9.809  0.00  0.00    -0.042 A 
ATOM     20  C   UNL     1      11.632  -0.166  -9.897  0.00  0.00    +0.044 C 
ATOM     21  C   UNL     1      12.902   3.977  -7.351  0.00  0.00    +0.044 C 
ENDBRANCH   7  14
BRANCH   1  26
ATOM     22  C   UNL     1       3.457  -1.186  -3.200  0.00  0.00    +0.033 A 
ATOM     23  C   UNL     1       2.848  -0.172  -3.930  0.00  0.00    +0.023 A 
ATOM     24  C   UNL     1       3.615   0.820  -4.511  0.00  0.00    +0.004 A 
ATOM     25  C   UNL     1       4.989   0.807  -4.368  0.00  0.00    +0.023 A 
ATOM     26  C   UNL     1       5.604  -0.204  -3.640  0.00  0.00    +0.035 A 
ATOM     27  C   UNL     1       4.836  -1.199  -3.051  0.00  0.00    +0.046 A 
BRANCH  22  33
ATOM     28  C   UNL     1       3.301  -3.252  -1.810  0.00  0.00    +0.189 C 
ATOM     29  C   UNL     1       2.557  -3.348  -0.474  0.00  0.00    -0.027 C 
ATOM     30  N   UNL     1       1.123  -3.537  -0.726  0.00  0.00    +0.382 N 
ATOM     31  C   UNL     1       0.573  -2.354  -1.400  0.00  0.00    -0.060 C 
ATOM     32  C   UNL     1       1.219  -2.209  -2.782  0.00  0.00    +0.089 C 
ATOM     33  N   UNL     1       2.681  -2.188  -2.614  0.00  0.00    -0.308 N 
ATOM     34  C   UNL     1       0.425  -3.739   0.551  0.00  0.00    -0.096 C 
ATOM     35  H   UNL     1       0.989  -4.348  -1.311  0.00  0.00    -0.082 HD
BRANCH  28  36
ATOM     36  O   UNL     1       3.204  -4.497  -2.504  0.00  0.00    -0.361 OA
BRANCH  36  37
ATOM     37  C   UNL     1       4.113  -4.625  -3.599  0.00  0.00    +0.162 C 
BRANCH  37  39
ATOM     38  C   UNL     1       4.895  -6.125  -5.437  0.00  0.00    +0.006 C 
ATOM     39  C   UNL     1       3.921  -5.989  -4.265  0.00  0.00    +0.025 C 
ENDBRANCH  37  39
ENDBRANCH  36  37
ENDBRANCH  28  36
ENDBRANCH  22  33
ENDBRANCH   1  26
TORSDOF 6
