REMARK  Name = CHEMBL240207
REMARK  11 active torsions:
REMARK  status: ('A' for Active; 'I' for Inactive)
REMARK    1  A    between atoms: C_1  and  O_2
REMARK    2  A    between atoms: O_2  and  C_3
REMARK    3  A    between atoms: C_8  and  C_9
REMARK    4  A    between atoms: C_10  and  C_11
REMARK    5  A    between atoms: C_11  and  C_12
REMARK    6  A    between atoms: C_12  and  N_13
REMARK    7  A    between atoms: C_21  and  C_34
REMARK    8  A    between atoms: C_22  and  N_23
REMARK    9  A    between atoms: N_23  and  C_24
REMARK   10  A    between atoms: C_26  and  O_32
REMARK   11  A    between atoms: O_32  and  C_33
REMARK                            x       y       z     vdW  Elec       q    Type
REMARK                         _______ _______ _______ _____ _____    ______ ____
ROOT
ATOM      1  C   UNL     1       1.280  -0.393   0.607  0.00  0.00    +0.136 A 
ATOM      2  C   UNL     1       1.632   0.292   1.734  0.00  0.00    +0.058 A 
ATOM      3  C   UNL     1       2.167  -0.394   2.833  0.00  0.00    +0.026 A 
ATOM      4  C   UNL     1       2.343  -1.798   2.776  0.00  0.00    +0.074 A 
ATOM      5  C   UNL     1       1.978  -2.488   1.612  0.00  0.00    +0.048 A 
ATOM      6  C   UNL     1       1.445  -1.791   0.540  0.00  0.00    +0.069 A 
ATOM      7  N   UNL     1       2.854  -2.458   3.827  0.00  0.00    -0.254 NA
ATOM      8  C   UNL     1       3.204  -1.845   4.928  0.00  0.00    +0.132 A 
ATOM      9  C   UNL     1       3.064  -0.454   5.072  0.00  0.00    +0.091 A 
ATOM     10  C   UNL     1       2.537   0.296   4.011  0.00  0.00    +0.060 A 
ENDROOT
BRANCH   1  12
ATOM     11  C   UNL     1       0.621   1.692  -0.324  0.00  0.00    +0.277 C 
ATOM     12  O   UNL     1       0.763   0.276  -0.456  0.00  0.00    -0.494 OA
ENDBRANCH   1  12
BRANCH   6  13
ATOM     13  C   UNL     1       1.065  -2.495  -0.648  0.00  0.00    -0.063 C 
ATOM     14  C   UNL     1       0.754  -3.072  -1.621  0.00  0.00    -0.099 C 
BRANCH  14  15
ATOM     15  C   UNL     1       0.364  -3.796  -2.842  0.00  0.00    +0.070 C 
BRANCH  15  16
ATOM     16  C   UNL     1       0.642  -5.289  -2.661  0.00  0.00    -0.066 C 
BRANCH  16  17
ATOM     17  N   UNL     1       0.252  -6.011  -3.879  0.00  0.00    +0.383 N 
ATOM     18  C   UNL     1      -1.202  -5.908  -4.067  0.00  0.00    -0.050 C 
ATOM     19  C   UNL     1      -1.605  -6.661  -5.337  0.00  0.00    +0.141 C 
ATOM     20  O   UNL     1      -1.185  -8.024  -5.230  0.00  0.00    -0.383 OA
ATOM     21  C   UNL     1       0.222  -8.176  -5.022  0.00  0.00    +0.141 C 
ATOM     22  C   UNL     1       0.628  -7.426  -3.752  0.00  0.00    -0.050 C 
ATOM     23  H   UNL     1       0.724  -5.608  -4.675  0.00  0.00    -0.082 HD
ENDBRANCH  16  17
ENDBRANCH  15  16
ENDBRANCH  14  15
ENDBRANCH   6  13
BRANCH  10  24
ATOM     24  N   UNL     1       2.384   1.665   4.114  0.00  0.00    -0.312 N 
ATOM     25  H   UNL     1       1.745   2.125   3.547  0.00  0.00    +0.152 HD
BRANCH  24  26
ATOM     26  C   UNL     1       3.151   2.387   5.033  0.00  0.00    +0.053 A 
ATOM     27  C   UNL     1       2.539   2.996   6.121  0.00  0.00    +0.071 A 
ATOM     28  C   UNL     1       3.301   3.711   7.031  0.00  0.00    +0.140 A 
ATOM     29  C   UNL     1       4.675   3.818   6.853  0.00  0.00    +0.084 A 
ATOM     30  C   UNL     1       5.283   3.211   5.769  0.00  0.00    +0.045 A 
ATOM     31  C   UNL     1       4.526   2.492   4.863  0.00  0.00    +0.064 A 
ATOM     32 CL   UNL     1       5.293   1.726   3.507  0.00  0.00    -0.082 Cl
ATOM     33 CL   UNL     1       5.629   4.714   7.993  0.00  0.00    -0.080 Cl
BRANCH  28  34
ATOM     34  O   UNL     1       2.705   4.308   8.097  0.00  0.00    -0.494 OA
ATOM     35  C   UNL     1       1.310   4.062   8.281  0.00  0.00    +0.277 C 
ENDBRANCH  28  34
ENDBRANCH  24  26
ENDBRANCH  10  24
BRANCH   9  36
ATOM     36  C   UNL     1       3.456   0.190   6.290  0.00  0.00    +0.103 C 
ATOM     37  N   UNL     1       3.767   0.700   7.256  0.00  0.00    -0.191 NA
ENDBRANCH   9  36
TORSDOF 9
