REMARK  Name = CHEMBL107458
REMARK  12 active torsions:
REMARK  status: ('A' for Active; 'I' for Inactive)
REMARK    1  A    between atoms: C_1  and  C_2
REMARK    2  A    between atoms: C_2  and  N_3
REMARK    3  A    between atoms: N_3  and  C_4
REMARK    4  A    between atoms: N_3  and  C_6
REMARK    5  A    between atoms: C_4  and  C_5
REMARK    6  A    between atoms: C_6  and  C_7
REMARK    7  A    between atoms: C_7  and  C_8
REMARK    8  A    between atoms: C_8  and  O_9
REMARK    9  A    between atoms: O_9  and  C_10
REMARK   10  A    between atoms: C_13  and  N_16
REMARK   11  A    between atoms: C_22  and  C_27
REMARK   12  A    between atoms: N_25  and  C_26
REMARK                            x       y       z     vdW  Elec       q    Type
REMARK                         _______ _______ _______ _____ _____    ______ ____
ROOT
ATOM      1  N   UNL     1       4.053  -9.874   3.577  0.00  0.00    -0.299 N 
ATOM      2  C   UNL     1       4.342 -10.594   2.427  0.00  0.00    +0.125 A 
ATOM      3  C   UNL     1       4.524 -11.968   2.511  0.00  0.00    +0.070 A 
ATOM      4  C   UNL     1       4.814 -12.679   1.353  0.00  0.00    +0.056 A 
ATOM      5  C   UNL     1       4.910 -11.968   0.137  0.00  0.00    +0.018 A 
ATOM      6  C   UNL     1       5.204 -12.659  -1.063  0.00  0.00    +0.025 A 
ATOM      7  C   UNL     1       5.391 -14.014  -1.023  0.00  0.00    +0.050 A 
ATOM      8  C   UNL     1       5.284 -14.720   0.256  0.00  0.00    +0.259 A 
ATOM      9  O   UNL     1       5.449 -15.927   0.298  0.00  0.00    -0.267 OA
ATOM     10  N   UNL     1       5.003 -14.041   1.385  0.00  0.00    -0.311 N 
ATOM     11  C   UNL     1       4.899 -14.760   2.658  0.00  0.00    +0.152 C 
ATOM     12  C   UNL     1       4.712 -10.582   0.142  0.00  0.00    +0.122 A 
ATOM     13  N   UNL     1       4.434  -9.956   1.265  0.00  0.00    -0.239 NA
ATOM     14  H   UNL     1       4.066 -10.315   4.441  0.00  0.00    +0.154 HD
ENDROOT
BRANCH   7  15
ATOM     15  C   UNL     1       5.699 -14.761  -2.264  0.00  0.00    +0.024 A 
ATOM     16  C   UNL     1       4.665 -15.278  -3.046  0.00  0.00    +0.050 A 
ATOM     17  C   UNL     1       4.959 -15.974  -4.202  0.00  0.00    +0.021 A 
ATOM     18  C   UNL     1       6.275 -16.159  -4.586  0.00  0.00    +0.003 A 
ATOM     19  C   UNL     1       7.304 -15.649  -3.815  0.00  0.00    +0.021 A 
ATOM     20  C   UNL     1       7.024 -14.946  -2.660  0.00  0.00    +0.050 A 
ATOM     21 CL   UNL     1       8.317 -14.300  -1.699  0.00  0.00    -0.083 Cl
ATOM     22 CL   UNL     1       3.012 -15.047  -2.566  0.00  0.00    -0.083 Cl
ENDBRANCH   7  15
BRANCH   1  26
ATOM     23  C   UNL     1       3.128  -5.817   3.320  0.00  0.00    +0.121 A 
ATOM     24  C   UNL     1       2.748  -6.681   2.303  0.00  0.00    +0.047 A 
ATOM     25  C   UNL     1       3.054  -8.025   2.387  0.00  0.00    +0.027 A 
ATOM     26  C   UNL     1       3.743  -8.512   3.490  0.00  0.00    +0.033 A 
ATOM     27  C   UNL     1       4.123  -7.646   4.508  0.00  0.00    +0.027 A 
ATOM     28  C   UNL     1       3.821  -6.302   4.420  0.00  0.00    +0.047 A 
BRANCH  23  29
ATOM     29  O   UNL     1       2.826  -4.494   3.236  0.00  0.00    -0.492 OA
BRANCH  29  30
ATOM     30  C   UNL     1       2.111  -4.064   2.076  0.00  0.00    +0.227 C 
BRANCH  30  31
ATOM     31  C   UNL     1       1.864  -2.556   2.159  0.00  0.00    +0.022 C 
BRANCH  31  32
ATOM     32  C   UNL     1       1.098  -2.096   0.917  0.00  0.00    -0.076 C 
BRANCH  32  33
ATOM     33  N   UNL     1       0.745  -0.677   1.058  0.00  0.00    +0.379 N 
ATOM     34  H   UNL     1       0.235  -0.541   1.918  0.00  0.00    -0.082 HD
BRANCH  33  36
ATOM     35  C   UNL     1       1.610   1.595   1.353  0.00  0.00    -0.017 C 
ATOM     36  C   UNL     1       1.970   0.133   1.082  0.00  0.00    -0.082 C 
ENDBRANCH  33  36
BRANCH  33  37
ATOM     37  C   UNL     1      -0.091  -0.266  -0.077  0.00  0.00    -0.082 C 
ATOM     38  C   UNL     1      -1.433  -0.999  -0.015  0.00  0.00    -0.017 C 
ENDBRANCH  33  37
ENDBRANCH  32  33
ENDBRANCH  31  32
ENDBRANCH  30  31
ENDBRANCH  29  30
ENDBRANCH  23  29
ENDBRANCH   1  26
TORSDOF 9
