REMARK  Name = CHEMBL346901
REMARK  5 active torsions:
REMARK  status: ('A' for Active; 'I' for Inactive)
REMARK    1  A    between atoms: C_2  and  C_13
REMARK    2  A    between atoms: C_3  and  N_10
REMARK    3  A    between atoms: C_13  and  O_14
REMARK    4  A    between atoms: C_13  and  P_15
REMARK    5  A    between atoms: P_15  and  O_18
REMARK                            x       y       z     vdW  Elec       q    Type
REMARK                         _______ _______ _______ _____ _____    ______ ____
ROOT
ATOM      1  C   UNL     1      -0.017   1.381   0.010  0.00  0.00    +0.058 A 
ATOM      2  C   UNL     1       1.171   2.089   0.002  0.00  0.00    +0.026 A 
ATOM      3  C   UNL     1       2.379   1.418  -0.013  0.00  0.00    +0.136 A 
ATOM      4  C   UNL     1       2.405   0.035  -0.021  0.00  0.00    +0.082 A 
ATOM      5  C   UNL     1       1.220  -0.680  -0.013  0.00  0.00    +0.168 A 
ATOM      6  C   UNL     1       0.002  -0.004   0.002  0.00  0.00    +0.167 A 
ATOM      7  O   UNL     1      -1.007  -0.923   0.007  0.00  0.00    -0.453 OA
ATOM      8  C   UNL     1      -0.403  -2.159  -0.418  0.00  0.00    +0.466 C 
ATOM      9  O   UNL     1       0.973  -2.023  -0.018  0.00  0.00    -0.453 OA
ENDROOT
BRANCH   3  10
ATOM     10  N   UNL     1       3.647   2.181  -0.022  0.00  0.00    +0.057 N 
ATOM     11  O   UNL     1       4.705   1.595  -0.035  0.00  0.00    -0.126 OA
ATOM     12  O   UNL     1       3.626   3.390  -0.015  0.00  0.00    -0.126 OA
ENDBRANCH   3  10
BRANCH   2  13
ATOM     13  C   UNL     1       1.148   3.596   0.010  0.00  0.00    +0.263 C 
BRANCH  13  14
ATOM     14  P   UNL     1      -0.526   4.180  -0.416  0.00  0.00    +0.390 P 
ATOM     15  O   UNL     1      -0.908   3.667  -1.822  0.00  0.00    -0.253 OA
ATOM     16  O   UNL     1      -1.538   3.644   0.621  0.00  0.00    -0.138 OA
BRANCH  14  17
ATOM     17  O   UNL     1      -0.550   5.790  -0.407  0.00  0.00    -0.321 OA
ATOM     18  H   UNL     1      -1.412   6.171  -0.625  0.00  0.00    +0.220 HD
ENDBRANCH  14  17
ENDBRANCH  13  14
BRANCH  13  19
ATOM     19  O   UNL     1       1.502   4.071   1.311  0.00  0.00    -0.375 OA
ATOM     20  H   UNL     1       0.908   3.772   2.013  0.00  0.00    +0.211 HD
ENDBRANCH  13  19
ENDBRANCH   2  13
TORSDOF 5
