REMARK  Name = CHEMBL522785
REMARK  9 active torsions:
REMARK  status: ('A' for Active; 'I' for Inactive)
REMARK    1  A    between atoms: C_1  and  C_2
REMARK    2  A    between atoms: C_4  and  N_8
REMARK    3  A    between atoms: C_13  and  O_37
REMARK    4  A    between atoms: C_14  and  O_35
REMARK    5  A    between atoms: C_17  and  N_19
REMARK    6  A    between atoms: N_19  and  C_20
REMARK    7  A    between atoms: C_24  and  C_26
REMARK    8  A    between atoms: O_35  and  C_36
REMARK    9  A    between atoms: O_37  and  C_38
REMARK                            x       y       z     vdW  Elec       q    Type
REMARK                         _______ _______ _______ _____ _____    ______ ____
ROOT
ATOM      1  N   UNL     1      -0.621  -3.358   1.601  0.00  0.00    -0.270 N 
ATOM      2  C   UNL     1      -0.323  -3.196   2.943  0.00  0.00    +0.200 A 
ATOM      3  N   UNL     1      -0.334  -1.978   3.451  0.00  0.00    -0.327 N 
ATOM      4  C   UNL     1      -0.050  -1.780   4.748  0.00  0.00    +0.056 A 
ATOM      5  C   UNL     1      -0.054  -0.500   5.316  0.00  0.00    +0.075 A 
ATOM      6  C   UNL     1       0.244  -0.350   6.652  0.00  0.00    +0.163 A 
ATOM      7  C   UNL     1       0.550  -1.463   7.447  0.00  0.00    +0.162 A 
ATOM      8  C   UNL     1       0.560  -2.720   6.913  0.00  0.00    +0.062 A 
ATOM      9  C   UNL     1       0.260  -2.901   5.557  0.00  0.00    +0.042 A 
ATOM     10  C   UNL     1       0.255  -4.183   4.957  0.00  0.00    +0.136 A 
ATOM     11  N   UNL     1      -0.043  -4.275   3.669  0.00  0.00    -0.200 NA
ATOM     12  H   UNL     1      -0.702  -4.250   1.226  0.00  0.00    +0.156 HD
ATOM     13  H   UNL     1      -0.548  -1.221   2.883  0.00  0.00    +0.169 HD
ENDROOT
BRANCH   1  17
ATOM     14  C   UNL     1      -2.314  -0.315  -1.973  0.00  0.00    +0.067 C 
ATOM     15  C   UNL     1      -1.541  -0.858  -0.799  0.00  0.00    +0.062 A 
ATOM     16  C   UNL     1      -1.672  -2.139  -0.257  0.00  0.00    +0.068 A 
ATOM     17  C   UNL     1      -0.804  -2.241   0.788  0.00  0.00    +0.121 A 
ATOM     18  N   UNL     1      -0.150  -1.056   0.892  0.00  0.00    -0.264 N 
ATOM     19  N   UNL     1      -0.629  -0.212  -0.118  0.00  0.00    -0.178 NA
ATOM     20  H   UNL     1       0.530  -0.834   1.547  0.00  0.00    +0.190 HD
ENDBRANCH   1  17
BRANCH  10  21
ATOM     21  N   UNL     1       0.550  -5.311   5.697  0.00  0.00    -0.299 N 
ATOM     22  H   UNL     1       0.676  -5.242   6.656  0.00  0.00    +0.154 HD
BRANCH  21  23
ATOM     23  C   UNL     1       0.667  -6.552   5.063  0.00  0.00    +0.033 A 
ATOM     24  C   UNL     1       1.169  -6.627   3.769  0.00  0.00    +0.023 A 
ATOM     25  C   UNL     1       1.286  -7.851   3.139  0.00  0.00    +0.002 A 
ATOM     26  C   UNL     1       0.904  -9.007   3.790  0.00  0.00    +0.010 A 
ATOM     27  C   UNL     1       0.399  -8.942   5.089  0.00  0.00    +0.009 A 
ATOM     28  C   UNL     1       0.287  -7.708   5.728  0.00  0.00    +0.033 A 
BRANCH  27  29
ATOM     29  C   UNL     1      -0.010 -10.179   5.788  0.00  0.00    +0.109 A 
ATOM     30  N   UNL     1      -0.508 -10.317   6.998  0.00  0.00    -0.239 NA
ATOM     31  C   UNL     1      -0.840 -11.517   7.512  0.00  0.00    +0.079 A 
ATOM     32  C   UNL     1      -1.380 -11.802   8.789  0.00  0.00    +0.029 A 
ATOM     33  C   UNL     1      -1.661 -13.080   9.157  0.00  0.00    +0.002 A 
ATOM     34  C   UNL     1      -1.433 -14.152   8.305  0.00  0.00    +0.001 A 
ATOM     35  C   UNL     1      -0.907 -13.917   7.048  0.00  0.00    +0.017 A 
ATOM     36  C   UNL     1      -0.619 -12.630   6.666  0.00  0.00    +0.040 A 
ATOM     37  S   UNL     1       0.039 -11.867   5.202  0.00  0.00    -0.067 S 
ENDBRANCH  27  29
ENDBRANCH  21  23
ENDBRANCH  10  21
BRANCH   7  38
ATOM     38  O   UNL     1       0.841  -1.290   8.764  0.00  0.00    -0.491 OA
ATOM     39  C   UNL     1       1.145  -2.463   9.521  0.00  0.00    +0.277 C 
ENDBRANCH   7  38
BRANCH   6  40
ATOM     40  O   UNL     1       0.241   0.891   7.206  0.00  0.00    -0.491 OA
ATOM     41  C   UNL     1      -0.078   1.985   6.345  0.00  0.00    +0.277 C 
ENDBRANCH   6  40
TORSDOF 6
