REMARK  Name = CHEMBL372219
REMARK  10 active torsions:
REMARK  status: ('A' for Active; 'I' for Inactive)
REMARK    1  A    between atoms: C_1  and  N_2
REMARK    2  A    between atoms: N_5  and  C_8
REMARK    3  A    between atoms: C_8  and  C_9
REMARK    4  A    between atoms: C_9  and  C_10
REMARK    5  A    between atoms: C_13  and  C_16
REMARK    6  A    between atoms: C_21  and  N_27
REMARK    7  A    between atoms: C_22  and  C_25
REMARK    8  A    between atoms: N_27  and  C_28
REMARK    9  A    between atoms: C_30  and  O_36
REMARK   10  A    between atoms: O_36  and  C_37
REMARK                            x       y       z     vdW  Elec       q    Type
REMARK                         _______ _______ _______ _____ _____    ______ ____
ROOT
ATOM      1  C   UNL     1       2.495 -13.023   4.881  0.00  0.00    +0.022 A 
ATOM      2  C   UNL     1       2.785 -12.967   3.554  0.00  0.00    +0.044 A 
ATOM      3  C   UNL     1       1.842 -13.407   2.609  0.00  0.00    +0.080 A 
ATOM      4  C   UNL     1       0.628 -13.887   3.146  0.00  0.00    +0.060 A 
ATOM      5  S   UNL     1       0.850 -13.716   4.899  0.00  0.00    -0.085 S 
ATOM      6  C   UNL     1      -0.396 -14.354   2.341  0.00  0.00    +0.066 A 
ATOM      7  C   UNL     1      -0.194 -14.338   0.945  0.00  0.00    +0.092 A 
ATOM      8  C   UNL     1       1.029 -13.852   0.462  0.00  0.00    +0.132 A 
ATOM      9  N   UNL     1       1.968 -13.422   1.259  0.00  0.00    -0.253 NA
ENDROOT
BRANCH   1  13
ATOM     10  C   UNL     1       4.912 -11.854   8.173  0.00  0.00    -0.049 A 
ATOM     11  C   UNL     1       3.610 -12.270   8.388  0.00  0.00    +0.004 A 
ATOM     12  C   UNL     1       2.819 -12.651   7.323  0.00  0.00    +0.009 A 
ATOM     13  C   UNL     1       3.336 -12.616   6.027  0.00  0.00    -0.011 A 
ATOM     14  C   UNL     1       4.650 -12.195   5.817  0.00  0.00    +0.009 A 
ATOM     15  C   UNL     1       5.428 -11.813   6.890  0.00  0.00    +0.004 A 
BRANCH  10  16
ATOM     16  C   UNL     1       5.769 -11.440   9.341  0.00  0.00    +0.016 C 
BRANCH  16  17
ATOM     17  C   UNL     1       5.596  -9.941   9.594  0.00  0.00    -0.074 C 
BRANCH  17  22
ATOM     18  C   UNL     1       9.312  -7.464  13.030  0.00  0.00    +0.104 C 
ATOM     19  N   UNL     1       8.453  -7.907  11.924  0.00  0.00    -0.309 NA
ATOM     20  C   UNL     1       7.033  -7.710  12.249  0.00  0.00    +0.065 C 
ATOM     21  C   UNL     1       6.176  -8.126  11.051  0.00  0.00    -0.063 C 
ATOM     22  N   UNL     1       6.432  -9.537  10.732  0.00  0.00    +0.382 N 
ATOM     23  C   UNL     1       7.848  -9.713  10.386  0.00  0.00    -0.063 C 
ATOM     24  C   UNL     1       8.719  -9.310  11.579  0.00  0.00    +0.065 C 
ATOM     25  H   UNL     1       6.208 -10.108  11.533  0.00  0.00    -0.082 HD
ENDBRANCH  17  22
ENDBRANCH  16  17
ENDBRANCH  10  16
ENDBRANCH   1  13
BRANCH   7  26
ATOM     26  C   UNL     1      -1.207 -14.805   0.047  0.00  0.00    +0.103 C 
ATOM     27  N   UNL     1      -2.011 -15.176  -0.665  0.00  0.00    -0.191 NA
ENDBRANCH   7  26
BRANCH   6  28
ATOM     28  N   UNL     1      -1.581 -14.821   2.889  0.00  0.00    -0.311 N 
ATOM     29  H   UNL     1      -1.647 -15.742   3.188  0.00  0.00    +0.152 HD
BRANCH  28  30
ATOM     30  C   UNL     1      -2.681 -13.966   3.009  0.00  0.00    +0.054 A 
ATOM     31  C   UNL     1      -2.627 -12.685   2.477  0.00  0.00    +0.071 A 
ATOM     32  C   UNL     1      -3.719 -11.841   2.598  0.00  0.00    +0.140 A 
ATOM     33  C   UNL     1      -4.865 -12.277   3.250  0.00  0.00    +0.084 A 
ATOM     34  C   UNL     1      -4.917 -13.553   3.780  0.00  0.00    +0.045 A 
ATOM     35  C   UNL     1      -3.832 -14.400   3.656  0.00  0.00    +0.064 A 
ATOM     36 CL   UNL     1      -3.904 -16.004   4.317  0.00  0.00    -0.082 Cl
ATOM     37 CL   UNL     1      -6.232 -11.218   3.401  0.00  0.00    -0.080 Cl
BRANCH  32  38
ATOM     38  O   UNL     1      -3.668 -10.585   2.078  0.00  0.00    -0.494 OA
ATOM     39  C   UNL     1      -2.444 -10.190   1.455  0.00  0.00    +0.277 C 
ENDBRANCH  32  38
ENDBRANCH  28  30
ENDBRANCH   6  28
TORSDOF 8
