REMARK  Name = CHEMBL104807
REMARK  8 active torsions:
REMARK  status: ('A' for Active; 'I' for Inactive)
REMARK    1  A    between atoms: C_1  and  C_2
REMARK    2  A    between atoms: C_5  and  C_8
REMARK    3  A    between atoms: N_15  and  C_17
REMARK    4  A    between atoms: C_21  and  C_23
REMARK    5  A    between atoms: N_25  and  C_26
REMARK    6  A    between atoms: C_26  and  C_27
REMARK    7  A    between atoms: C_30  and  P_37
REMARK    8  A    between atoms: C_31  and  P_33
REMARK                            x       y       z     vdW  Elec       q    Type
REMARK                         _______ _______ _______ _____ _____    ______ ____
ROOT
ATOM      1  C   UNL     1      -4.517   0.388   6.238  0.00  0.00    +0.064 C 
ATOM      2  C   UNL     1      -5.526   0.709   5.416  0.00  0.00    +0.001 C 
ATOM      3  C   UNL     1      -6.818   1.243   5.974  0.00  0.00    +0.034 C 
ATOM      4  C   UNL     1      -7.125   0.577   7.315  0.00  0.00    +0.044 C 
ATOM      5  C   UNL     1      -5.919   0.650   8.213  0.00  0.00    +0.017 C 
ATOM      6  C   UNL     1      -4.680   0.551   7.688  0.00  0.00    +0.036 C 
ENDROOT
BRANCH   1  14
ATOM      7  C   UNL     1      -1.827  -0.777   4.210  0.00  0.00    +0.105 A 
ATOM      8  C   UNL     1      -1.242  -0.906   5.544  0.00  0.00    +0.086 A 
ATOM      9  C   UNL     1      -0.006  -1.342   6.049  0.00  0.00    +0.131 A 
ATOM     10  N   UNL     1       0.181  -1.321   7.365  0.00  0.00    -0.220 NA
ATOM     11  C   UNL     1      -0.769  -0.902   8.183  0.00  0.00    +0.225 A 
ATOM     12  N   UNL     1      -1.941  -0.486   7.756  0.00  0.00    -0.216 NA
ATOM     13  C   UNL     1      -2.223  -0.469   6.454  0.00  0.00    +0.169 A 
ATOM     14  N   UNL     1      -3.314  -0.106   5.716  0.00  0.00    -0.214 N 
ATOM     15  N   UNL     1      -3.041  -0.300   4.357  0.00  0.00    -0.164 NA
ATOM     16  N   UNL     1       0.991  -1.781   5.199  0.00  0.00    -0.342 N 
ATOM     17  H   UNL     1       0.868  -1.727   4.238  0.00  0.00    +0.144 HD
ATOM     18  H   UNL     1       1.813  -2.144   5.563  0.00  0.00    +0.144 HD
BRANCH   7  23
ATOM     19  C   UNL     1      -1.609  -0.337  -0.291  0.00  0.00    +0.012 C 
ATOM     20  C   UNL     1      -0.435  -1.184   0.205  0.00  0.00    +0.012 C 
ATOM     21  C   UNL     1      -0.970  -2.455   0.863  0.00  0.00    +0.035 C 
ATOM     22  C   UNL     1      -1.646  -2.114   2.165  0.00  0.00    -0.016 C 
ATOM     23  C   UNL     1      -1.169  -1.117   2.927  0.00  0.00    -0.001 C 
ATOM     24  C   UNL     1       0.019  -0.361   2.476  0.00  0.00    +0.006 C 
ATOM     25  C   UNL     1       0.370  -0.389   1.198  0.00  0.00    -0.023 C 
ENDBRANCH   7  23
ENDBRANCH   1  14
BRANCH   5  26
ATOM     26  C   UNL     1      -6.091   0.824   9.656  0.00  0.00    +0.240 C 
ATOM     27  O   UNL     1      -5.116   0.883  10.383  0.00  0.00    -0.271 OA
ATOM     28  N   UNL     1      -7.329   0.917  10.181  0.00  0.00    -0.307 N 
ATOM     29  H   UNL     1      -8.106   0.870   9.602  0.00  0.00    +0.149 HD
BRANCH  28  30
ATOM     30  C   UNL     1      -7.501   1.091  11.625  0.00  0.00    +0.139 C 
BRANCH  30  31
ATOM     31  C   UNL     1      -8.971   1.167  11.950  0.00  0.00    -0.029 A 
ATOM     32  C   UNL     1      -9.616   2.390  11.954  0.00  0.00    +0.006 A 
ATOM     33  C   UNL     1     -10.963   2.460  12.252  0.00  0.00    +0.017 A 
ATOM     34  C   UNL     1     -11.667   1.307  12.546  0.00  0.00    +0.083 A 
ATOM     35  C   UNL     1     -11.023   0.084  12.540  0.00  0.00    +0.083 A 
ATOM     36  C   UNL     1      -9.676   0.013  12.238  0.00  0.00    +0.022 A 
BRANCH  35  37
ATOM     37  P   UNL     1     -11.946  -1.429  12.926  0.00  0.00    +0.417 P 
ATOM     38  O   UNL     1     -13.216  -1.513  12.012  0.00  0.00    -0.248 OA
ATOM     39  O   UNL     1     -11.035  -2.677  12.668  0.00  0.00    -0.135 OA
ATOM     40  O   UNL     1     -12.385  -1.405  14.429  0.00  0.00    -0.135 OA
ENDBRANCH  35  37
BRANCH  34  41
ATOM     41  P   UNL     1     -13.436   1.399  12.938  0.00  0.00    +0.417 P 
ATOM     42  O   UNL     1     -14.273   1.088  11.650  0.00  0.00    -0.248 OA
ATOM     43  O   UNL     1     -13.779   0.350  14.050  0.00  0.00    -0.135 OA
ATOM     44  O   UNL     1     -13.783   2.837  13.452  0.00  0.00    -0.135 OA
ENDBRANCH  34  41
ENDBRANCH  30  31
ENDBRANCH  28  30
ENDBRANCH   5  26
TORSDOF 7
