REMARK  Name = CHEMBL71144
REMARK  8 active torsions:
REMARK  status: ('A' for Active; 'I' for Inactive)
REMARK    1  A    between atoms: C_4  and  C_7
REMARK    2  A    between atoms: C_7  and  C_8
REMARK    3  A    between atoms: C_8  and  C_9
REMARK    4  A    between atoms: C_9  and  N_10
REMARK    5  A    between atoms: C_13  and  O_26
REMARK    6  A    between atoms: C_14  and  O_25
REMARK    7  A    between atoms: C_19  and  O_24
REMARK    8  A    between atoms: C_20  and  O_23
REMARK                            x       y       z     vdW  Elec       q    Type
REMARK                         _______ _______ _______ _____ _____    ______ ____
ROOT
ATOM      1  N   UNL     1       5.947  -1.955   2.757  0.00  0.00    -0.337 N 
ATOM      2  C   UNL     1       6.736  -1.094   3.502  0.00  0.00    +0.054 A 
ATOM      3  C   UNL     1       7.298   0.146   3.212  0.00  0.00    +0.075 A 
ATOM      4  C   UNL     1       8.058   0.801   4.162  0.00  0.00    +0.160 A 
ATOM      5  C   UNL     1       8.267   0.228   5.417  0.00  0.00    +0.159 A 
ATOM      6  C   UNL     1       7.715  -1.001   5.718  0.00  0.00    +0.059 A 
ATOM      7  C   UNL     1       6.947  -1.668   4.764  0.00  0.00    +0.011 A 
ATOM      8  C   UNL     1       6.233  -2.959   4.763  0.00  0.00    +0.012 A 
ATOM      9  C   UNL     1       5.631  -3.080   3.502  0.00  0.00    +0.096 A 
ATOM     10  C   UNL     1       4.875  -4.215   3.213  0.00  0.00    +0.183 A 
ATOM     11  C   UNL     1       4.721  -5.207   4.170  0.00  0.00    +0.160 A 
ATOM     12  C   UNL     1       5.318  -5.078   5.419  0.00  0.00    +0.050 A 
ATOM     13  C   UNL     1       6.076  -3.965   5.714  0.00  0.00    +0.014 A 
ENDROOT
BRANCH  11  14
ATOM     14  O   UNL     1       3.983  -6.313   3.885  0.00  0.00    -0.503 OA
ATOM     15  H   UNL     1       4.493  -7.037   3.499  0.00  0.00    +0.292 HD
ENDBRANCH  11  14
BRANCH  10  16
ATOM     16  O   UNL     1       4.286  -4.348   1.993  0.00  0.00    -0.502 OA
ATOM     17  H   UNL     1       4.840  -4.792   1.336  0.00  0.00    +0.292 HD
ENDBRANCH  10  16
BRANCH   5  18
ATOM     18  O   UNL     1       9.017   0.881   6.346  0.00  0.00    -0.503 OA
ATOM     19  H   UNL     1       8.508   1.471   6.918  0.00  0.00    +0.292 HD
ENDBRANCH   5  18
BRANCH   4  20
ATOM     20  O   UNL     1       8.606   2.011   3.872  0.00  0.00    -0.503 OA
ATOM     21  H   UNL     1       8.038   2.763   4.093  0.00  0.00    +0.292 HD
ENDBRANCH   4  20
BRANCH   1  22
ATOM     22  C   UNL     1       5.507  -1.710   1.381  0.00  0.00    +0.123 C 
BRANCH  22  23
ATOM     23  C   UNL     1       4.171  -0.963   1.399  0.00  0.00    +0.026 C 
BRANCH  23  24
ATOM     24  C   UNL     1       3.711  -0.707  -0.038  0.00  0.00    +0.037 C 
BRANCH  24  28
ATOM     25  C   UNL     1      -0.017   1.378   0.010  0.00  0.00    +0.000 A 
ATOM     26  C   UNL     1       1.171   2.086   0.002  0.00  0.00    +0.000 A 
ATOM     27  C   UNL     1       2.377   1.411  -0.013  0.00  0.00    +0.003 A 
ATOM     28  C   UNL     1       2.396   0.029  -0.020  0.00  0.00    -0.047 A 
ATOM     29  C   UNL     1       1.208  -0.679  -0.012  0.00  0.00    +0.003 A 
ATOM     30  C   UNL     1       0.002  -0.004   0.002  0.00  0.00    +0.000 A 
ENDBRANCH  24  28
ENDBRANCH  23  24
ENDBRANCH  22  23
ENDBRANCH   1  22
TORSDOF 8
