REMARK  Name = CHEMBL193392
REMARK  9 active torsions:
REMARK  status: ('A' for Active; 'I' for Inactive)
REMARK    1  A    between atoms: C_1  and  N_2
REMARK    2  A    between atoms: N_5  and  C_8
REMARK    3  A    between atoms: C_8  and  C_9
REMARK    4  A    between atoms: C_13  and  C_15
REMARK    5  A    between atoms: C_20  and  N_26
REMARK    6  A    between atoms: C_21  and  C_24
REMARK    7  A    between atoms: N_26  and  C_27
REMARK    8  A    between atoms: C_29  and  O_35
REMARK    9  A    between atoms: O_35  and  C_36
REMARK                            x       y       z     vdW  Elec       q    Type
REMARK                         _______ _______ _______ _____ _____    ______ ____
ROOT
ATOM      1  C   UNL     1      -1.680  -3.216   9.371  0.00  0.00    +0.022 A 
ATOM      2  C   UNL     1      -1.153  -4.468   9.423  0.00  0.00    +0.044 A 
ATOM      3  C   UNL     1      -1.942  -5.578   9.076  0.00  0.00    +0.080 A 
ATOM      4  C   UNL     1      -3.267  -5.279   8.688  0.00  0.00    +0.060 A 
ATOM      5  S   UNL     1      -3.353  -3.512   8.827  0.00  0.00    -0.085 S 
ATOM      6  C   UNL     1      -4.163  -6.266   8.318  0.00  0.00    +0.066 A 
ATOM      7  C   UNL     1      -3.713  -7.604   8.338  0.00  0.00    +0.092 A 
ATOM      8  C   UNL     1      -2.390  -7.847   8.730  0.00  0.00    +0.132 A 
ATOM      9  N   UNL     1      -1.579  -6.884   9.072  0.00  0.00    -0.253 NA
ENDROOT
BRANCH   1  14
ATOM     10  C   UNL     1      -1.093   0.471   9.777  0.00  0.00    -0.063 A 
ATOM     11  C   UNL     1       0.191   0.484  10.294  0.00  0.00    +0.002 A 
ATOM     12  C   UNL     1       0.867  -0.702  10.512  0.00  0.00    +0.001 A 
ATOM     13  C   UNL     1       0.265  -1.908  10.214  0.00  0.00    +0.009 A 
ATOM     14  C   UNL     1      -1.029  -1.928   9.693  0.00  0.00    -0.011 A 
ATOM     15  C   UNL     1      -1.708  -0.727   9.480  0.00  0.00    +0.010 A 
BRANCH  10  16
ATOM     16  C   UNL     1      -1.822   1.769   9.542  0.00  0.00    -0.043 C 
BRANCH  16  21
ATOM     17  C   UNL     1      -3.962   4.371  14.059  0.00  0.00    +0.104 C 
ATOM     18  N   UNL     1      -3.240   3.956  12.849  0.00  0.00    -0.309 NA
ATOM     19  C   UNL     1      -4.170   3.705  11.739  0.00  0.00    +0.065 C 
ATOM     20  C   UNL     1      -3.376   3.335  10.485  0.00  0.00    -0.063 C 
ATOM     21  N   UNL     1      -2.571   2.135  10.752  0.00  0.00    +0.384 N 
ATOM     22  C   UNL     1      -1.630   2.409  11.846  0.00  0.00    -0.063 C 
ATOM     23  C   UNL     1      -2.410   2.772  13.111  0.00  0.00    +0.065 C 
ATOM     24  H   UNL     1      -3.179   1.374  11.014  0.00  0.00    -0.081 HD
ENDBRANCH  16  21
ENDBRANCH  10  16
ENDBRANCH   1  14
BRANCH   7  25
ATOM     25  C   UNL     1      -4.582  -8.680   7.968  0.00  0.00    +0.103 C 
ATOM     26  N   UNL     1      -5.272  -9.534   7.676  0.00  0.00    -0.191 NA
ENDBRANCH   7  25
BRANCH   6  27
ATOM     27  N   UNL     1      -5.459  -5.951   7.940  0.00  0.00    -0.311 N 
ATOM     28  H   UNL     1      -6.147  -5.840   8.614  0.00  0.00    +0.152 HD
BRANCH  27  29
ATOM     29  C   UNL     1      -5.775  -5.796   6.587  0.00  0.00    +0.054 A 
ATOM     30  C   UNL     1      -4.822  -6.069   5.615  0.00  0.00    +0.071 A 
ATOM     31  C   UNL     1      -5.138  -5.913   4.275  0.00  0.00    +0.140 A 
ATOM     32  C   UNL     1      -6.407  -5.486   3.906  0.00  0.00    +0.084 A 
ATOM     33  C   UNL     1      -7.356  -5.214   4.875  0.00  0.00    +0.045 A 
ATOM     34  C   UNL     1      -7.045  -5.373   6.213  0.00  0.00    +0.064 A 
ATOM     35 CL   UNL     1      -8.241  -5.038   7.426  0.00  0.00    -0.082 Cl
ATOM     36 CL   UNL     1      -6.802  -5.291   2.227  0.00  0.00    -0.080 Cl
BRANCH  31  37
ATOM     37  O   UNL     1      -4.207  -6.180   3.321  0.00  0.00    -0.494 OA
ATOM     38  C   UNL     1      -2.912  -6.581   3.773  0.00  0.00    +0.277 C 
ENDBRANCH  31  37
ENDBRANCH  27  29
ENDBRANCH   6  27
TORSDOF 7
