REMARK  Name = CHEMBL442485
REMARK  12 active torsions:
REMARK  status: ('A' for Active; 'I' for Inactive)
REMARK    1  A    between atoms: C_1  and  C_2
REMARK    2  A    between atoms: C_6  and  C_42
REMARK    3  A    between atoms: C_7  and  O_8
REMARK    4  A    between atoms: O_8  and  C_9
REMARK    5  A    between atoms: N_11  and  C_32
REMARK    6  A    between atoms: N_18  and  C_19
REMARK    7  A    between atoms: C_22  and  N_25
REMARK    8  A    between atoms: N_28  and  C_31
REMARK    9  A    between atoms: C_34  and  O_40
REMARK   10  A    between atoms: C_37  and  O_38
REMARK   11  A    between atoms: O_38  and  C_39
REMARK   12  A    between atoms: O_40  and  C_41
REMARK                            x       y       z     vdW  Elec       q    Type
REMARK                         _______ _______ _______ _____ _____    ______ ____
ROOT
ATOM      1  C   UNL     1      -1.019   0.611   3.110  0.00  0.00    +0.418 C 
ATOM      2  O   UNL     1      -2.045   0.411   2.491  0.00  0.00    -0.225 OA
ATOM      3  N   UNL     1      -1.072   1.114   4.359  0.00  0.00    -0.186 N 
ATOM      4  C   UNL     1      -2.293   1.501   4.902  0.00  0.00    +0.140 A 
ATOM      5  C   UNL     1      -2.805   2.776   4.656  0.00  0.00    +0.064 A 
ATOM      6  C   UNL     1      -4.022   3.117   5.215  0.00  0.00    +0.118 A 
ATOM      7  N   UNL     1      -4.662   2.231   5.963  0.00  0.00    -0.223 NA
ATOM      8  C   UNL     1      -4.152   1.027   6.179  0.00  0.00    +0.221 A 
ATOM      9  N   UNL     1      -2.991   0.660   5.657  0.00  0.00    -0.198 NA
ATOM     10  N   UNL     1      -4.853   0.129   6.967  0.00  0.00    -0.284 N 
ATOM     11  H   UNL     1      -4.457  -0.726   7.196  0.00  0.00    +0.155 HD
ENDROOT
BRANCH  10  12
ATOM     12  C   UNL     1      -6.133   0.456   7.433  0.00  0.00    +0.034 A 
ATOM     13  C   UNL     1      -6.976   1.239   6.655  0.00  0.00    +0.025 A 
ATOM     14  C   UNL     1      -8.237   1.562   7.114  0.00  0.00    +0.025 A 
ATOM     15  C   UNL     1      -8.664   1.102   8.353  0.00  0.00    +0.030 A 
ATOM     16  C   UNL     1      -7.821   0.318   9.130  0.00  0.00    +0.025 A 
ATOM     17  C   UNL     1      -6.561  -0.009   8.669  0.00  0.00    +0.025 A 
BRANCH  15  18
ATOM     18  N   UNL     1      -9.942   1.429   8.819  0.00  0.00    -0.327 N 
ATOM     19  C   UNL     1     -10.367   1.063  10.179  0.00  0.00    +0.120 C 
ATOM     20  C   UNL     1     -10.926   2.314  10.867  0.00  0.00    +0.103 C 
ATOM     21  N   UNL     1     -11.976   2.903  10.026  0.00  0.00    -0.302 NA
ATOM     22  C   UNL     1     -11.435   3.354   8.736  0.00  0.00    +0.103 C 
ATOM     23  C   UNL     1     -10.895   2.152   7.963  0.00  0.00    +0.120 C 
ATOM     24  C   UNL     1     -12.655   4.002  10.725  0.00  0.00    +0.105 C 
ENDBRANCH  15  18
ENDBRANCH  10  12
BRANCH   3  25
ATOM     25  C   UNL     1       0.104   1.246   5.112  0.00  0.00    +0.091 A 
ATOM     26  C   UNL     1       0.839   2.421   5.051  0.00  0.00    +0.073 A 
ATOM     27  C   UNL     1       2.001   2.549   5.797  0.00  0.00    +0.122 A 
ATOM     28  C   UNL     1       2.428   1.504   6.603  0.00  0.00    +0.049 A 
ATOM     29  C   UNL     1       1.697   0.332   6.665  0.00  0.00    +0.051 A 
ATOM     30  C   UNL     1       0.532   0.201   5.927  0.00  0.00    +0.142 A 
BRANCH  30  31
ATOM     31  O   UNL     1      -0.191  -0.950   5.993  0.00  0.00    -0.493 OA
ATOM     32  C   UNL     1       0.308  -1.980   6.849  0.00  0.00    +0.277 C 
ENDBRANCH  30  31
BRANCH  27  33
ATOM     33  O   UNL     1       2.722   3.700   5.738  0.00  0.00    -0.495 OA
ATOM     34  C   UNL     1       3.909   3.763   6.532  0.00  0.00    +0.277 C 
ENDBRANCH  27  33
ENDBRANCH   3  25
BRANCH   1  35
ATOM     35  O   UNL     1       0.172   0.332   2.546  0.00  0.00    -0.410 OA
BRANCH  35  42
ATOM     36  C   UNL     1       0.285   2.173   0.407  0.00  0.00    +0.047 C 
ATOM     37  C   UNL     1       0.233   0.682   0.194  0.00  0.00    -0.008 A 
ATOM     38  C   UNL     1       0.245   0.166  -1.088  0.00  0.00    +0.007 A 
ATOM     39  C   UNL     1       0.197  -1.202  -1.284  0.00  0.00    +0.001 A 
ATOM     40  C   UNL     1       0.137  -2.057  -0.199  0.00  0.00    +0.007 A 
ATOM     41  C   UNL     1       0.125  -1.545   1.085  0.00  0.00    -0.008 A 
ATOM     42  C   UNL     1       0.178  -0.174   1.284  0.00  0.00    +0.139 A 
ATOM     43  C   UNL     1       0.059  -2.478   2.267  0.00  0.00    +0.047 C 
ENDBRANCH  35  42
ENDBRANCH   1  35
TORSDOF 7
