REMARK  Name = CHEMBL499623
REMARK  9 active torsions:
REMARK  status: ('A' for Active; 'I' for Inactive)
REMARK    1  A    between atoms: C_1  and  N_2
REMARK    2  A    between atoms: N_5  and  C_8
REMARK    3  A    between atoms: C_8  and  C_9
REMARK    4  A    between atoms: C_9  and  O_10
REMARK    5  A    between atoms: O_10  and  C_11
REMARK    6  A    between atoms: C_16  and  O_17
REMARK    7  A    between atoms: O_17  and  C_18
REMARK    8  A    between atoms: C_19  and  N_25
REMARK    9  A    between atoms: C_20  and  C_23
REMARK                            x       y       z     vdW  Elec       q    Type
REMARK                         _______ _______ _______ _____ _____    ______ ____
ROOT
ATOM      1  C   UNL     1       2.707  -2.134   7.212  0.00  0.00    +0.164 A 
ATOM      2  C   UNL     1       2.817  -3.383   6.645  0.00  0.00    +0.077 A 
ATOM      3  C   UNL     1       2.069  -4.451   7.162  0.00  0.00    +0.077 A 
ATOM      4  C   UNL     1       1.210  -4.222   8.264  0.00  0.00    +0.027 A 
ATOM      5  C   UNL     1       1.116  -2.939   8.824  0.00  0.00    +0.061 A 
ATOM      6  C   UNL     1       1.858  -1.917   8.306  0.00  0.00    +0.162 A 
ATOM      7  C   UNL     1       0.457  -5.300   8.784  0.00  0.00    +0.061 A 
ATOM      8  C   UNL     1       0.603  -6.554   8.173  0.00  0.00    +0.092 A 
ATOM      9  C   UNL     1       1.479  -6.691   7.084  0.00  0.00    +0.132 A 
ATOM     10  N   UNL     1       2.164  -5.675   6.623  0.00  0.00    -0.253 NA
ENDROOT
BRANCH   7  11
ATOM     11  N   UNL     1      -0.395  -5.124   9.858  0.00  0.00    -0.292 N 
ATOM     12  C   UNL     1       0.073  -5.303  11.147  0.00  0.00    +0.163 A 
ATOM     13  N   UNL     1       1.262  -5.694  11.545  0.00  0.00    -0.225 NA
ATOM     14  C   UNL     1       1.582  -5.826  12.851  0.00  0.00    +0.080 A 
ATOM     15  C   UNL     1       2.815  -6.235  13.409  0.00  0.00    +0.029 A 
ATOM     16  C   UNL     1       2.975  -6.318  14.768  0.00  0.00    +0.002 A 
ATOM     17  C   UNL     1       1.942  -6.006  15.640  0.00  0.00    +0.001 A 
ATOM     18  C   UNL     1       0.723  -5.602  15.128  0.00  0.00    +0.017 A 
ATOM     19  C   UNL     1       0.553  -5.516  13.769  0.00  0.00    +0.041 A 
ATOM     20  S   UNL     1      -0.785  -5.055  12.695  0.00  0.00    -0.052 S 
ATOM     21  H   UNL     1      -1.320  -4.875   9.708  0.00  0.00    +0.154 HD
ENDBRANCH   7  11
BRANCH   6  22
ATOM     22  O   UNL     1       1.769  -0.675   8.854  0.00  0.00    -0.491 OA
ATOM     23  C   UNL     1       0.887  -0.519   9.967  0.00  0.00    +0.277 C 
ENDBRANCH   6  22
BRANCH   8  24
ATOM     24  C   UNL     1      -0.133  -7.684   8.656  0.00  0.00    +0.103 C 
ATOM     25  N   UNL     1      -0.717  -8.580   9.038  0.00  0.00    -0.191 NA
ENDBRANCH   8  24
BRANCH   1  26
ATOM     26  O   UNL     1       3.432  -1.101   6.709  0.00  0.00    -0.487 OA
BRANCH  26  27
ATOM     27  C   UNL     1       4.279  -1.385   5.593  0.00  0.00    +0.244 C 
BRANCH  27  28
ATOM     28  C   UNL     1       5.010  -0.110   5.170  0.00  0.00    +0.125 C 
BRANCH  28  33
ATOM     29  C   UNL     1       9.302   1.545   8.424  0.00  0.00    -0.096 C 
ATOM     30  N   UNL     1       8.439   1.122   7.313  0.00  0.00    +0.379 N 
ATOM     31  C   UNL     1       7.344   2.087   7.149  0.00  0.00    -0.064 C 
ATOM     32  C   UNL     1       6.456   1.657   5.980  0.00  0.00    +0.066 C 
ATOM     33  N   UNL     1       5.915   0.316   6.246  0.00  0.00    -0.303 NA
ATOM     34  C   UNL     1       7.001  -0.656   6.437  0.00  0.00    +0.066 C 
ATOM     35  C   UNL     1       7.884  -0.207   7.603  0.00  0.00    -0.064 C 
ATOM     36  H   UNL     1       8.981   1.082   6.463  0.00  0.00    -0.082 HD
ENDBRANCH  28  33
ENDBRANCH  27  28
ENDBRANCH  26  27
ENDBRANCH   1  26
TORSDOF 7
