REMARK  Name = CHEMBL215726
REMARK  9 active torsions:
REMARK  status: ('A' for Active; 'I' for Inactive)
REMARK    1  A    between atoms: C_1  and  C_2
REMARK    2  A    between atoms: C_6  and  C_44
REMARK    3  A    between atoms: C_7  and  O_8
REMARK    4  A    between atoms: O_8  and  C_9
REMARK    5  A    between atoms: N_11  and  C_12
REMARK    6  A    between atoms: C_16  and  C_18
REMARK    7  A    between atoms: N_30  and  C_31
REMARK    8  A    between atoms: C_34  and  N_37
REMARK    9  A    between atoms: N_40  and  C_43
REMARK                            x       y       z     vdW  Elec       q    Type
REMARK                         _______ _______ _______ _____ _____    ______ ____
ROOT
ATOM      1  C   UNL     1      -1.269   0.227   3.005  0.00  0.00    +0.418 C 
ATOM      2  O   UNL     1      -2.352   0.000   2.504  0.00  0.00    -0.225 OA
ATOM      3  N   UNL     1      -1.188   0.964   4.131  0.00  0.00    -0.189 N 
ATOM      4  C   UNL     1       0.040   1.137   4.762  0.00  0.00    +0.140 A 
ATOM      5  C   UNL     1       0.509   0.186   5.670  0.00  0.00    +0.064 A 
ATOM      6  C   UNL     1       1.734   0.399   6.273  0.00  0.00    +0.118 A 
ATOM      7  N   UNL     1       2.422   1.490   5.975  0.00  0.00    -0.223 NA
ATOM      8  C   UNL     1       1.952   2.376   5.109  0.00  0.00    +0.221 A 
ATOM      9  N   UNL     1       0.784   2.206   4.506  0.00  0.00    -0.198 NA
ATOM     10  N   UNL     1       2.701   3.505   4.824  0.00  0.00    -0.284 N 
ATOM     11  H   UNL     1       2.389   4.139   4.158  0.00  0.00    +0.155 HD
ENDROOT
BRANCH   3  12
ATOM     12  C   UNL     1      -2.340   1.555   4.665  0.00  0.00    +0.046 A 
ATOM     13  C   UNL     1      -3.360   0.758   5.172  0.00  0.00    +0.024 A 
ATOM     14  C   UNL     1      -4.497   1.338   5.700  0.00  0.00    +0.002 A 
ATOM     15  C   UNL     1      -4.628   2.712   5.727  0.00  0.00    +0.008 A 
ATOM     16  C   UNL     1      -3.611   3.519   5.221  0.00  0.00    -0.016 A 
ATOM     17  C   UNL     1      -2.461   2.936   4.694  0.00  0.00    +0.032 A 
BRANCH  16  18
ATOM     18  C   UNL     1      -3.749   4.996   5.248  0.00  0.00    -0.018 A 
ATOM     19  C   UNL     1      -2.735   5.804   4.738  0.00  0.00    +0.008 A 
ATOM     20  C   UNL     1      -2.870   7.177   4.766  0.00  0.00    +0.001 A 
ATOM     21  C   UNL     1      -4.009   7.752   5.300  0.00  0.00    +0.000 A 
ATOM     22  C   UNL     1      -5.018   6.956   5.809  0.00  0.00    +0.001 A 
ATOM     23  C   UNL     1      -4.897   5.581   5.780  0.00  0.00    +0.008 A 
ENDBRANCH  16  18
ENDBRANCH   3  12
BRANCH  10  24
ATOM     24  C   UNL     1       3.908   3.733   5.496  0.00  0.00    +0.034 A 
ATOM     25  C   UNL     1       4.730   2.664   5.828  0.00  0.00    +0.025 A 
ATOM     26  C   UNL     1       5.921   2.889   6.491  0.00  0.00    +0.025 A 
ATOM     27  C   UNL     1       6.296   4.183   6.825  0.00  0.00    +0.030 A 
ATOM     28  C   UNL     1       5.474   5.252   6.493  0.00  0.00    +0.025 A 
ATOM     29  C   UNL     1       4.286   5.028   5.826  0.00  0.00    +0.025 A 
BRANCH  27  30
ATOM     30  N   UNL     1       7.503   4.411   7.497  0.00  0.00    -0.333 N 
ATOM     31  C   UNL     1       7.854   5.752   7.988  0.00  0.00    +0.086 C 
ATOM     32  C   UNL     1       8.267   5.638   9.459  0.00  0.00    -0.060 C 
ATOM     33  N   UNL     1       9.340   4.645   9.590  0.00  0.00    +0.380 N 
ATOM     34  C   UNL     1       8.840   3.316   9.216  0.00  0.00    -0.060 C 
ATOM     35  C   UNL     1       8.453   3.314   7.738  0.00  0.00    +0.086 C 
ATOM     36  C   UNL     1       9.810   4.615  10.981  0.00  0.00    -0.096 C 
ATOM     37  H   UNL     1      10.106   4.897   8.984  0.00  0.00    -0.082 HD
ENDBRANCH  27  30
ENDBRANCH  10  24
BRANCH   1  38
ATOM     38  O   UNL     1      -0.149  -0.258   2.436  0.00  0.00    -0.410 OA
BRANCH  38  45
ATOM     39  C   UNL     1      -0.071   1.120  -0.030  0.00  0.00    +0.047 C 
ATOM     40  C   UNL     1      -0.247  -0.374   0.061  0.00  0.00    -0.008 A 
ATOM     41  C   UNL     1      -0.372  -1.127  -1.090  0.00  0.00    +0.007 A 
ATOM     42  C   UNL     1      -0.534  -2.498  -1.008  0.00  0.00    +0.001 A 
ATOM     43  C   UNL     1      -0.571  -3.118   0.227  0.00  0.00    +0.007 A 
ATOM     44  C   UNL     1      -0.445  -2.370   1.382  0.00  0.00    -0.008 A 
ATOM     45  C   UNL     1      -0.278  -0.995   1.301  0.00  0.00    +0.139 A 
ATOM     46  C   UNL     1      -0.485  -3.048   2.727  0.00  0.00    +0.047 C 
ENDBRANCH  38  45
ENDBRANCH   1  38
TORSDOF 6
