REMARK  Name = CHEMBL370371
REMARK  8 active torsions:
REMARK  status: ('A' for Active; 'I' for Inactive)
REMARK    1  A    between atoms: C_1  and  O_2
REMARK    2  A    between atoms: O_2  and  C_3
REMARK    3  A    between atoms: C_5  and  N_11
REMARK    4  A    between atoms: N_11  and  C_12
REMARK    5  A    between atoms: C_13  and  C_33
REMARK    6  A    between atoms: C_19  and  C_21
REMARK    7  A    between atoms: C_24  and  C_26
REMARK    8  A    between atoms: C_26  and  N_27
REMARK                            x       y       z     vdW  Elec       q    Type
REMARK                         _______ _______ _______ _____ _____    ______ ____
ROOT
ATOM      1  C   UNL     1      -4.948   1.738   0.232  0.00  0.00    +0.066 A 
ATOM      2  C   UNL     1      -3.799   2.458   0.626  0.00  0.00    +0.092 A 
ATOM      3  C   UNL     1      -3.917   3.844   0.799  0.00  0.00    +0.132 A 
ATOM      4  N   UNL     1      -5.043   4.473   0.608  0.00  0.00    -0.253 NA
ATOM      5  C   UNL     1      -6.185   3.846   0.229  0.00  0.00    +0.081 A 
ATOM      6  C   UNL     1      -6.117   2.449   0.036  0.00  0.00    +0.061 A 
ATOM      7  S   UNL     1      -7.767   2.013  -0.451  0.00  0.00    -0.082 S 
ATOM      8  C   UNL     1      -8.489   3.644  -0.397  0.00  0.00    +0.057 A 
ATOM      9  C   UNL     1      -7.444   4.425  -0.002  0.00  0.00    +0.047 A 
ENDROOT
BRANCH   8  10
ATOM     10  C   UNL     1      -9.873   4.045  -0.694  0.00  0.00    +0.142 A 
ATOM     11  C   UNL     1     -10.884   3.213  -1.069  0.00  0.00    +0.051 A 
ATOM     12  C   UNL     1     -12.026   4.017  -1.247  0.00  0.00    +0.046 A 
ATOM     13  C   UNL     1     -11.662   5.287  -0.975  0.00  0.00    +0.120 A 
ATOM     14  O   UNL     1     -10.363   5.300  -0.636  0.00  0.00    -0.458 OA
BRANCH  13  15
ATOM     15  C   UNL     1     -12.565   6.492  -1.036  0.00  0.00    +0.158 C 
BRANCH  15  16
ATOM     16  N   UNL     1     -13.198   6.696   0.273  0.00  0.00    -0.299 NA
ATOM     17  C   UNL     1     -12.202   7.064   1.288  0.00  0.00    +0.066 C 
ATOM     18  C   UNL     1     -12.891   7.209   2.647  0.00  0.00    -0.067 C 
ATOM     19  N   UNL     1     -13.932   8.242   2.560  0.00  0.00    +0.381 N 
ATOM     20  C   UNL     1     -14.933   7.849   1.560  0.00  0.00    -0.067 C 
ATOM     21  C   UNL     1     -14.260   7.709   0.193  0.00  0.00    +0.066 C 
ATOM     22  H   UNL     1     -14.378   8.346   3.459  0.00  0.00    -0.086 HD
ATOM     23  H   UNL     1     -13.513   9.119   2.289  0.00  0.00    -0.086 HD
ENDBRANCH  15  16
ENDBRANCH  13  15
ENDBRANCH   8  10
BRANCH   1  24
ATOM     24  N   UNL     1      -4.903   0.365   0.042  0.00  0.00    -0.311 N 
ATOM     25  H   UNL     1      -4.175  -0.153   0.418  0.00  0.00    +0.152 HD
BRANCH  24  28
ATOM     26  C   UNL     1      -7.841  -1.695  -0.772  0.00  0.00    +0.140 A 
ATOM     27  C   UNL     1      -6.845  -1.065  -0.042  0.00  0.00    +0.071 A 
ATOM     28  C   UNL     1      -5.909  -0.273  -0.691  0.00  0.00    +0.054 A 
ATOM     29  C   UNL     1      -5.972  -0.113  -2.071  0.00  0.00    +0.064 A 
ATOM     30  C   UNL     1      -6.966  -0.743  -2.795  0.00  0.00    +0.045 A 
ATOM     31  C   UNL     1      -7.897  -1.537  -2.150  0.00  0.00    +0.084 A 
ATOM     32 CL   UNL     1      -9.140  -2.333  -3.064  0.00  0.00    -0.080 Cl
ATOM     33 CL   UNL     1      -4.802   0.879  -2.884  0.00  0.00    -0.082 Cl
BRANCH  26  35
ATOM     34  C   UNL     1      -8.710  -2.503   1.289  0.00  0.00    +0.277 C 
ATOM     35  O   UNL     1      -8.760  -2.472  -0.139  0.00  0.00    -0.494 OA
ENDBRANCH  26  35
ENDBRANCH  24  28
ENDBRANCH   1  24
BRANCH   2  36
ATOM     36  C   UNL     1      -2.550   1.792   0.844  0.00  0.00    +0.103 C 
ATOM     37  N   UNL     1      -1.559   1.263   1.016  0.00  0.00    -0.191 NA
ENDBRANCH   2  36
TORSDOF 7
