REMARK  Name = CHEMBL1088153
REMARK  10 active torsions:
REMARK  status: ('A' for Active; 'I' for Inactive)
REMARK    1  A    between atoms: C_1  and  C_2
REMARK    2  A    between atoms: C_5  and  N_25
REMARK    3  A    between atoms: C_7  and  N_8
REMARK    4  A    between atoms: C_20  and  N_24
REMARK    5  A    between atoms: C_26  and  C_28
REMARK    6  A    between atoms: C_30  and  C_34
REMARK    7  A    between atoms: N_32  and  C_33
REMARK    8  A    between atoms: C_34  and  C_35
REMARK    9  A    between atoms: C_34  and  C_36
REMARK   10  A    between atoms: C_34  and  C_37
REMARK                            x       y       z     vdW  Elec       q    Type
REMARK                         _______ _______ _______ _____ _____    ______ ____
ROOT
ATOM      1  C   UNL     1       0.707   1.963  -1.415  0.00  0.00    +0.045 C 
ATOM      2  C   UNL     1      -0.667   1.457  -1.061  0.00  0.00    -0.029 A 
ATOM      3  C   UNL     1      -1.204   0.382  -1.744  0.00  0.00    +0.007 A 
ATOM      4  C   UNL     1      -2.464  -0.085  -1.423  0.00  0.00    +0.024 A 
ATOM      5  C   UNL     1      -3.195   0.524  -0.410  0.00  0.00    +0.035 A 
ATOM      6  C   UNL     1      -2.659   1.603   0.278  0.00  0.00    +0.047 A 
ATOM      7  C   UNL     1      -1.391   2.067  -0.044  0.00  0.00    +0.038 A 
ENDROOT
BRANCH   7   8
ATOM      8  N   UNL     1      -0.845   3.150   0.651  0.00  0.00    -0.286 N 
ATOM      9  C   UNL     1      -1.115   3.315   1.994  0.00  0.00    +0.184 A 
ATOM     10  N   UNL     1      -0.603   2.594   2.959  0.00  0.00    -0.327 N 
ATOM     11  C   UNL     1      -1.082   3.024   4.156  0.00  0.00    +0.066 A 
ATOM     12  C   UNL     1      -0.869   2.618   5.476  0.00  0.00    +0.028 A 
ATOM     13  C   UNL     1      -1.516   3.266   6.504  0.00  0.00    +0.002 A 
ATOM     14  C   UNL     1      -2.378   4.320   6.240  0.00  0.00    +0.002 A 
ATOM     15  C   UNL     1      -2.598   4.734   4.942  0.00  0.00    +0.028 A 
ATOM     16  C   UNL     1      -1.955   4.093   3.895  0.00  0.00    +0.074 A 
ATOM     17  N   UNL     1      -1.955   4.262   2.517  0.00  0.00    -0.266 N 
ATOM     18  C   UNL     1      -2.676   5.215   1.801  0.00  0.00    +0.145 A 
ATOM     19  C   UNL     1      -2.695   5.187   0.411  0.00  0.00    +0.090 A 
ATOM     20  C   UNL     1      -3.430   6.162  -0.258  0.00  0.00    +0.121 A 
ATOM     21  N   UNL     1      -4.085   7.078   0.452  0.00  0.00    -0.221 NA
ATOM     22  C   UNL     1      -4.043   7.070   1.769  0.00  0.00    +0.225 A 
ATOM     23  N   UNL     1      -3.362   6.161   2.438  0.00  0.00    -0.218 NA
ATOM     24  H   UNL     1      -0.276   3.785   0.189  0.00  0.00    +0.155 HD
ATOM     25  H   UNL     1       0.023   1.863   2.838  0.00  0.00    +0.169 HD
BRANCH  20  26
ATOM     26  N   UNL     1      -3.480   6.178  -1.643  0.00  0.00    -0.343 N 
ATOM     27  H   UNL     1      -3.000   5.507  -2.154  0.00  0.00    +0.144 HD
ATOM     28  H   UNL     1      -3.995   6.860  -2.102  0.00  0.00    +0.144 HD
ENDBRANCH  20  26
ENDBRANCH   7   8
BRANCH   5  29
ATOM     29  N   UNL     1      -4.470   0.051  -0.086  0.00  0.00    -0.280 N 
ATOM     30  C   UNL     1      -5.303  -0.365  -1.060  0.00  0.00    +0.266 C 
ATOM     31  O   UNL     1      -4.912  -0.421  -2.211  0.00  0.00    -0.268 OA
ATOM     32  H   UNL     1      -4.755   0.022   0.841  0.00  0.00    +0.155 HD
BRANCH  30  33
ATOM     33  C   UNL     1      -6.685  -0.750  -0.733  0.00  0.00    +0.124 A 
ATOM     34  C   UNL     1      -7.731  -0.926  -1.622  0.00  0.00    +0.058 A 
ATOM     35  C   UNL     1      -8.828  -1.285  -0.835  0.00  0.00    +0.069 A 
ATOM     36  N   UNL     1      -8.436  -1.312   0.413  0.00  0.00    -0.175 NA
ATOM     37  N   UNL     1      -7.191  -1.011   0.509  0.00  0.00    -0.262 N 
ATOM     38  C   UNL     1      -6.430  -0.952   1.760  0.00  0.00    +0.173 C 
BRANCH  35  39
ATOM     39  C   UNL     1     -10.217  -1.588  -1.335  0.00  0.00    +0.006 C 
ATOM     40  C   UNL     1     -10.233  -2.970  -1.992  0.00  0.00    +0.017 C 
ATOM     41  C   UNL     1     -11.197  -1.570  -0.161  0.00  0.00    +0.017 C 
ATOM     42  C   UNL     1     -10.631  -0.531  -2.362  0.00  0.00    +0.017 C 
ENDBRANCH  35  39
ENDBRANCH  30  33
ENDBRANCH   5  29
TORSDOF 5
