REMARK  Name = CHEMBL375844
REMARK  8 active torsions:
REMARK  status: ('A' for Active; 'I' for Inactive)
REMARK    1  A    between atoms: C_1  and  N_2
REMARK    2  A    between atoms: N_5  and  C_8
REMARK    3  A    between atoms: C_11  and  C_14
REMARK    4  A    between atoms: C_19  and  N_25
REMARK    5  A    between atoms: C_20  and  C_23
REMARK    6  A    between atoms: N_25  and  C_26
REMARK    7  A    between atoms: C_28  and  O_34
REMARK    8  A    between atoms: O_34  and  C_35
REMARK                            x       y       z     vdW  Elec       q    Type
REMARK                         _______ _______ _______ _____ _____    ______ ____
ROOT
ATOM      1  C   UNL     1      -3.756  -6.642   7.329  0.00  0.00    +0.022 A 
ATOM      2  C   UNL     1      -2.665  -7.452   7.270  0.00  0.00    +0.044 A 
ATOM      3  C   UNL     1      -2.759  -8.717   6.667  0.00  0.00    +0.080 A 
ATOM      4  C   UNL     1      -4.032  -9.047   6.153  0.00  0.00    +0.060 A 
ATOM      5  S   UNL     1      -5.018  -7.620   6.531  0.00  0.00    -0.085 S 
ATOM      6  C   UNL     1      -4.280 -10.257   5.531  0.00  0.00    +0.066 A 
ATOM      7  C   UNL     1      -3.209 -11.171   5.419  0.00  0.00    +0.092 A 
ATOM      8  C   UNL     1      -1.966 -10.795   5.944  0.00  0.00    +0.132 A 
ATOM      9  N   UNL     1      -1.778  -9.642   6.525  0.00  0.00    -0.253 NA
ENDROOT
BRANCH   1  13
ATOM     10  C   UNL     1      -4.086  -2.755   9.011  0.00  0.00    +0.030 A 
ATOM     11  C   UNL     1      -5.215  -3.390   8.506  0.00  0.00    +0.024 A 
ATOM     12  C   UNL     1      -5.111  -4.651   7.960  0.00  0.00    +0.011 A 
ATOM     13  C   UNL     1      -3.871  -5.290   7.913  0.00  0.00    -0.011 A 
ATOM     14  C   UNL     1      -2.739  -4.649   8.421  0.00  0.00    +0.011 A 
ATOM     15  C   UNL     1      -2.848  -3.386   8.961  0.00  0.00    +0.024 A 
BRANCH  10  20
ATOM     16  C   UNL     1      -4.030   2.708   9.306  0.00  0.00    +0.105 C 
ATOM     17  N   UNL     1      -4.167   1.304   9.717  0.00  0.00    -0.302 NA
ATOM     18  C   UNL     1      -2.895   0.585   9.564  0.00  0.00    +0.103 C 
ATOM     19  C   UNL     1      -3.029  -0.817  10.170  0.00  0.00    +0.120 C 
ATOM     20  N   UNL     1      -4.194  -1.478   9.564  0.00  0.00    -0.327 N 
ATOM     21  C   UNL     1      -5.477  -0.759   9.556  0.00  0.00    +0.120 C 
ATOM     22  C   UNL     1      -5.247   0.640   8.975  0.00  0.00    +0.103 C 
ENDBRANCH  10  20
ENDBRANCH   1  13
BRANCH   7  23
ATOM     23  C   UNL     1      -3.389 -12.443   4.788  0.00  0.00    +0.103 C 
ATOM     24  N   UNL     1      -3.532 -13.453   4.287  0.00  0.00    -0.191 NA
ENDBRANCH   7  23
BRANCH   6  25
ATOM     25  N   UNL     1      -5.538 -10.562   5.033  0.00  0.00    -0.311 N 
ATOM     26  H   UNL     1      -6.149 -11.102   5.559  0.00  0.00    +0.152 HD
BRANCH  25  27
ATOM     27  C   UNL     1      -5.925 -10.092   3.775  0.00  0.00    +0.054 A 
ATOM     28  C   UNL     1      -5.099  -9.226   3.072  0.00  0.00    +0.071 A 
ATOM     29  C   UNL     1      -5.486  -8.762   1.825  0.00  0.00    +0.140 A 
ATOM     30  C   UNL     1      -6.698  -9.165   1.280  0.00  0.00    +0.084 A 
ATOM     31  C   UNL     1      -7.520 -10.028   1.981  0.00  0.00    +0.045 A 
ATOM     32  C   UNL     1      -7.135 -10.497   3.223  0.00  0.00    +0.064 A 
ATOM     33 CL   UNL     1      -8.167 -11.586   4.097  0.00  0.00    -0.082 Cl
ATOM     34 CL   UNL     1      -7.182  -8.584  -0.283  0.00  0.00    -0.080 Cl
BRANCH  29  35
ATOM     35  O   UNL     1      -4.679  -7.913   1.135  0.00  0.00    -0.494 OA
ATOM     36  C   UNL     1      -3.395  -7.636   1.699  0.00  0.00    +0.277 C 
ENDBRANCH  29  35
ENDBRANCH  25  27
ENDBRANCH   6  25
TORSDOF 6
