REMARK  Name = CHEMBL85011
REMARK  4 active torsions:
REMARK  status: ('A' for Active; 'I' for Inactive)
REMARK    1  A    between atoms: C_1  and  C_2
REMARK    2  A    between atoms: N_15  and  O_16
REMARK    3  A    between atoms: C_20  and  O_26
REMARK    4  A    between atoms: C_22  and  O_25
REMARK                            x       y       z     vdW  Elec       q    Type
REMARK                         _______ _______ _______ _____ _____    ______ ____
ROOT
ATOM      1  C   UNL     1       0.086   1.567   0.167  0.00  0.00    +0.052 C 
ATOM      2  C   UNL     1       0.099   0.036   0.177  0.00  0.00    +0.176 C 
ATOM      3  C   UNL     1      -1.341  -0.470   0.252  0.00  0.00    +0.079 C 
ATOM      4  C   UNL     1      -1.629  -1.293  -1.007  0.00  0.00    +0.155 C 
ATOM      5  C   UNL     1      -1.434  -0.616  -2.365  0.00  0.00    +0.170 C 
ATOM      6  O   UNL     1      -2.728  -0.929  -1.848  0.00  0.00    -0.364 OA
ATOM      7  C   UNL     1      -0.848  -1.477  -3.459  0.00  0.00    +0.007 C 
ATOM      8  C   UNL     1       0.465  -1.453  -3.668  0.00  0.00    -0.002 C 
ATOM      9  C   UNL     1       1.343  -0.591  -2.902  0.00  0.00    +0.002 C 
ATOM     10  C   UNL     1       2.585  -0.885  -2.498  0.00  0.00    +0.027 C 
ATOM     11  C   UNL     1       3.353   0.115  -1.761  0.00  0.00    +0.084 C 
ATOM     12  N   UNL     1       3.062   1.374  -1.886  0.00  0.00    -0.092 NA
ATOM     13  C   UNL     1       4.460  -0.282  -0.816  0.00  0.00    +0.096 C 
ATOM     14  C   UNL     1       4.331   0.587   0.418  0.00  0.00    -0.002 A 
ATOM     15  C   UNL     1       3.226   0.443   1.257  0.00  0.00    +0.105 A 
ATOM     16  C   UNL     1       3.119   1.272   2.396  0.00  0.00    +0.135 A 
ATOM     17  C   UNL     1       4.097   2.216   2.656  0.00  0.00    +0.093 A 
ATOM     18  C   UNL     1       5.187   2.345   1.808  0.00  0.00    +0.139 A 
ATOM     19  C   UNL     1       5.298   1.521   0.690  0.00  0.00    +0.087 A 
ATOM     20 CL   UNL     1       6.670   1.686  -0.364  0.00  0.00    -0.079 Cl
ATOM     21  C   UNL     1       2.189  -0.546   1.005  0.00  0.00    +0.343 C 
ATOM     22  O   UNL     1       2.503  -1.579   0.451  0.00  0.00    -0.245 OA
ATOM     23  O   UNL     1       0.887  -0.408   1.289  0.00  0.00    -0.458 OA
ENDROOT
BRANCH  12  24
ATOM     24  O   UNL     1       2.121   1.790  -2.859  0.00  0.00    -0.409 OA
ATOM     25  H   UNL     1       1.970   2.745  -2.877  0.00  0.00    +0.328 HD
ENDBRANCH  12  24
BRANCH  18  26
ATOM     26  O   UNL     1       6.141   3.274   2.064  0.00  0.00    -0.505 OA
ATOM     27  H   UNL     1       6.863   2.953   2.622  0.00  0.00    +0.292 HD
ENDBRANCH  18  26
BRANCH  16  28
ATOM     28  O   UNL     1       2.064   1.145   3.238  0.00  0.00    -0.506 OA
ATOM     29  H   UNL     1       2.209   0.515   3.957  0.00  0.00    +0.292 HD
ENDBRANCH  16  28
TORSDOF 3
