REMARK  Name = CHEMBL160207
REMARK  11 active torsions:
REMARK  status: ('A' for Active; 'I' for Inactive)
REMARK    1  A    between atoms: C_1  and  N_2
REMARK    2  A    between atoms: C_9  and  C_28
REMARK    3  A    between atoms: C_10  and  S_11
REMARK    4  A    between atoms: S_11  and  S_12
REMARK    5  A    between atoms: S_12  and  C_13
REMARK    6  A    between atoms: C_14  and  C_23
REMARK    7  A    between atoms: N_21  and  C_22
REMARK    8  A    between atoms: N_25  and  C_26
REMARK    9  A    between atoms: N_25  and  C_27
REMARK   10  A    between atoms: N_30  and  C_31
REMARK   11  A    between atoms: N_30  and  C_32
REMARK                            x       y       z     vdW  Elec       q    Type
REMARK                         _______ _______ _______ _____ _____    ______ ____
ROOT
ATOM      1  S   UNL     1       0.097  -0.015   2.893  0.00  0.00    -0.032 S 
ENDROOT
BRANCH   1  11
ATOM      2  C   UNL     1       0.789  -3.125   2.372  0.00  0.00    +0.150 C 
ATOM      3  N   UNL     1       0.420  -2.246   1.260  0.00  0.00    -0.337 N 
ATOM      4  C   UNL     1       0.330  -2.642  -0.064  0.00  0.00    +0.050 A 
ATOM      5  C   UNL     1       0.535  -3.861  -0.699  0.00  0.00    +0.026 A 
ATOM      6  C   UNL     1       0.367  -3.963  -2.064  0.00  0.00    +0.002 A 
ATOM      7  C   UNL     1      -0.005  -2.859  -2.815  0.00  0.00    +0.001 A 
ATOM      8  C   UNL     1      -0.213  -1.641  -2.203  0.00  0.00    +0.011 A 
ATOM      9  C   UNL     1      -0.048  -1.525  -0.824  0.00  0.00    +0.013 A 
ATOM     10  C   UNL     1      -0.185  -0.405   0.126  0.00  0.00    +0.077 A 
ATOM     11  C   UNL     1       0.112  -0.924   1.384  0.00  0.00    +0.100 A 
BRANCH  10  12
ATOM     12  C   UNL     1      -0.550   0.929  -0.178  0.00  0.00    +0.249 C 
ATOM     13  O   UNL     1      -1.726   1.236  -0.255  0.00  0.00    -0.270 OA
ATOM     14  N   UNL     1       0.404   1.858  -0.383  0.00  0.00    -0.304 N 
ATOM     15  C   UNL     1       0.030   3.261  -0.581  0.00  0.00    +0.132 C 
ATOM     16  C   UNL     1       1.816   1.466  -0.407  0.00  0.00    +0.132 C 
ENDBRANCH  10  12
ENDBRANCH   1  11
BRANCH   1  17
ATOM     17  S   UNL     1      -1.875  -0.017   3.454  0.00  0.00    -0.032 S 
BRANCH  17  18
ATOM     18  C   UNL     1      -2.101  -1.593   4.209  0.00  0.00    +0.100 A 
ATOM     19  C   UNL     1      -2.607  -2.726   3.577  0.00  0.00    +0.077 A 
ATOM     20  C   UNL     1      -2.614  -3.796   4.593  0.00  0.00    +0.013 A 
ATOM     21  C   UNL     1      -2.999  -5.135   4.576  0.00  0.00    +0.011 A 
ATOM     22  C   UNL     1      -2.881  -5.894   5.721  0.00  0.00    +0.001 A 
ATOM     23  C   UNL     1      -2.382  -5.329   6.884  0.00  0.00    +0.002 A 
ATOM     24  C   UNL     1      -1.997  -4.005   6.914  0.00  0.00    +0.026 A 
ATOM     25  C   UNL     1      -2.109  -3.224   5.770  0.00  0.00    +0.050 A 
ATOM     26  N   UNL     1      -1.804  -1.899   5.504  0.00  0.00    -0.337 N 
ATOM     27  C   UNL     1      -1.245  -0.958   6.478  0.00  0.00    +0.150 C 
BRANCH  19  28
ATOM     28  C   UNL     1      -3.030  -2.830   2.230  0.00  0.00    +0.249 C 
ATOM     29  O   UNL     1      -2.261  -3.244   1.381  0.00  0.00    -0.270 OA
ATOM     30  N   UNL     1      -4.283  -2.471   1.887  0.00  0.00    -0.304 N 
ATOM     31  C   UNL     1      -4.720  -2.579   0.493  0.00  0.00    +0.132 C 
ATOM     32  C   UNL     1      -5.207  -1.973   2.909  0.00  0.00    +0.132 C 
ENDBRANCH  19  28
ENDBRANCH  17  18
ENDBRANCH   1  17
TORSDOF 5
