REMARK  Name = CHEMBL405893
REMARK  16 active torsions:
REMARK  status: ('A' for Active; 'I' for Inactive)
REMARK    1  A    between atoms: C_1  and  C_2
REMARK    2  A    between atoms: C_2  and  C_3
REMARK    3  A    between atoms: C_2  and  C_4
REMARK    4  A    between atoms: C_6  and  N_27
REMARK    5  A    between atoms: C_10  and  C_24
REMARK    6  A    between atoms: N_13  and  C_14
REMARK    7  A    between atoms: C_16  and  O_22
REMARK    8  A    between atoms: C_18  and  O_20
REMARK    9  A    between atoms: O_20  and  C_21
REMARK   10  A    between atoms: O_22  and  C_23
REMARK   11  A    between atoms: N_27  and  CA_28
REMARK   12  A    between atoms: CA_28  and  C_30
REMARK   13  A    between atoms: CA_28  and  CB_32
REMARK   14  A    between atoms: C_30  and  O_31
REMARK   15  A    between atoms: CB_32  and  CG1_33
REMARK   16  A    between atoms: CB_32  and  CG2_34
REMARK                            x       y       z     vdW  Elec       q    Type
REMARK                         _______ _______ _______ _____ _____    ______ ____
ROOT
ATOM      1  C   UNK A   0      -1.422  -0.608   0.608  0.00  0.00    +0.049 A 
ATOM      2  C   UNK A   0      -1.654  -1.949   0.323  0.00  0.00    +0.067 A 
ATOM      3  C   UNK A   0      -2.954  -2.383   0.141  0.00  0.00    +0.125 A 
ATOM      4  N   UNK A   0      -3.973  -1.478   0.249  0.00  0.00    -0.198 N 
ATOM      5  C   UNK A   0      -3.689  -0.172   0.531  0.00  0.00    +0.172 A 
ATOM      6  N   UNK A   0      -2.432   0.233   0.709  0.00  0.00    -0.232 NA
ATOM      7  C   UNK A   0      -4.921   0.511   0.578  0.00  0.00    +0.122 A 
ATOM      8  C   UNK A   0      -5.930  -0.445   0.313  0.00  0.00    +0.160 A 
ATOM      9  N   UNK A   0      -5.360  -1.610   0.121  0.00  0.00    -0.147 NA
ATOM     10  N   UNK A   0      -7.298  -0.191   0.265  0.00  0.00    -0.297 N 
ATOM     11  H   UNK A   0      -7.626   0.719   0.342  0.00  0.00    +0.154 HD
ENDROOT
BRANCH  10  12
ATOM     12  C   UNK A   0      -8.200  -1.247   0.105  0.00  0.00    +0.039 A 
ATOM     13  C   UNK A   0      -7.882  -2.510   0.587  0.00  0.00    +0.069 A 
ATOM     14  C   UNK A   0      -8.777  -3.557   0.429  0.00  0.00    +0.125 A 
ATOM     15  C   UNK A   0      -9.989  -3.343  -0.211  0.00  0.00    +0.091 A 
ATOM     16  C   UNK A   0     -10.307  -2.082  -0.692  0.00  0.00    +0.125 A 
ATOM     17  C   UNK A   0      -9.416  -1.032  -0.530  0.00  0.00    +0.069 A 
BRANCH  16  18
ATOM     18  O   UNK A   0     -11.494  -1.873  -1.319  0.00  0.00    -0.495 OA
ATOM     19  C   UNK A   0     -12.366  -2.998  -1.448  0.00  0.00    +0.277 C 
ENDBRANCH  16  18
BRANCH  14  20
ATOM     20  O   UNK A   0      -8.466  -4.793   0.900  0.00  0.00    -0.495 OA
ATOM     21  C   UNK A   0      -9.435  -5.825   0.702  0.00  0.00    +0.277 C 
ENDBRANCH  14  20
ENDBRANCH  10  12
BRANCH   7  22
ATOM     22  C   UNK A   0      -5.118   1.934   0.849  0.00  0.00    +0.249 C 
ATOM     23  O   UNK A   0      -5.125   2.733  -0.070  0.00  0.00    -0.270 OA
ATOM     24  N   UNK A   0      -5.293   2.361   2.115  0.00  0.00    -0.325 N 
ATOM     25  H   UNK A   0      -5.287   1.724   2.847  0.00  0.00    +0.145 HD
ATOM     26  H   UNK A   0      -5.423   3.305   2.295  0.00  0.00    +0.145 HD
ENDBRANCH   7  22
BRANCH   1  28
ATOM     27  C   UNK A   0      -0.023   1.403   0.991  0.00  0.00    +0.014 C 
ATOM     28  C   UNK A   0      -0.011  -0.116   0.809  0.00  0.00    +0.032 C 
ATOM     29  C   UNK A   0       0.586  -0.774   2.054  0.00  0.00    +0.014 C 
ENDBRANCH   1  28
BRANCH   3  30
ATOM     30  N   VAL A   1      -3.218  -3.705  -0.143  0.00  0.00    -0.324 N 
ATOM     31  H   VAL A   1      -4.133  -4.000  -0.269  0.00  0.00    +0.148 HD
BRANCH  30  32
ATOM     32  CA  VAL A   1      -2.116  -4.664  -0.256  0.00  0.00    +0.100 C 
BRANCH  32  33
ATOM     33  CB  VAL A   1      -2.546  -5.832  -1.145  0.00  0.00    +0.005 C 
ATOM     34  CG1 VAL A   1      -2.910  -5.308  -2.535  0.00  0.00    +0.009 C 
ATOM     35  CG2 VAL A   1      -1.396  -6.834  -1.262  0.00  0.00    +0.009 C 
ENDBRANCH  32  33
BRANCH  32  36
ATOM     36  C   VAL A   1      -1.752  -5.188   1.135  0.00  0.00    +0.178 C 
BRANCH  36  37
ATOM     37  O   VAL A   1      -2.850  -5.934   1.665  0.00  0.00    -0.393 OA
ATOM     38  H   VAL A   1      -2.689  -6.297   2.547  0.00  0.00    +0.209 HD
ENDBRANCH  36  37
ENDBRANCH  32  36
ENDBRANCH  30  32
ENDBRANCH   3  30
TORSDOF 10
