REMARK  Name = CHEMBL192052
REMARK  10 active torsions:
REMARK  status: ('A' for Active; 'I' for Inactive)
REMARK    1  A    between atoms: C_1  and  N_2
REMARK    2  A    between atoms: N_2  and  C_3
REMARK    3  A    between atoms: N_2  and  C_4
REMARK    4  A    between atoms: C_4  and  C_5
REMARK    5  A    between atoms: C_7  and  C_10
REMARK    6  A    between atoms: C_15  and  N_21
REMARK    7  A    between atoms: C_16  and  C_19
REMARK    8  A    between atoms: N_21  and  C_22
REMARK    9  A    between atoms: C_24  and  O_30
REMARK   10  A    between atoms: O_30  and  C_31
REMARK                            x       y       z     vdW  Elec       q    Type
REMARK                         _______ _______ _______ _____ _____    ______ ____
ROOT
ATOM      1  C   UNL     1      -7.054  -0.156   5.026  0.00  0.00    +0.023 A 
ATOM      2  C   UNL     1      -6.314  -0.060   6.163  0.00  0.00    +0.044 A 
ATOM      3  C   UNL     1      -5.723  -1.208   6.716  0.00  0.00    +0.080 A 
ATOM      4  C   UNL     1      -5.961  -2.409   6.011  0.00  0.00    +0.060 A 
ATOM      5  S   UNL     1      -6.977  -1.899   4.649  0.00  0.00    -0.085 S 
ATOM      6  C   UNL     1      -5.446  -3.620   6.433  0.00  0.00    +0.066 A 
ATOM      7  C   UNL     1      -4.661  -3.628   7.607  0.00  0.00    +0.092 A 
ATOM      8  C   UNL     1      -4.455  -2.411   8.269  0.00  0.00    +0.132 A 
ATOM      9  N   UNL     1      -4.961  -1.290   7.835  0.00  0.00    -0.253 NA
ENDROOT
BRANCH   1  12
ATOM     10  C   UNL     1      -9.053   1.651   2.453  0.00  0.00    -0.026 A 
ATOM     11  C   UNL     1      -8.425   0.644   3.098  0.00  0.00    +0.018 A 
ATOM     12  C   UNL     1      -7.754   0.917   4.288  0.00  0.00    -0.004 A 
ATOM     13  C   UNL     1      -7.759   2.203   4.758  0.00  0.00    +0.054 A 
ATOM     14  S   UNL     1      -8.713   3.049   3.509  0.00  0.00    -0.103 S 
BRANCH  10  15
ATOM     15  C   UNL     1      -9.837   1.607   1.166  0.00  0.00    -0.036 C 
BRANCH  15  17
ATOM     16  C   UNL     1     -11.816   2.457   2.223  0.00  0.00    -0.096 C 
ATOM     17  N   UNL     1     -11.250   1.335   1.462  0.00  0.00    +0.379 N 
ATOM     18  C   UNL     1     -11.991   1.173   0.205  0.00  0.00    -0.096 C 
ATOM     19  H   UNL     1     -11.322   0.488   2.007  0.00  0.00    -0.082 HD
ENDBRANCH  15  17
ENDBRANCH  10  15
ENDBRANCH   1  12
BRANCH   7  20
ATOM     20  C   UNL     1      -4.093  -4.845   8.106  0.00  0.00    +0.103 C 
ATOM     21  N   UNL     1      -3.643  -5.810   8.502  0.00  0.00    -0.191 NA
ENDBRANCH   7  20
BRANCH   6  22
ATOM     22  N   UNL     1      -5.691  -4.788   5.726  0.00  0.00    -0.311 N 
ATOM     23  H   UNL     1      -6.506  -5.289   5.885  0.00  0.00    +0.152 HD
BRANCH  22  24
ATOM     24  C   UNL     1      -4.764  -5.243   4.784  0.00  0.00    +0.054 A 
ATOM     25  C   UNL     1      -3.548  -4.590   4.633  0.00  0.00    +0.071 A 
ATOM     26  C   UNL     1      -2.631  -5.044   3.699  0.00  0.00    +0.140 A 
ATOM     27  C   UNL     1      -2.929  -6.151   2.915  0.00  0.00    +0.084 A 
ATOM     28  C   UNL     1      -4.140  -6.801   3.066  0.00  0.00    +0.045 A 
ATOM     29  C   UNL     1      -5.055  -6.354   4.001  0.00  0.00    +0.064 A 
ATOM     30 CL   UNL     1      -6.572  -7.177   4.194  0.00  0.00    -0.082 Cl
ATOM     31 CL   UNL     1      -1.780  -6.719   1.744  0.00  0.00    -0.080 Cl
BRANCH  26  32
ATOM     32  O   UNL     1      -1.440  -4.406   3.549  0.00  0.00    -0.494 OA
ATOM     33  C   UNL     1      -1.226  -3.237   4.344  0.00  0.00    +0.277 C 
ENDBRANCH  26  32
ENDBRANCH  22  24
ENDBRANCH   6  22
TORSDOF 7
