REMARK  Name = CHEMBL6246
REMARK  4 active torsions:
REMARK  status: ('A' for Active; 'I' for Inactive)
REMARK    1  A    between atoms: C_7  and  O_14
REMARK    2  A    between atoms: C_8  and  O_13
REMARK    3  A    between atoms: C_19  and  O_22
REMARK    4  A    between atoms: C_20  and  O_21
REMARK                            x       y       z     vdW  Elec       q    Type
REMARK                         _______ _______ _______ _____ _____    ______ ____
ROOT
ATOM      1  C   UNL     1      -0.017   1.383   0.010  0.00  0.00    +0.065 A 
ATOM      2  C   UNL     1       1.186   2.077   0.002  0.00  0.00    +0.074 A 
ATOM      3  C   UNL     1       2.393   1.345  -0.001  0.00  0.00    +0.047 A 
ATOM      4  C   UNL     1       3.648   2.105   0.003  0.00  0.00    +0.047 A 
ATOM      5  C   UNL     1       4.847   1.387  -0.199  0.00  0.00    +0.074 A 
ATOM      6  C   UNL     1       6.050   2.080  -0.199  0.00  0.00    +0.065 A 
ATOM      7  C   UNL     1       6.038   3.456  -0.020  0.00  0.00    +0.163 A 
ATOM      8  C   UNL     1       4.848   4.161   0.167  0.00  0.00    +0.202 A 
ATOM      9  C   UNL     1       3.632   3.486   0.187  0.00  0.00    +0.185 A 
ATOM     10  O   UNL     1       2.453   4.117   0.412  0.00  0.00    -0.418 OA
ATOM     11  C   UNL     1       1.301   3.544  -0.016  0.00  0.00    +0.345 A 
ATOM     12  O   UNL     1       0.377   4.231  -0.409  0.00  0.00    -0.244 OA
ATOM     13  C   UNL     1       4.721  -0.062  -0.420  0.00  0.00    +0.345 A 
ATOM     14  O   UNL     1       5.601  -0.680  -0.988  0.00  0.00    -0.244 OA
ATOM     15  O   UNL     1       3.607  -0.698   0.020  0.00  0.00    -0.418 OA
ATOM     16  C   UNL     1       2.417  -0.048  -0.005  0.00  0.00    +0.185 A 
ATOM     17  C   UNL     1       1.199  -0.721  -0.010  0.00  0.00    +0.202 A 
ATOM     18  C   UNL     1       0.002  -0.004   0.002  0.00  0.00    +0.163 A 
ENDROOT
BRANCH   8  19
ATOM     19  O   UNL     1       4.877   5.510   0.329  0.00  0.00    -0.501 OA
ATOM     20  H   UNL     1       4.812   6.007  -0.498  0.00  0.00    +0.292 HD
ENDBRANCH   8  19
BRANCH   7  21
ATOM     21  O   UNL     1       7.216   4.135  -0.027  0.00  0.00    -0.503 OA
ATOM     22  H   UNL     1       7.487   4.444  -0.902  0.00  0.00    +0.292 HD
ENDBRANCH   7  21
BRANCH  18  23
ATOM     23  O   UNL     1      -1.176  -0.682   0.006  0.00  0.00    -0.503 OA
ATOM     24  H   UNL     1      -1.523  -0.874  -0.876  0.00  0.00    +0.292 HD
ENDBRANCH  18  23
BRANCH  17  25
ATOM     25  O   UNL     1       1.176  -2.080  -0.026  0.00  0.00    -0.501 OA
ATOM     26  H   UNL     1       1.171  -2.483   0.852  0.00  0.00    +0.292 HD
ENDBRANCH  17  25
TORSDOF 4
