REMARK  Name = CHEMBL40557
REMARK  11 active torsions:
REMARK  status: ('A' for Active; 'I' for Inactive)
REMARK    1  A    between atoms: C_1  and  N_2
REMARK    2  A    between atoms: C_6  and  C_8
REMARK    3  A    between atoms: C_8  and  O_9
REMARK    4  A    between atoms: O_9  and  C_10
REMARK    5  A    between atoms: C_15  and  O_16
REMARK    6  A    between atoms: O_16  and  C_17
REMARK    7  A    between atoms: C_18  and  N_24
REMARK    8  A    between atoms: C_19  and  C_22
REMARK    9  A    between atoms: N_24  and  C_25
REMARK   10  A    between atoms: C_27  and  O_33
REMARK   11  A    between atoms: O_33  and  C_34
REMARK                            x       y       z     vdW  Elec       q    Type
REMARK                         _______ _______ _______ _____ _____    ______ ____
ROOT
ATOM      1  C   UNL     1       0.975  -4.713   7.807  0.00  0.00    +0.164 A 
ATOM      2  C   UNL     1       1.972  -3.879   7.354  0.00  0.00    +0.077 A 
ATOM      3  C   UNL     1       3.181  -4.424   6.894  0.00  0.00    +0.077 A 
ATOM      4  C   UNL     1       3.352  -5.830   6.906  0.00  0.00    +0.026 A 
ATOM      5  C   UNL     1       2.321  -6.657   7.374  0.00  0.00    +0.061 A 
ATOM      6  C   UNL     1       1.156  -6.103   7.821  0.00  0.00    +0.162 A 
ATOM      7  C   UNL     1       4.571  -6.376   6.442  0.00  0.00    +0.060 A 
ATOM      8  C   UNL     1       5.557  -5.487   5.990  0.00  0.00    +0.091 A 
ATOM      9  C   UNL     1       5.301  -4.106   6.014  0.00  0.00    +0.132 A 
ATOM     10  N   UNL     1       4.163  -3.627   6.449  0.00  0.00    -0.253 NA
ENDROOT
BRANCH   6  11
ATOM     11  O   UNL     1       0.159  -6.907   8.279  0.00  0.00    -0.491 OA
ATOM     12  C   UNL     1       0.404  -8.314   8.267  0.00  0.00    +0.277 C 
ENDBRANCH   6  11
BRANCH   8  13
ATOM     13  C   UNL     1       6.812  -5.981   5.509  0.00  0.00    +0.103 C 
ATOM     14  N   UNL     1       7.808  -6.374   5.128  0.00  0.00    -0.191 NA
ENDBRANCH   8  13
BRANCH   7  15
ATOM     15  N   UNL     1       4.784  -7.740   6.436  0.00  0.00    -0.312 N 
ATOM     16  H   UNL     1       4.642  -8.249   5.622  0.00  0.00    +0.152 HD
BRANCH  15  17
ATOM     17  C   UNL     1       5.204  -8.388   7.601  0.00  0.00    +0.053 A 
ATOM     18  C   UNL     1       5.293  -7.684   8.794  0.00  0.00    +0.071 A 
ATOM     19  C   UNL     1       5.710  -8.329   9.948  0.00  0.00    +0.140 A 
ATOM     20  C   UNL     1       6.038  -9.678   9.909  0.00  0.00    +0.084 A 
ATOM     21  C   UNL     1       5.949 -10.378   8.720  0.00  0.00    +0.045 A 
ATOM     22  C   UNL     1       5.528  -9.739   7.569  0.00  0.00    +0.064 A 
ATOM     23 CL   UNL     1       5.410 -10.624   6.079  0.00  0.00    -0.082 Cl
ATOM     24 CL   UNL     1       6.560 -10.485  11.354  0.00  0.00    -0.080 Cl
BRANCH  19  25
ATOM     25  O   UNL     1       5.798  -7.641  11.117  0.00  0.00    -0.494 OA
ATOM     26  C   UNL     1       5.332  -6.290  11.113  0.00  0.00    +0.277 C 
ENDBRANCH  19  25
ENDBRANCH  15  17
ENDBRANCH   7  15
BRANCH   1  27
ATOM     27  O   UNL     1      -0.194  -4.182   8.252  0.00  0.00    -0.488 OA
BRANCH  27  28
ATOM     28  C   UNL     1      -0.317  -2.759   8.212  0.00  0.00    +0.231 C 
BRANCH  28  34
ATOM     29  C   UNL     1      -3.385   0.995   8.893  0.00  0.00    -0.096 C 
ATOM     30  N   UNL     1      -3.187  -0.445   9.112  0.00  0.00    +0.378 N 
ATOM     31  C   UNL     1      -3.267  -0.735  10.548  0.00  0.00    -0.079 C 
ATOM     32  C   UNL     1      -3.141  -2.243  10.775  0.00  0.00    -0.018 C 
ATOM     33  C   UNL     1      -1.794  -2.725  10.229  0.00  0.00    +0.003 C 
ATOM     34  C   UNL     1      -1.691  -2.351   8.748  0.00  0.00    +0.010 C 
ATOM     35  C   UNL     1      -1.870  -0.839   8.596  0.00  0.00    -0.072 C 
ATOM     36  H   UNL     1      -3.905  -0.960   8.626  0.00  0.00    -0.082 HD
ENDBRANCH  28  34
ENDBRANCH  27  28
ENDBRANCH   1  27
TORSDOF 8
