REMARK  Name = CHEMBL296844
REMARK  11 active torsions:
REMARK  status: ('A' for Active; 'I' for Inactive)
REMARK    1  A    between atoms: C_1  and  N_2
REMARK    2  A    between atoms: C_7  and  C_8
REMARK    3  A    between atoms: C_8  and  O_9
REMARK    4  A    between atoms: O_9  and  C_10
REMARK    5  A    between atoms: C_15  and  O_16
REMARK    6  A    between atoms: O_16  and  C_17
REMARK    7  A    between atoms: C_18  and  N_24
REMARK    8  A    between atoms: C_19  and  C_22
REMARK    9  A    between atoms: N_24  and  C_25
REMARK   10  A    between atoms: C_27  and  O_33
REMARK   11  A    between atoms: O_33  and  C_34
REMARK                            x       y       z     vdW  Elec       q    Type
REMARK                         _______ _______ _______ _____ _____    ______ ____
ROOT
ATOM      1  C   UNL     1       5.364   2.585  -1.943  0.00  0.00    +0.164 A 
ATOM      2  C   UNL     1       5.855   1.768  -0.950  0.00  0.00    +0.077 A 
ATOM      3  C   UNL     1       6.382   2.334   0.221  0.00  0.00    +0.077 A 
ATOM      4  C   UNL     1       6.399   3.743   0.358  0.00  0.00    +0.026 A 
ATOM      5  C   UNL     1       5.894   4.553  -0.669  0.00  0.00    +0.061 A 
ATOM      6  C   UNL     1       5.391   3.979  -1.801  0.00  0.00    +0.162 A 
ATOM      7  C   UNL     1       6.931   4.311   1.539  0.00  0.00    +0.060 A 
ATOM      8  C   UNL     1       7.419   3.438   2.523  0.00  0.00    +0.091 A 
ATOM      9  C   UNL     1       7.362   2.052   2.302  0.00  0.00    +0.132 A 
ATOM     10  N   UNL     1       6.865   1.554   1.199  0.00  0.00    -0.253 NA
ENDROOT
BRANCH   6  11
ATOM     11  O   UNL     1       4.906   4.768  -2.798  0.00  0.00    -0.491 OA
ATOM     12  C   UNL     1       4.961   6.181  -2.592  0.00  0.00    +0.277 C 
ENDBRANCH   6  11
BRANCH   8  13
ATOM     13  C   UNL     1       7.970   3.954   3.740  0.00  0.00    +0.103 C 
ATOM     14  N   UNL     1       8.407   4.364   4.705  0.00  0.00    -0.191 NA
ENDBRANCH   8  13
BRANCH   7  15
ATOM     15  N   UNL     1       6.970   5.679   1.718  0.00  0.00    -0.312 N 
ATOM     16  H   UNL     1       6.182   6.150   2.033  0.00  0.00    +0.152 HD
BRANCH  15  17
ATOM     17  C   UNL     1       8.144   6.388   1.444  0.00  0.00    +0.053 A 
ATOM     18  C   UNL     1       9.282   5.711   1.024  0.00  0.00    +0.071 A 
ATOM     19  C   UNL     1      10.444   6.416   0.754  0.00  0.00    +0.140 A 
ATOM     20  C   UNL     1      10.469   7.796   0.904  0.00  0.00    +0.084 A 
ATOM     21  C   UNL     1       9.336   8.469   1.323  0.00  0.00    +0.045 A 
ATOM     22  C   UNL     1       8.173   7.770   1.588  0.00  0.00    +0.064 A 
ATOM     23 CL   UNL     1       6.749   8.618   2.106  0.00  0.00    -0.082 Cl
ATOM     24 CL   UNL     1      11.925   8.679   0.567  0.00  0.00    -0.080 Cl
BRANCH  19  25
ATOM     25  O   UNL     1      11.559   5.756   0.343  0.00  0.00    -0.494 OA
ATOM     26  C   UNL     1      11.429   4.355   0.095  0.00  0.00    +0.277 C 
ENDBRANCH  19  25
ENDBRANCH  15  17
ENDBRANCH   7  15
BRANCH   1  27
ATOM     27  O   UNL     1       4.854   2.035  -3.076  0.00  0.00    -0.490 OA
BRANCH  27  28
ATOM     28  C   UNL     1       4.855   0.608  -3.161  0.00  0.00    +0.214 C 
BRANCH  28  35
ATOM     29  C   UNL     1       2.070  -0.014  -3.513  0.00  0.00    -0.096 C 
ATOM     30  N   UNL     1       2.855   0.635  -4.571  0.00  0.00    +0.382 N 
ATOM     31  C   UNL     1       2.287   0.292  -5.880  0.00  0.00    -0.079 C 
ATOM     32  C   UNL     1       2.257  -1.228  -6.045  0.00  0.00    -0.019 C 
ATOM     33  C   UNL     1       3.683  -1.776  -5.947  0.00  0.00    -0.003 C 
ATOM     34  C   UNL     1       4.293  -1.349  -4.608  0.00  0.00    -0.012 C 
ATOM     35  C   UNL     1       4.247   0.177  -4.497  0.00  0.00    -0.031 C 
ATOM     36  H   UNL     1       2.825   1.636  -4.445  0.00  0.00    -0.082 HD
ENDBRANCH  28  35
ENDBRANCH  27  28
ENDBRANCH   1  27
TORSDOF 8
