REMARK  Name = CHEMBL1075628
REMARK  12 active torsions:
REMARK  status: ('A' for Active; 'I' for Inactive)
REMARK    1  A    between atoms: C_1  and  C_2
REMARK    2  A    between atoms: C_5  and  N_25
REMARK    3  A    between atoms: C_7  and  N_8
REMARK    4  A    between atoms: C_20  and  N_24
REMARK    5  A    between atoms: C_26  and  C_28
REMARK    6  A    between atoms: C_30  and  C_37
REMARK    7  A    between atoms: N_31  and  C_33
REMARK    8  A    between atoms: C_33  and  C_34
REMARK    9  A    between atoms: C_33  and  C_35
REMARK   10  A    between atoms: C_33  and  C_36
REMARK   11  A    between atoms: C_37  and  N_38
REMARK   12  A    between atoms: N_41  and  C_44
REMARK                            x       y       z     vdW  Elec       q    Type
REMARK                         _______ _______ _______ _____ _____    ______ ____
ROOT
ATOM      1  C   UNL     1       3.479  -1.514  -1.997  0.00  0.00    +0.045 C 
ATOM      2  C   UNL     1       2.004  -1.482  -1.687  0.00  0.00    -0.029 A 
ATOM      3  C   UNL     1       1.106  -2.095  -2.539  0.00  0.00    +0.007 A 
ATOM      4  C   UNL     1      -0.246  -2.067  -2.258  0.00  0.00    +0.024 A 
ATOM      5  C   UNL     1      -0.708  -1.422  -1.117  0.00  0.00    +0.035 A 
ATOM      6  C   UNL     1       0.192  -0.805  -0.259  0.00  0.00    +0.047 A 
ATOM      7  C   UNL     1       1.550  -0.840  -0.541  0.00  0.00    +0.038 A 
ENDROOT
BRANCH   7   8
ATOM      8  N   UNL     1       2.461  -0.224   0.324  0.00  0.00    -0.286 N 
ATOM      9  C   UNL     1       2.491  -0.576   1.657  0.00  0.00    +0.184 A 
ATOM     10  N   UNL     1       2.157  -1.749   2.134  0.00  0.00    -0.327 N 
ATOM     11  C   UNL     1       2.304  -1.753   3.486  0.00  0.00    +0.066 A 
ATOM     12  C   UNL     1       2.092  -2.721   4.470  0.00  0.00    +0.028 A 
ATOM     13  C   UNL     1       2.337  -2.418   5.791  0.00  0.00    +0.002 A 
ATOM     14  C   UNL     1       2.792  -1.159   6.152  0.00  0.00    +0.002 A 
ATOM     15  C   UNL     1       3.006  -0.192   5.191  0.00  0.00    +0.028 A 
ATOM     16  C   UNL     1       2.765  -0.479   3.857  0.00  0.00    +0.074 A 
ATOM     17  N   UNL     1       2.882   0.247   2.680  0.00  0.00    -0.266 N 
ATOM     18  C   UNL     1       3.312   1.567   2.562  0.00  0.00    +0.145 A 
ATOM     19  C   UNL     1       3.085   2.280   1.390  0.00  0.00    +0.090 A 
ATOM     20  C   UNL     1       3.534   3.596   1.321  0.00  0.00    +0.121 A 
ATOM     21  N   UNL     1       4.160   4.120   2.373  0.00  0.00    -0.221 NA
ATOM     22  C   UNL     1       4.356   3.411   3.465  0.00  0.00    +0.225 A 
ATOM     23  N   UNL     1       3.941   2.165   3.570  0.00  0.00    -0.218 NA
ATOM     24  H   UNL     1       3.071   0.450  -0.014  0.00  0.00    +0.155 HD
ATOM     25  H   UNL     1       1.850  -2.501   1.604  0.00  0.00    +0.169 HD
BRANCH  20  26
ATOM     26  N   UNL     1       3.332   4.349   0.175  0.00  0.00    -0.343 N 
ATOM     27  H   UNL     1       2.875   3.960  -0.587  0.00  0.00    +0.144 HD
ATOM     28  H   UNL     1       3.648   5.265   0.135  0.00  0.00    +0.144 HD
ENDBRANCH  20  26
ENDBRANCH   7   8
BRANCH   5  29
ATOM     29  N   UNL     1      -2.077  -1.393  -0.834  0.00  0.00    -0.280 N 
ATOM     30  C   UNL     1      -2.823  -2.503  -1.002  0.00  0.00    +0.268 C 
ATOM     31  O   UNL     1      -2.302  -3.533  -1.384  0.00  0.00    -0.268 OA
ATOM     32  H   UNL     1      -2.490  -0.575  -0.516  0.00  0.00    +0.155 HD
BRANCH  30  33
ATOM     33  C   UNL     1      -4.272  -2.468  -0.721  0.00  0.00    +0.148 A 
ATOM     34  C   UNL     1      -5.180  -3.546  -0.844  0.00  0.00    +0.059 A 
ATOM     35  C   UNL     1      -6.386  -3.047  -0.484  0.00  0.00    +0.055 A 
ATOM     36  N   UNL     1      -6.202  -1.748  -0.166  0.00  0.00    -0.261 N 
ATOM     37  N   UNL     1      -4.966  -1.427  -0.304  0.00  0.00    -0.166 NA
BRANCH  36  38
ATOM     38  C   UNL     1      -7.259  -0.836   0.279  0.00  0.00    +0.056 C 
ATOM     39  C   UNL     1      -8.038  -1.480   1.428  0.00  0.00    +0.036 C 
ATOM     40  C   UNL     1      -6.634   0.475   0.758  0.00  0.00    +0.036 C 
ATOM     41  C   UNL     1      -8.210  -0.552  -0.885  0.00  0.00    +0.036 C 
ENDBRANCH  36  38
BRANCH  35  42
ATOM     42  C   UNL     1      -7.690  -3.801  -0.445  0.00  0.00    +0.139 C 
BRANCH  42  43
ATOM     43  N   UNL     1      -7.853  -4.429   0.873  0.00  0.00    -0.300 NA
ATOM     44  C   UNL     1      -6.844  -5.476   1.086  0.00  0.00    +0.066 C 
ATOM     45  C   UNL     1      -7.011  -6.063   2.490  0.00  0.00    -0.064 C 
ATOM     46  N   UNL     1      -8.361  -6.625   2.629  0.00  0.00    +0.379 N 
ATOM     47  C   UNL     1      -9.357  -5.563   2.437  0.00  0.00    -0.064 C 
ATOM     48  C   UNL     1      -9.210  -4.972   1.033  0.00  0.00    +0.066 C 
ATOM     49  C   UNL     1      -8.514  -7.204   3.970  0.00  0.00    -0.096 C 
ATOM     50  H   UNL     1      -8.498  -7.344   1.934  0.00  0.00    -0.082 HD
ENDBRANCH  42  43
ENDBRANCH  35  42
ENDBRANCH  30  33
ENDBRANCH   5  29
TORSDOF 7
