REMARK  Name = CHEMBL212629
REMARK  12 active torsions:
REMARK  status: ('A' for Active; 'I' for Inactive)
REMARK    1  A    between atoms: C_1  and  N_2
REMARK    2  A    between atoms: N_5  and  C_8
REMARK    3  A    between atoms: C_8  and  C_9
REMARK    4  A    between atoms: C_12  and  C_15
REMARK    5  A    between atoms: C_16  and  C_17
REMARK    6  A    between atoms: C_22  and  O_23
REMARK    7  A    between atoms: O_23  and  C_24
REMARK    8  A    between atoms: C_25  and  N_31
REMARK    9  A    between atoms: C_26  and  C_29
REMARK   10  A    between atoms: N_31  and  C_32
REMARK   11  A    between atoms: C_34  and  O_40
REMARK   12  A    between atoms: O_40  and  C_41
REMARK                            x       y       z     vdW  Elec       q    Type
REMARK                         _______ _______ _______ _____ _____    ______ ____
ROOT
ATOM      1  C   UNL     1       5.419  -4.787  11.088  0.00  0.00    +0.069 A 
ATOM      2  C   UNL     1       5.789  -5.810  10.226  0.00  0.00    +0.049 A 
ATOM      3  C   UNL     1       5.291  -7.103  10.431  0.00  0.00    +0.074 A 
ATOM      4  C   UNL     1       4.417  -7.345  11.519  0.00  0.00    +0.026 A 
ATOM      5  C   UNL     1       4.056  -6.297  12.378  0.00  0.00    +0.058 A 
ATOM      6  C   UNL     1       4.551  -5.043  12.171  0.00  0.00    +0.136 A 
ATOM      7  C   UNL     1       3.918  -8.654  11.720  0.00  0.00    +0.060 A 
ATOM      8  C   UNL     1       4.321  -9.653  10.822  0.00  0.00    +0.091 A 
ATOM      9  C   UNL     1       5.192  -9.323   9.771  0.00  0.00    +0.132 A 
ATOM     10  N   UNL     1       5.639  -8.105   9.608  0.00  0.00    -0.254 NA
ENDROOT
BRANCH   1  12
ATOM     11  C   UNL     1       6.341  -2.379  10.711  0.00  0.00    -0.041 C 
ATOM     12  C   UNL     1       5.926  -3.463  10.881  0.00  0.00    -0.056 C 
BRANCH  11  16
ATOM     13  C   UNL     1       7.796   1.472  10.135  0.00  0.00    -0.046 A 
ATOM     14  C   UNL     1       8.188   0.481   9.245  0.00  0.00    +0.006 A 
ATOM     15  C   UNL     1       7.707  -0.802   9.431  0.00  0.00    +0.037 A 
ATOM     16  C   UNL     1       6.848  -1.056  10.503  0.00  0.00    +0.114 A 
ATOM     17  N   UNL     1       6.497  -0.077  11.332  0.00  0.00    -0.246 NA
ATOM     18  C   UNL     1       6.947   1.151  11.179  0.00  0.00    +0.114 A 
BRANCH  13  19
ATOM     19  C   UNL     1       8.296   2.884   9.969  0.00  0.00    -0.041 C 
BRANCH  19  24
ATOM     20  C   UNL     1      13.593   3.944  11.571  0.00  0.00    +0.104 C 
ATOM     21  N   UNL     1      12.313   3.761  10.873  0.00  0.00    -0.309 NA
ATOM     22  C   UNL     1      11.274   4.631  11.442  0.00  0.00    +0.065 C 
ATOM     23  C   UNL     1       9.976   4.454  10.650  0.00  0.00    -0.063 C 
ATOM     24  N   UNL     1       9.552   3.050  10.713  0.00  0.00    +0.384 N 
ATOM     25  C   UNL     1      10.589   2.196  10.120  0.00  0.00    -0.063 C 
ATOM     26  C   UNL     1      11.892   2.354  10.907  0.00  0.00    +0.065 C 
ATOM     27  H   UNL     1       9.409   2.785  11.676  0.00  0.00    -0.081 HD
ENDBRANCH  19  24
ENDBRANCH  13  19
ENDBRANCH  11  16
ENDBRANCH   1  12
BRANCH   6  28
ATOM     28  O   UNL     1       4.203  -4.032  13.009  0.00  0.00    -0.494 OA
ATOM     29  C   UNL     1       3.321  -4.358  14.086  0.00  0.00    +0.277 C 
ENDBRANCH   6  28
BRANCH   8  30
ATOM     30  C   UNL     1       3.849 -10.997  10.976  0.00  0.00    +0.103 C 
ATOM     31  N   UNL     1       3.475 -12.062  11.098  0.00  0.00    -0.191 NA
ENDBRANCH   8  30
BRANCH   7  32
ATOM     32  N   UNL     1       3.063  -8.938  12.766  0.00  0.00    -0.312 N 
ATOM     33  H   UNL     1       2.105  -8.966  12.616  0.00  0.00    +0.152 HD
BRANCH  32  34
ATOM     34  C   UNL     1       3.578  -9.186  14.042  0.00  0.00    +0.053 A 
ATOM     35  C   UNL     1       4.937  -9.031  14.286  0.00  0.00    +0.071 A 
ATOM     36  C   UNL     1       5.444  -9.277  15.551  0.00  0.00    +0.140 A 
ATOM     37  C   UNL     1       4.594  -9.677  16.574  0.00  0.00    +0.084 A 
ATOM     38  C   UNL     1       3.241  -9.831  16.331  0.00  0.00    +0.045 A 
ATOM     39  C   UNL     1       2.731  -9.581  15.070  0.00  0.00    +0.064 A 
ATOM     40 CL   UNL     1       1.031  -9.768  14.770  0.00  0.00    -0.082 Cl
ATOM     41 CL   UNL     1       5.230  -9.985  18.160  0.00  0.00    -0.080 Cl
BRANCH  36  42
ATOM     42  O   UNL     1       6.773  -9.127  15.792  0.00  0.00    -0.494 OA
ATOM     43  C   UNL     1       7.569  -8.599  14.729  0.00  0.00    +0.277 C 
ENDBRANCH  36  42
ENDBRANCH  32  34
ENDBRANCH   7  32
TORSDOF 9
