REMARK  Name = CHEMBL275513
REMARK  10 active torsions:
REMARK  status: ('A' for Active; 'I' for Inactive)
REMARK    1  A    between atoms: C_1  and  O_2
REMARK    2  A    between atoms: O_2  and  C_3
REMARK    3  A    between atoms: C_7  and  N_9
REMARK    4  A    between atoms: C_14  and  O_27
REMARK    5  A    between atoms: C_16  and  O_17
REMARK    6  A    between atoms: O_17  and  C_18
REMARK    7  A    between atoms: C_18  and  C_19
REMARK    8  A    between atoms: C_19  and  C_20
REMARK    9  A    between atoms: C_20  and  N_21
REMARK   10  A    between atoms: O_27  and  C_28
REMARK                            x       y       z     vdW  Elec       q    Type
REMARK                         _______ _______ _______ _____ _____    ______ ____
ROOT
ATOM      1  N   UNL     1       1.323  -3.999  -2.290  0.00  0.00    -0.298 N 
ATOM      2  C   UNL     1       0.853  -4.766  -1.243  0.00  0.00    +0.137 A 
ATOM      3  C   UNL     1       0.996  -6.171  -1.254  0.00  0.00    +0.082 A 
ATOM      4  C   UNL     1       0.493  -6.904  -0.149  0.00  0.00    +0.083 A 
ATOM      5  C   UNL     1       0.619  -8.296  -0.132  0.00  0.00    +0.074 A 
ATOM      6  C   UNL     1       1.231  -8.941  -1.187  0.00  0.00    +0.126 A 
ATOM      7  C   UNL     1       1.727  -8.222  -2.275  0.00  0.00    +0.092 A 
ATOM      8  C   UNL     1       1.616  -6.848  -2.317  0.00  0.00    +0.136 A 
ATOM      9  N   UNL     1      -0.096  -6.233   0.854  0.00  0.00    -0.235 NA
ATOM     10  C   UNL     1      -0.200  -4.926   0.809  0.00  0.00    +0.223 A 
ATOM     11  N   UNL     1       0.260  -4.202  -0.198  0.00  0.00    -0.220 NA
ATOM     12  H   UNL     1       1.846  -4.410  -2.996  0.00  0.00    +0.154 HD
ENDROOT
BRANCH   1  17
ATOM     13  C   UNL     1      -0.226  -0.739  -1.574  0.00  0.00    +0.122 A 
ATOM     14  C   UNL     1       0.498   0.086  -2.423  0.00  0.00    +0.047 A 
ATOM     15  C   UNL     1       1.492  -0.444  -3.223  0.00  0.00    +0.025 A 
ATOM     16  C   UNL     1       1.768  -1.798  -3.181  0.00  0.00    +0.062 A 
ATOM     17  C   UNL     1       1.045  -2.629  -2.332  0.00  0.00    +0.054 A 
ATOM     18  C   UNL     1       0.051  -2.096  -1.524  0.00  0.00    +0.070 A 
ATOM     19 CL   UNL     1       3.017  -2.461  -4.189  0.00  0.00    -0.082 Cl
BRANCH  13  21
ATOM     20  C   UNL     1      -1.435   1.191  -0.890  0.00  0.00    +0.277 C 
ATOM     21  O   UNL     1      -1.203  -0.215  -0.787  0.00  0.00    -0.495 OA
ENDBRANCH  13  21
ENDBRANCH   1  17
BRANCH   6  22
ATOM     22  O   UNL     1       1.353 -10.294  -1.167  0.00  0.00    -0.495 OA
ATOM     23  C   UNL     1       0.826 -10.975  -0.026  0.00  0.00    +0.277 C 
ENDBRANCH   6  22
BRANCH   8  24
ATOM     24  O   UNL     1       2.100  -6.156  -3.379  0.00  0.00    -0.491 OA
BRANCH  24  25
ATOM     25  C   UNL     1       2.717  -6.914  -4.422  0.00  0.00    +0.227 C 
BRANCH  25  26
ATOM     26  C   UNL     1       3.198  -5.968  -5.524  0.00  0.00    +0.022 C 
BRANCH  26  27
ATOM     27  C   UNL     1       3.858  -6.780  -6.640  0.00  0.00    -0.075 C 
BRANCH  27  28
ATOM     28  N   UNL     1       4.320  -5.872  -7.699  0.00  0.00    +0.383 N 
ATOM     29  C   UNL     1       3.162  -5.221  -8.326  0.00  0.00    -0.050 C 
ATOM     30  C   UNL     1       3.646  -4.276  -9.428  0.00  0.00    +0.141 C 
ATOM     31  O   UNL     1       4.412  -5.016 -10.382  0.00  0.00    -0.383 OA
ATOM     32  C   UNL     1       5.539  -5.689  -9.814  0.00  0.00    +0.141 C 
ATOM     33  C   UNL     1       5.059  -6.637  -8.712  0.00  0.00    -0.050 C 
ATOM     34  H   UNL     1       4.925  -5.171  -7.299  0.00  0.00    -0.082 HD
ENDBRANCH  27  28
ENDBRANCH  26  27
ENDBRANCH  25  26
ENDBRANCH  24  25
ENDBRANCH   8  24
TORSDOF 8
