REMARK  Name = CHEMBL81090
REMARK  13 active torsions:
REMARK  status: ('A' for Active; 'I' for Inactive)
REMARK    1  A    between atoms: C_1  and  O_2
REMARK    2  A    between atoms: O_2  and  C_3
REMARK    3  A    between atoms: C_5  and  O_13
REMARK    4  A    between atoms: C_7  and  O_11
REMARK    5  A    between atoms: C_8  and  O_9
REMARK    6  A    between atoms: O_9  and  C_10
REMARK    7  A    between atoms: O_11  and  C_12
REMARK    8  A    between atoms: O_13  and  C_14
REMARK    9  A    between atoms: C_17  and  O_28
REMARK   10  A    between atoms: C_18  and  O_26
REMARK   11  A    between atoms: C_23  and  C_24
REMARK   12  A    between atoms: O_26  and  C_27
REMARK   13  A    between atoms: O_28  and  C_29
REMARK                            x       y       z     vdW  Elec       q    Type
REMARK                         _______ _______ _______ _____ _____    ______ ____
ROOT
ATOM      1  C   UNL     1       2.936  -0.342  -5.161  0.00  0.00    +0.156 A 
ATOM      2  C   UNL     1       4.304  -0.686  -5.119  0.00  0.00    +0.048 A 
ATOM      3  C   UNL     1       5.094  -0.373  -4.002  0.00  0.00    +0.063 A 
ATOM      4  C   UNL     1       6.415  -0.718  -3.986  0.00  0.00    +0.162 A 
ATOM      5  C   UNL     1       6.992  -1.382  -5.079  0.00  0.00    +0.164 A 
ATOM      6  C   UNL     1       6.240  -1.699  -6.186  0.00  0.00    +0.077 A 
ATOM      7  C   UNL     1       4.879  -1.357  -6.226  0.00  0.00    +0.078 A 
ATOM      8  N   UNL     1       4.130  -1.659  -7.296  0.00  0.00    -0.253 NA
ATOM      9  C   UNL     1       2.860  -1.352  -7.360  0.00  0.00    +0.134 A 
ATOM     10  C   UNL     1       2.208  -0.691  -6.306  0.00  0.00    +0.113 A 
ENDROOT
BRANCH  10  11
ATOM     11  C   UNL     1       0.815  -0.373  -6.403  0.00  0.00    +0.104 C 
ATOM     12  N   UNL     1      -0.290  -0.121  -6.480  0.00  0.00    -0.191 NA
ENDBRANCH  10  11
BRANCH   5  13
ATOM     13  O   UNL     1       8.309  -1.715  -5.043  0.00  0.00    -0.491 OA
ATOM     14  C   UNL     1       8.839  -2.390  -6.185  0.00  0.00    +0.277 C 
ENDBRANCH   5  13
BRANCH   4  15
ATOM     15  O   UNL     1       7.178  -0.414  -2.903  0.00  0.00    -0.491 OA
ATOM     16  C   UNL     1       6.531   0.263  -1.823  0.00  0.00    +0.277 C 
ENDBRANCH   4  15
BRANCH   1  17
ATOM     17  O   UNL     1       2.344   0.300  -4.127  0.00  0.00    -0.454 OA
BRANCH  17  20
ATOM     18  C   UNL     1       0.606  -0.608  -1.056  0.00  0.00    +0.169 A 
ATOM     19  C   UNL     1       1.173   0.160  -2.062  0.00  0.00    +0.095 A 
ATOM     20  C   UNL     1       1.789  -0.455  -3.141  0.00  0.00    +0.136 A 
ATOM     21  C   UNL     1       1.840  -1.839  -3.216  0.00  0.00    +0.095 A 
ATOM     22  C   UNL     1       1.275  -2.609  -2.212  0.00  0.00    +0.169 A 
ATOM     23  C   UNL     1       0.661  -1.994  -1.128  0.00  0.00    +0.204 A 
BRANCH  18  25
ATOM     24  C   UNL     1      -0.017   1.425   0.010  0.00  0.00    +0.277 C 
ATOM     25  O   UNL     1       0.002  -0.004   0.002  0.00  0.00    -0.491 OA
ENDBRANCH  18  25
BRANCH  23  26
ATOM     26  O   UNL     1       0.110  -2.750  -0.138  0.00  0.00    -0.488 OA
ATOM     27  C   UNL     1      -1.261  -3.122  -0.293  0.00  0.00    +0.277 C 
ENDBRANCH  23  26
BRANCH  22  28
ATOM     28  O   UNL     1       1.324  -3.966  -2.287  0.00  0.00    -0.491 OA
ATOM     29  C   UNL     1       1.975  -4.530  -3.427  0.00  0.00    +0.277 C 
ENDBRANCH  22  28
ENDBRANCH  17  20
ENDBRANCH   1  17
TORSDOF 8
