REMARK  Name = CHEMBL104807
REMARK  9 active torsions:
REMARK  status: ('A' for Active; 'I' for Inactive)
REMARK    1  A    between atoms: C_1  and  C_2
REMARK    2  A    between atoms: C_5  and  C_8
REMARK    3  A    between atoms: N_15  and  C_17
REMARK    4  A    between atoms: C_21  and  C_23
REMARK    5  A    between atoms: N_25  and  C_26
REMARK    6  A    between atoms: C_26  and  C_27
REMARK    7  A    between atoms: C_30  and  P_37
REMARK    8  A    between atoms: C_31  and  P_33
REMARK    9  A    between atoms: P_33  and  O_36
REMARK                            x       y       z     vdW  Elec       q    Type
REMARK                         _______ _______ _______ _____ _____    ______ ____
ROOT
ATOM      1  C   UNL     1       1.712  -7.314  -1.190  0.00  0.00    +0.064 C 
ATOM      2  C   UNL     1       1.415  -7.256  -2.496  0.00  0.00    +0.001 C 
ATOM      3  C   UNL     1       1.396  -8.511  -3.327  0.00  0.00    +0.034 C 
ATOM      4  C   UNL     1       2.483  -9.472  -2.848  0.00  0.00    +0.044 C 
ATOM      5  C   UNL     1       2.391  -9.649  -1.355  0.00  0.00    +0.017 C 
ATOM      6  C   UNL     1       2.029  -8.609  -0.574  0.00  0.00    +0.036 C 
ENDROOT
BRANCH   1  14
ATOM      7  C   UNL     1       1.542  -3.991   0.087  0.00  0.00    +0.105 A 
ATOM      8  C   UNL     1       1.916  -4.731   1.292  0.00  0.00    +0.086 A 
ATOM      9  C   UNL     1       2.171  -4.387   2.630  0.00  0.00    +0.131 A 
ATOM     10  N   UNL     1       2.496  -5.356   3.480  0.00  0.00    -0.220 NA
ATOM     11  C   UNL     1       2.579  -6.613   3.082  0.00  0.00    +0.225 A 
ATOM     12  N   UNL     1       2.350  -6.982   1.841  0.00  0.00    -0.216 NA
ATOM     13  C   UNL     1       2.017  -6.083   0.915  0.00  0.00    +0.169 A 
ATOM     14  N   UNL     1       1.725  -6.146  -0.418  0.00  0.00    -0.214 N 
ATOM     15  N   UNL     1       1.436  -4.861  -0.891  0.00  0.00    -0.164 NA
ATOM     16  N   UNL     1       2.086  -3.074   3.052  0.00  0.00    -0.342 N 
ATOM     17  H   UNL     1       1.755  -2.391   2.448  0.00  0.00    +0.144 HD
ATOM     18  H   UNL     1       2.357  -2.835   3.952  0.00  0.00    +0.144 HD
BRANCH   7  23
ATOM     19  C   UNL     1       0.696   1.665   0.342  0.00  0.00    +0.012 C 
ATOM     20  C   UNL     1       0.739   0.159   0.609  0.00  0.00    +0.012 C 
ATOM     21  C   UNL     1      -0.114  -0.565  -0.432  0.00  0.00    +0.035 C 
ATOM     22  C   UNL     1       0.105  -2.051  -0.332  0.00  0.00    -0.016 C 
ATOM     23  C   UNL     1       1.318  -2.530  -0.011  0.00  0.00    -0.001 C 
ATOM     24  C   UNL     1       2.429  -1.587   0.243  0.00  0.00    +0.006 C 
ATOM     25  C   UNL     1       2.163  -0.321   0.533  0.00  0.00    -0.023 C 
ENDBRANCH   7  23
ENDBRANCH   1  14
BRANCH   5  26
ATOM     26  C   UNL     1       2.699 -10.945  -0.751  0.00  0.00    +0.240 C 
ATOM     27  O   UNL     1       2.625 -11.088   0.455  0.00  0.00    -0.271 OA
ATOM     28  N   UNL     1       3.065 -11.982  -1.531  0.00  0.00    -0.307 N 
ATOM     29  H   UNL     1       3.124 -11.868  -2.493  0.00  0.00    +0.149 HD
BRANCH  28  30
ATOM     30  C   UNL     1       3.374 -13.280  -0.927  0.00  0.00    +0.139 C 
BRANCH  30  31
ATOM     31  C   UNL     1       3.753 -14.260  -2.007  0.00  0.00    -0.029 A 
ATOM     32  C   UNL     1       2.778 -15.029  -2.616  0.00  0.00    +0.006 A 
ATOM     33  C   UNL     1       3.126 -15.927  -3.607  0.00  0.00    +0.017 A 
ATOM     34  C   UNL     1       4.448 -16.057  -3.990  0.00  0.00    +0.083 A 
ATOM     35  C   UNL     1       5.422 -15.288  -3.382  0.00  0.00    +0.081 A 
ATOM     36  C   UNL     1       5.074 -14.386  -2.394  0.00  0.00    +0.022 A 
BRANCH  34  37
ATOM     37  P   UNL     1       4.904 -17.237  -5.290  0.00  0.00    +0.417 P 
ATOM     38  O   UNL     1       4.842 -16.527  -6.685  0.00  0.00    -0.248 OA
ATOM     39  O   UNL     1       6.358 -17.760  -5.034  0.00  0.00    -0.135 OA
ATOM     40  O   UNL     1       3.905 -18.444  -5.274  0.00  0.00    -0.135 OA
ENDBRANCH  34  37
BRANCH  35  41
ATOM     41  P   UNL     1       7.157 -15.458  -3.885  0.00  0.00    +0.389 P 
ATOM     42  O   UNL     1       7.839 -16.542  -3.020  0.00  0.00    -0.251 OA
ATOM     43  O   UNL     1       7.224 -15.868  -5.373  0.00  0.00    -0.136 OA
BRANCH  41  44
ATOM     44  O   UNL     1       7.915 -14.053  -3.680  0.00  0.00    -0.319 OA
ATOM     45  H   UNL     1       8.849 -14.070  -3.929  0.00  0.00    +0.220 HD
ENDBRANCH  41  44
ENDBRANCH  35  41
ENDBRANCH  30  31
ENDBRANCH  28  30
ENDBRANCH   5  26
TORSDOF 8
