REMARK  Name = CHEMBL230614
REMARK  10 active torsions:
REMARK  status: ('A' for Active; 'I' for Inactive)
REMARK    1  A    between atoms: C_1  and  C_2
REMARK    2  A    between atoms: C_6  and  C_36
REMARK    3  A    between atoms: C_7  and  C_8
REMARK    4  A    between atoms: C_10  and  C_35
REMARK    5  A    between atoms: N_18  and  C_19
REMARK    6  A    between atoms: C_22  and  O_25
REMARK    7  A    between atoms: O_25  and  C_26
REMARK    8  A    between atoms: C_26  and  C_27
REMARK    9  A    between atoms: C_27  and  N_28
REMARK   10  A    between atoms: N_31  and  C_34
REMARK                            x       y       z     vdW  Elec       q    Type
REMARK                         _______ _______ _______ _____ _____    ______ ____
ROOT
ATOM      1  C   UNL     1      -0.428   2.293   0.576  0.00  0.00    -0.015 A 
ATOM      2  C   UNL     1       0.350   1.449   1.385  0.00  0.00    +0.014 A 
ATOM      3  C   UNL     1       0.274   1.518   2.740  0.00  0.00    -0.022 A 
ATOM      4  C   UNL     1      -0.592   2.443   3.347  0.00  0.00    +0.097 A 
ATOM      5  C   UNL     1      -1.383   3.302   2.538  0.00  0.00    +0.112 A 
ATOM      6  C   UNL     1      -1.286   3.218   1.142  0.00  0.00    +0.040 A 
ATOM      7  N   UNL     1      -2.202   4.177   3.133  0.00  0.00    -0.144 NA
ATOM      8  N   UNL     1      -2.261   4.229   4.419  0.00  0.00    -0.112 NA
ATOM      9  C   UNL     1      -1.524   3.429   5.194  0.00  0.00    +0.240 A 
ATOM     10  N   UNL     1      -0.694   2.541   4.678  0.00  0.00    -0.211 NA
ATOM     11  N   UNL     1      -1.633   3.534   6.570  0.00  0.00    -0.282 N 
ATOM     12  C   UNL     1       1.116   0.603   3.591  0.00  0.00    +0.046 C 
ATOM     13  H   UNL     1      -1.041   3.022   7.143  0.00  0.00    +0.155 HD
ENDROOT
BRANCH   1  20
ATOM     14  C   UNL     1       0.631   4.520  -0.937  0.00  0.00    +0.044 C 
ATOM     15  C   UNL     1       0.186   3.263  -1.638  0.00  0.00    -0.042 A 
ATOM     16  C   UNL     1       0.286   3.165  -3.011  0.00  0.00    +0.004 A 
ATOM     17  C   UNL     1      -0.123   2.011  -3.656  0.00  0.00    +0.001 A 
ATOM     18  C   UNL     1      -0.634   0.951  -2.930  0.00  0.00    +0.004 A 
ATOM     19  C   UNL     1      -0.740   1.038  -1.557  0.00  0.00    -0.042 A 
ATOM     20  C   UNL     1      -0.324   2.196  -0.901  0.00  0.00    -0.012 A 
ATOM     21  C   UNL     1      -1.298  -0.117  -0.767  0.00  0.00    +0.044 C 
ENDBRANCH   1  20
BRANCH  11  22
ATOM     22  C   UNL     1      -2.597   4.378   7.134  0.00  0.00    +0.034 A 
ATOM     23  C   UNL     1      -3.836   4.522   6.524  0.00  0.00    +0.027 A 
ATOM     24  C   UNL     1      -4.787   5.354   7.082  0.00  0.00    +0.047 A 
ATOM     25  C   UNL     1      -4.503   6.047   8.250  0.00  0.00    +0.121 A 
ATOM     26  C   UNL     1      -3.265   5.905   8.859  0.00  0.00    +0.047 A 
ATOM     27  C   UNL     1      -2.316   5.068   8.306  0.00  0.00    +0.027 A 
BRANCH  25  28
ATOM     28  O   UNL     1      -5.440   6.867   8.797  0.00  0.00    -0.491 OA
BRANCH  28  29
ATOM     29  C   UNL     1      -5.080   7.550  10.000  0.00  0.00    +0.244 C 
BRANCH  29  30
ATOM     30  C   UNL     1      -6.251   8.419  10.463  0.00  0.00    +0.125 C 
BRANCH  30  31
ATOM     31  N   UNL     1      -7.396   7.561  10.795  0.00  0.00    -0.303 NA
ATOM     32  C   UNL     1      -8.646   8.334  10.816  0.00  0.00    +0.066 C 
ATOM     33  C   UNL     1      -9.819   7.395  11.106  0.00  0.00    -0.064 C 
ATOM     34  N   UNL     1      -9.610   6.736  12.402  0.00  0.00    +0.379 N 
ATOM     35  C   UNL     1      -8.371   5.948  12.358  0.00  0.00    -0.064 C 
ATOM     36  C   UNL     1      -7.186   6.875  12.078  0.00  0.00    +0.066 C 
ATOM     37  C   UNL     1     -10.745   5.848  12.688  0.00  0.00    -0.096 C 
ATOM     38  H   UNL     1      -9.538   7.434  13.127  0.00  0.00    -0.082 HD
ENDBRANCH  30  31
ENDBRANCH  29  30
ENDBRANCH  28  29
ENDBRANCH  25  28
ENDBRANCH  11  22
TORSDOF 6
