REMARK  Name = CHEMBL305234
REMARK  7 active torsions:
REMARK  status: ('A' for Active; 'I' for Inactive)
REMARK    1  A    between atoms: C_3  and  N_27
REMARK    2  A    between atoms: C_6  and  C_7
REMARK    3  A    between atoms: C_7  and  N_8
REMARK    4  A    between atoms: C_11  and  O_26
REMARK    5  A    between atoms: C_12  and  O_25
REMARK    6  A    between atoms: C_17  and  O_24
REMARK    7  A    between atoms: C_18  and  O_23
REMARK                            x       y       z     vdW  Elec       q    Type
REMARK                         _______ _______ _______ _____ _____    ______ ____
ROOT
ATOM      1  N   UNL     1      -1.725  -1.018  -1.368  0.00  0.00    -0.303 N 
ATOM      2  C   UNL     1      -2.540  -0.082  -1.989  0.00  0.00    +0.057 A 
ATOM      3  C   UNL     1      -2.931   1.061  -1.300  0.00  0.00    +0.075 A 
ATOM      4  C   UNL     1      -3.743   1.997  -1.913  0.00  0.00    +0.160 A 
ATOM      5  C   UNL     1      -4.177   1.805  -3.225  0.00  0.00    +0.159 A 
ATOM      6  C   UNL     1      -3.796   0.674  -3.921  0.00  0.00    +0.059 A 
ATOM      7  C   UNL     1      -2.977  -0.275  -3.308  0.00  0.00    +0.010 A 
ATOM      8  C   UNL     1      -2.560  -1.489  -4.034  0.00  0.00    +0.000 A 
ATOM      9  C   UNL     1      -2.964  -1.729  -5.343  0.00  0.00    +0.058 A 
ATOM     10  C   UNL     1      -2.549  -2.881  -5.987  0.00  0.00    +0.159 A 
ATOM     11  C   UNL     1      -1.728  -3.803  -5.330  0.00  0.00    +0.159 A 
ATOM     12  C   UNL     1      -1.321  -3.576  -4.031  0.00  0.00    +0.063 A 
ATOM     13  C   UNL     1      -1.731  -2.418  -3.370  0.00  0.00    +0.051 A 
ATOM     14  C   UNL     1      -1.315  -2.137  -1.990  0.00  0.00    +0.260 A 
ATOM     15  O   UNL     1      -0.596  -2.925  -1.404  0.00  0.00    -0.267 OA
ENDROOT
BRANCH  11  16
ATOM     16  O   UNL     1      -1.329  -4.931  -5.976  0.00  0.00    -0.503 OA
ATOM     17  H   UNL     1      -0.498  -4.834  -6.461  0.00  0.00    +0.292 HD
ENDBRANCH  11  16
BRANCH  10  18
ATOM     18  O   UNL     1      -2.942  -3.119  -7.265  0.00  0.00    -0.503 OA
ATOM     19  H   UNL     1      -2.340  -2.763  -7.934  0.00  0.00    +0.292 HD
ENDBRANCH  10  18
BRANCH   5  20
ATOM     20  O   UNL     1      -4.976   2.731  -3.820  0.00  0.00    -0.503 OA
ATOM     21  H   UNL     1      -4.492   3.424  -4.290  0.00  0.00    +0.292 HD
ENDBRANCH   5  20
BRANCH   4  22
ATOM     22  O   UNL     1      -4.121   3.112  -1.233  0.00  0.00    -0.503 OA
ATOM     23  H   UNL     1      -3.515   3.859  -1.335  0.00  0.00    +0.292 HD
ENDBRANCH   4  22
BRANCH   1  24
ATOM     24  C   UNL     1      -1.293  -0.775   0.010  0.00  0.00    +0.160 C 
BRANCH  24  30
ATOM     25  C   UNL     1      -0.017   1.378   0.010  0.00  0.00    +0.007 A 
ATOM     26  C   UNL     1       1.171   2.086   0.002  0.00  0.00    +0.033 A 
ATOM     27  C   UNL     1       2.377   1.411  -0.013  0.00  0.00    +0.126 A 
ATOM     28  C   UNL     1       2.396   0.029  -0.020  0.00  0.00    +0.033 A 
ATOM     29  C   UNL     1       1.208  -0.679  -0.012  0.00  0.00    +0.007 A 
ATOM     30  C   UNL     1       0.002  -0.004   0.002  0.00  0.00    -0.028 A 
BRANCH  27  31
ATOM     31  N   UNL     1       3.649   2.168  -0.022  0.00  0.00    +0.056 N 
ATOM     32  O   UNL     1       3.633   3.377  -0.016  0.00  0.00    -0.126 OA
ATOM     33  O   UNL     1       4.704   1.578  -0.035  0.00  0.00    -0.126 OA
ENDBRANCH  27  31
ENDBRANCH  24  30
ENDBRANCH   1  24
TORSDOF 7
