REMARK  Name = CHEMBL250214
REMARK  5 active torsions:
REMARK  status: ('A' for Active; 'I' for Inactive)
REMARK    1  A    between atoms: C_1  and  C_2
REMARK    2  A    between atoms: C_4  and  C_27
REMARK    3  A    between atoms: N_12  and  C_13
REMARK    4  A    between atoms: C_16  and  C_19
REMARK    5  A    between atoms: C_29  and  O_34
REMARK                            x       y       z     vdW  Elec       q    Type
REMARK                         _______ _______ _______ _____ _____    ______ ____
ROOT
ATOM      1  C   UNL     1       0.475   1.527   0.052  0.00  0.00    +0.046 C 
ATOM      2  C   UNL     1      -0.008   0.100   0.038  0.00  0.00    -0.022 A 
ATOM      3  C   UNL     1      -0.252  -0.525  -1.144  0.00  0.00    +0.014 A 
ATOM      4  C   UNL     1      -0.703  -1.855  -1.177  0.00  0.00    -0.014 A 
ATOM      5  C   UNL     1      -0.909  -2.557  -0.004  0.00  0.00    +0.040 A 
ATOM      6  C   UNL     1      -0.664  -1.931   1.226  0.00  0.00    +0.112 A 
ATOM      7  C   UNL     1      -0.203  -0.588   1.247  0.00  0.00    +0.097 A 
ATOM      8  N   UNL     1       0.031  -0.008   2.430  0.00  0.00    -0.211 NA
ATOM      9  C   UNL     1      -0.169  -0.703   3.536  0.00  0.00    +0.240 A 
ATOM     10  N   UNL     1      -0.598  -1.966   3.498  0.00  0.00    -0.112 NA
ATOM     11  N   UNL     1      -0.850  -2.570   2.387  0.00  0.00    -0.144 NA
ATOM     12  N   UNL     1       0.072  -0.106   4.762  0.00  0.00    -0.282 N 
ATOM     13  H   UNL     1       0.304   0.835   4.807  0.00  0.00    +0.155 HD
ENDROOT
BRANCH   4  14
ATOM     14  C   UNL     1      -0.960  -2.511  -2.482  0.00  0.00    +0.004 A 
ATOM     15  C   UNL     1      -0.422  -3.768  -2.750  0.00  0.00    +0.055 A 
ATOM     16  C   UNL     1      -0.665  -4.375  -3.970  0.00  0.00    +0.118 A 
ATOM     17  C   UNL     1      -1.444  -3.733  -4.923  0.00  0.00    +0.047 A 
ATOM     18  C   UNL     1      -1.979  -2.486  -4.659  0.00  0.00    +0.024 A 
ATOM     19  C   UNL     1      -1.747  -1.875  -3.442  0.00  0.00    +0.049 A 
ATOM     20 CL   UNL     1      -2.427  -0.312  -3.111  0.00  0.00    -0.083 Cl
BRANCH  16  21
ATOM     21  O   UNL     1      -0.141  -5.601  -4.236  0.00  0.00    -0.507 OA
ATOM     22  H   UNL     1      -0.713  -6.337  -3.978  0.00  0.00    +0.292 HD
ENDBRANCH  16  21
ENDBRANCH   4  14
BRANCH  12  23
ATOM     23  C   UNL     1      -0.018  -0.857   5.931  0.00  0.00    +0.034 A 
ATOM     24  C   UNL     1       0.407  -2.182   5.940  0.00  0.00    +0.024 A 
ATOM     25  C   UNL     1       0.319  -2.928   7.093  0.00  0.00    +0.015 A 
ATOM     26  C   UNL     1      -0.198  -2.352   8.258  0.00  0.00    +0.037 A 
ATOM     27  C   UNL     1      -0.624  -1.021   8.246  0.00  0.00    +0.015 A 
ATOM     28  C   UNL     1      -0.528  -0.279   7.090  0.00  0.00    +0.024 A 
BRANCH  26  29
ATOM     29  C   UNL     1      -0.295  -3.148   9.496  0.00  0.00    +0.246 C 
ATOM     30  O   UNL     1       0.638  -3.846   9.845  0.00  0.00    -0.270 OA
ATOM     31  N   UNL     1      -1.417  -3.102  10.241  0.00  0.00    -0.301 N 
ATOM     32  C   UNL     1      -2.524  -2.200   9.886  0.00  0.00    +0.089 C 
ATOM     33  C   UNL     1      -3.824  -3.011   9.867  0.00  0.00    -0.063 C 
ATOM     34  N   UNL     1      -3.990  -3.698  11.153  0.00  0.00    +0.381 N 
ATOM     35  C   UNL     1      -2.915  -4.680  11.339  0.00  0.00    -0.063 C 
ATOM     36  C   UNL     1      -1.572  -3.956  11.429  0.00  0.00    +0.089 C 
ATOM     37  H   UNL     1      -3.959  -3.022  11.901  0.00  0.00    -0.086 HD
ATOM     38  H   UNL     1      -4.882  -4.171  11.168  0.00  0.00    -0.086 HD
ENDBRANCH  26  29
ENDBRANCH  12  23
TORSDOF 4
