REMARK  Name = CHEMBL1084028
REMARK  8 active torsions:
REMARK  status: ('A' for Active; 'I' for Inactive)
REMARK    1  A    between atoms: C_1  and  N_2
REMARK    2  A    between atoms: N_5  and  C_8
REMARK    3  A    between atoms: C_12  and  C_14
REMARK    4  A    between atoms: C_21  and  C_24
REMARK    5  A    between atoms: C_22  and  N_23
REMARK    6  A    between atoms: C_27  and  N_30
REMARK    7  A    between atoms: N_33  and  C_34
REMARK    8  A    between atoms: C_34  and  C_35
REMARK                            x       y       z     vdW  Elec       q    Type
REMARK                         _______ _______ _______ _____ _____    ______ ____
ROOT
ATOM      1  C   UNL     1       0.257  -6.016   4.289  0.00  0.00    +0.046 A 
ATOM      2  C   UNL     1       1.570  -6.456   4.086  0.00  0.00    +0.145 A 
ATOM      3  N   UNL     1       2.030  -6.947   5.210  0.00  0.00    -0.171 NA
ATOM      4  N   UNL     1       1.041  -6.850   6.195  0.00  0.00    -0.200 N 
ATOM      5  C   UNL     1      -0.062  -6.267   5.630  0.00  0.00    +0.165 A 
ATOM      6  N   UNL     1      -1.168  -6.044   6.348  0.00  0.00    -0.235 NA
ATOM      7  C   UNL     1      -1.237  -6.371   7.619  0.00  0.00    +0.125 A 
ATOM      8  C   UNL     1      -0.135  -6.969   8.254  0.00  0.00    +0.040 A 
ATOM      9  C   UNL     1       1.017  -7.213   7.514  0.00  0.00    +0.129 A 
ENDROOT
BRANCH   1  14
ATOM     10  C   UNL     1      -1.000  -3.758   1.555  0.00  0.00    +0.030 A 
ATOM     11  C   UNL     1      -2.294  -4.239   1.384  0.00  0.00    +0.023 A 
ATOM     12  C   UNL     1      -2.752  -5.291   2.154  0.00  0.00    +0.002 A 
ATOM     13  C   UNL     1      -1.928  -5.871   3.098  0.00  0.00    +0.009 A 
ATOM     14  C   UNL     1      -0.629  -5.396   3.276  0.00  0.00    -0.011 A 
ATOM     15  C   UNL     1      -0.164  -4.338   2.496  0.00  0.00    +0.031 A 
BRANCH  10  20
ATOM     16  C   UNL     1      -0.121   1.401  -0.045  0.00  0.00    +0.105 C 
ATOM     17  N   UNL     1      -0.092  -0.068  -0.043  0.00  0.00    -0.302 NA
ATOM     18  C   UNL     1      -1.450  -0.621  -0.132  0.00  0.00    +0.103 C 
ATOM     19  C   UNL     1      -1.369  -2.141  -0.309  0.00  0.00    +0.120 C 
ATOM     20  N   UNL     1      -0.542  -2.694   0.774  0.00  0.00    -0.327 N 
ATOM     21  C   UNL     1       0.781  -2.097   1.014  0.00  0.00    +0.120 C 
ATOM     22  C   UNL     1       0.615  -0.579   1.139  0.00  0.00    +0.103 C 
ENDBRANCH  10  20
ENDBRANCH   1  14
BRANCH   8  23
ATOM     23  C   UNL     1      -0.203  -7.341   9.688  0.00  0.00    -0.013 A 
ATOM     24  C   UNL     1      -0.130  -8.681  10.066  0.00  0.00    +0.010 A 
ATOM     25  C   UNL     1      -0.193  -9.024  11.400  0.00  0.00    +0.024 A 
ATOM     26  C   UNL     1      -0.330  -8.036  12.367  0.00  0.00    +0.035 A 
ATOM     27  C   UNL     1      -0.403  -6.700  11.993  0.00  0.00    +0.024 A 
ATOM     28  C   UNL     1      -0.335  -6.351  10.661  0.00  0.00    +0.010 A 
BRANCH  26  29
ATOM     29  N   UNL     1      -0.394  -8.387  13.721  0.00  0.00    -0.269 N 
ATOM     30  C   UNL     1       0.320  -9.434  14.180  0.00  0.00    +0.304 C 
ATOM     31  O   UNL     1       1.096 -10.011  13.443  0.00  0.00    -0.253 OA
ATOM     32  N   UNL     1       0.174  -9.841  15.457  0.00  0.00    -0.299 N 
ATOM     33  H   UNL     1      -0.953  -7.877  14.328  0.00  0.00    +0.156 HD
ATOM     34  H   UNL     1      -0.445  -9.380  16.045  0.00  0.00    +0.150 HD
BRANCH  32  35
ATOM     35  C   UNL     1       0.950 -10.979  15.956  0.00  0.00    +0.109 C 
BRANCH  35  36
ATOM     36  C   UNL     1       0.599 -11.231  17.424  0.00  0.00    +0.006 C 
ATOM     37  C   UNL     1       1.044 -10.035  18.268  0.00  0.00    +0.005 C 
ATOM     38  C   UNL     1       0.693 -10.287  19.735  0.00  0.00    +0.000 C 
ATOM     39  C   UNL     1       1.408 -11.549  20.221  0.00  0.00    +0.000 C 
ATOM     40  C   UNL     1       0.963 -12.745  19.377  0.00  0.00    +0.000 C 
ATOM     41  C   UNL     1       1.314 -12.493  17.910  0.00  0.00    +0.005 C 
ENDBRANCH  35  36
ENDBRANCH  32  35
ENDBRANCH  26  29
ENDBRANCH   8  23
BRANCH   9  42
ATOM     42  N   UNL     1       2.117  -7.795   8.101  0.00  0.00    -0.343 N 
ATOM     43  H   UNL     1       2.920  -7.952   7.579  0.00  0.00    +0.144 HD
ATOM     44  H   UNL     1       2.090  -8.049   9.037  0.00  0.00    +0.144 HD
ENDBRANCH   9  42
TORSDOF 7
