REMARK  Name = CHEMBL211647
REMARK  14 active torsions:
REMARK  status: ('A' for Active; 'I' for Inactive)
REMARK    1  A    between atoms: C_1  and  C_2
REMARK    2  A    between atoms: C_2  and  O_3
REMARK    3  A    between atoms: O_3  and  C_4
REMARK    4  A    between atoms: C_9  and  C_10
REMARK    5  A    between atoms: C_11  and  C_12
REMARK    6  A    between atoms: C_16  and  C_18
REMARK    7  A    between atoms: C_18  and  N_19
REMARK    8  A    between atoms: N_19  and  C_20
REMARK    9  A    between atoms: N_19  and  C_21
REMARK   10  A    between atoms: C_24  and  C_37
REMARK   11  A    between atoms: C_25  and  N_26
REMARK   12  A    between atoms: N_26  and  C_27
REMARK   13  A    between atoms: C_29  and  O_35
REMARK   14  A    between atoms: O_35  and  C_36
REMARK                            x       y       z     vdW  Elec       q    Type
REMARK                         _______ _______ _______ _____ _____    ______ ____
ROOT
ATOM      1  C   UNL     1      -1.319  -1.731  -0.782  0.00  0.00    +0.137 A 
ATOM      2  C   UNL     1      -0.274  -2.574  -0.537  0.00  0.00    +0.058 A 
ATOM      3  C   UNL     1      -0.497  -3.955  -0.434  0.00  0.00    +0.026 A 
ATOM      4  C   UNL     1      -1.805  -4.477  -0.586  0.00  0.00    +0.074 A 
ATOM      5  C   UNL     1      -2.868  -3.601  -0.838  0.00  0.00    +0.049 A 
ATOM      6  C   UNL     1      -2.627  -2.237  -0.929  0.00  0.00    +0.069 A 
ATOM      7  N   UNL     1      -2.021  -5.798  -0.487  0.00  0.00    -0.254 NA
ATOM      8  C   UNL     1      -1.050  -6.644  -0.252  0.00  0.00    +0.132 A 
ATOM      9  C   UNL     1       0.277  -6.214  -0.088  0.00  0.00    +0.091 A 
ATOM     10  C   UNL     1       0.572  -4.846  -0.180  0.00  0.00    +0.060 A 
ENDROOT
BRANCH   6  11
ATOM     11  C   UNL     1      -3.713  -1.338  -1.181  0.00  0.00    -0.056 C 
ATOM     12  C   UNL     1      -4.604  -0.601  -1.387  0.00  0.00    -0.041 C 
BRANCH  12  13
ATOM     13  C   UNL     1      -5.690   0.298  -1.638  0.00  0.00    +0.114 A 
ATOM     14  C   UNL     1      -5.445   1.670  -1.741  0.00  0.00    +0.037 A 
ATOM     15  C   UNL     1      -6.505   2.525  -1.984  0.00  0.00    +0.004 A 
ATOM     16  C   UNL     1      -7.777   1.983  -2.116  0.00  0.00    +0.021 A 
ATOM     17  C   UNL     1      -7.949   0.616  -2.002  0.00  0.00    +0.026 A 
ATOM     18  N   UNL     1      -6.923  -0.179  -1.776  0.00  0.00    -0.245 NA
BRANCH  17  19
ATOM     19  C   UNL     1      -9.328   0.026  -2.145  0.00  0.00    -0.023 C 
BRANCH  19  20
ATOM     20  N   UNL     1      -9.532  -0.414  -3.531  0.00  0.00    +0.380 N 
ATOM     21  C   UNL     1      -8.606  -1.513  -3.837  0.00  0.00    -0.096 C 
ATOM     22  C   UNL     1     -10.915  -0.878  -3.700  0.00  0.00    -0.096 C 
ATOM     23  H   UNL     1      -9.357   0.357  -4.158  0.00  0.00    -0.082 HD
ENDBRANCH  19  20
ENDBRANCH  17  19
ENDBRANCH  12  13
ENDBRANCH   6  11
BRANCH  10  24
ATOM     24  N   UNL     1       1.864  -4.384  -0.025  0.00  0.00    -0.312 N 
ATOM     25  H   UNL     1       2.022  -3.462   0.235  0.00  0.00    +0.152 HD
BRANCH  24  26
ATOM     26  C   UNL     1       2.945  -5.243  -0.243  0.00  0.00    +0.053 A 
ATOM     27  C   UNL     1       3.757  -5.622   0.818  0.00  0.00    +0.071 A 
ATOM     28  C   UNL     1       4.827  -6.474   0.599  0.00  0.00    +0.140 A 
ATOM     29  C   UNL     1       5.086  -6.947  -0.681  0.00  0.00    +0.084 A 
ATOM     30  C   UNL     1       4.277  -6.570  -1.737  0.00  0.00    +0.045 A 
ATOM     31  C   UNL     1       3.205  -5.724  -1.521  0.00  0.00    +0.064 A 
ATOM     32 CL   UNL     1       2.187  -5.258  -2.847  0.00  0.00    -0.082 Cl
ATOM     33 CL   UNL     1       6.428  -8.014  -0.955  0.00  0.00    -0.080 Cl
BRANCH  28  34
ATOM     34  O   UNL     1       5.624  -6.846   1.636  0.00  0.00    -0.494 OA
ATOM     35  C   UNL     1       5.233  -6.415   2.941  0.00  0.00    +0.277 C 
ENDBRANCH  28  34
ENDBRANCH  24  26
ENDBRANCH  10  24
BRANCH   9  36
ATOM     36  C   UNL     1       1.318  -7.163   0.169  0.00  0.00    +0.103 C 
ATOM     37  N   UNL     1       2.144  -7.916   0.373  0.00  0.00    -0.191 NA
ENDBRANCH   9  36
BRANCH   1  38
ATOM     38  O   UNL     1      -1.098  -0.394  -0.881  0.00  0.00    -0.491 OA
BRANCH  38  40
ATOM     39  C   UNL     1       0.301   1.577  -0.864  0.00  0.00    +0.048 C 
ATOM     40  C   UNL     1       0.250   0.054  -0.722  0.00  0.00    +0.226 C 
ENDBRANCH  38  40
ENDBRANCH   1  38
TORSDOF 10
