REMARK  Name = CHEMBL304361
REMARK  5 active torsions:
REMARK  status: ('A' for Active; 'I' for Inactive)
REMARK    1  A    between atoms: C_6  and  C_11
REMARK    2  A    between atoms: C_16  and  O_29
REMARK    3  A    between atoms: C_17  and  O_28
REMARK    4  A    between atoms: C_22  and  O_27
REMARK    5  A    between atoms: C_23  and  O_26
REMARK                            x       y       z     vdW  Elec       q    Type
REMARK                         _______ _______ _______ _____ _____    ______ ____
ROOT
ATOM      1  C   UNL     1       4.976  -2.713  -0.059  0.00  0.00    +0.264 C 
ATOM      2  O   UNL     1       5.066  -2.112   0.995  0.00  0.00    -0.267 OA
ATOM      3  N   UNL     1       4.897  -4.058  -0.062  0.00  0.00    -0.272 N 
ATOM      4  C   UNL     1       3.715  -4.787  -0.109  0.00  0.00    +0.062 A 
ATOM      5  C   UNL     1       2.380  -4.398  -0.161  0.00  0.00    +0.076 A 
ATOM      6  C   UNL     1       1.382  -5.354  -0.201  0.00  0.00    +0.160 A 
ATOM      7  C   UNL     1       1.703  -6.711  -0.189  0.00  0.00    +0.159 A 
ATOM      8  C   UNL     1       3.025  -7.109  -0.136  0.00  0.00    +0.059 A 
ATOM      9  C   UNL     1       4.036  -6.151  -0.097  0.00  0.00    +0.012 A 
ATOM     10  C   UNL     1       5.508  -6.237  -0.040  0.00  0.00    +0.012 A 
ATOM     11  C   UNL     1       5.987  -4.920  -0.026  0.00  0.00    +0.103 A 
ATOM     12  C   UNL     1       7.360  -4.692   0.021  0.00  0.00    +0.183 A 
ATOM     13  C   UNL     1       8.240  -5.766   0.050  0.00  0.00    +0.160 A 
ATOM     14  C   UNL     1       7.758  -7.069   0.032  0.00  0.00    +0.050 A 
ATOM     15  C   UNL     1       6.401  -7.307  -0.005  0.00  0.00    +0.014 A 
ENDROOT
BRANCH   1  21
ATOM     16  C   UNL     1       4.863   1.466  -4.960  0.00  0.00    +0.001 A 
ATOM     17  C   UNL     1       4.859   2.174  -3.759  0.00  0.00    +0.001 A 
ATOM     18  C   UNL     1       4.880   1.524  -2.563  0.00  0.00    +0.008 A 
ATOM     19  C   UNL     1       4.906   0.118  -2.536  0.00  0.00    -0.017 A 
ATOM     20  C   UNL     1       4.928  -0.583  -1.321  0.00  0.00    +0.021 A 
ATOM     21  C   UNL     1       4.953  -1.968  -1.334  0.00  0.00    +0.040 A 
ATOM     22  C   UNL     1       4.956  -2.671  -2.553  0.00  0.00    +0.014 A 
ATOM     23  C   UNL     1       4.936  -2.009  -3.737  0.00  0.00    +0.009 A 
ATOM     24  C   UNL     1       4.910  -0.602  -3.757  0.00  0.00    -0.018 A 
ATOM     25  C   UNL     1       4.887   0.105  -4.971  0.00  0.00    +0.008 A 
ENDBRANCH   1  21
BRANCH  13  26
ATOM     26  O   UNL     1       9.580  -5.541   0.095  0.00  0.00    -0.503 OA
ATOM     27  H   UNL     1       9.938  -5.476   0.991  0.00  0.00    +0.292 HD
ENDBRANCH  13  26
BRANCH  12  28
ATOM     28  O   UNL     1       7.839  -3.419   0.038  0.00  0.00    -0.502 OA
ATOM     29  H   UNL     1       7.948  -3.051   0.925  0.00  0.00    +0.292 HD
ENDBRANCH  12  28
BRANCH   7  30
ATOM     30  O   UNL     1       0.713  -7.644  -0.227  0.00  0.00    -0.503 OA
ATOM     31  H   UNL     1       0.462  -7.913  -1.121  0.00  0.00    +0.292 HD
ENDBRANCH   7  30
BRANCH   6  32
ATOM     32  O   UNL     1       0.079  -4.968  -0.252  0.00  0.00    -0.503 OA
ATOM     33  H   UNL     1      -0.263  -4.856  -1.149  0.00  0.00    +0.292 HD
ENDBRANCH   6  32
TORSDOF 5
