REMARK  Name = CHEMBL1084268
REMARK  10 active torsions:
REMARK  status: ('A' for Active; 'I' for Inactive)
REMARK    1  A    between atoms: C_1  and  C_2
REMARK    2  A    between atoms: C_2  and  N_3
REMARK    3  A    between atoms: C_9  and  C_27
REMARK    4  A    between atoms: C_11  and  N_12
REMARK    5  A    between atoms: N_12  and  C_13
REMARK    6  A    between atoms: C_16  and  P_19
REMARK    7  A    between atoms: P_19  and  C_21
REMARK    8  A    between atoms: C_21  and  P_22
REMARK    9  A    between atoms: P_22  and  O_25
REMARK   10  A    between atoms: C_30  and  N_33
REMARK                            x       y       z     vdW  Elec       q    Type
REMARK                         _______ _______ _______ _____ _____    ______ ____
ROOT
ATOM      1  N   UNL     1       0.573  -0.952   1.102  0.00  0.00    -0.315 N 
ATOM      2  C   UNL     1       1.855  -1.413   1.149  0.00  0.00    +0.201 A 
ATOM      3  N   UNL     1       2.191  -1.667   2.381  0.00  0.00    -0.231 NA
ATOM      4  C   UNL     1       1.149  -1.386   3.200  0.00  0.00    +0.148 A 
ATOM      5  C   UNL     1       0.101  -0.918   2.390  0.00  0.00    +0.166 A 
ATOM      6  N   UNL     1      -1.047  -0.566   2.959  0.00  0.00    -0.212 NA
ATOM      7  C   UNL     1      -1.203  -0.649   4.264  0.00  0.00    +0.137 A 
ATOM      8  N   UNL     1      -0.246  -1.079   5.065  0.00  0.00    -0.215 NA
ATOM      9  C   UNL     1       0.934  -1.462   4.586  0.00  0.00    +0.154 A 
ENDROOT
BRANCH   7  10
ATOM     10  C   UNL     1      -2.522  -0.238   4.865  0.00  0.00    +0.057 C 
ATOM     11  C   UNL     1      -2.298   0.910   5.851  0.00  0.00    +0.010 C 
ATOM     12  C   UNL     1      -3.637   1.327   6.461  0.00  0.00    -0.016 C 
ATOM     13  C   UNL     1      -4.255   0.137   7.197  0.00  0.00    -0.075 C 
ATOM     14  C   UNL     1      -4.480  -1.011   6.211  0.00  0.00    -0.016 C 
ATOM     15  C   UNL     1      -3.140  -1.429   5.600  0.00  0.00    +0.010 C 
BRANCH  13  16
ATOM     16  N   UNL     1      -5.542   0.537   7.783  0.00  0.00    +0.380 N 
ATOM     17  H   UNL     1      -6.165   0.841   7.050  0.00  0.00    -0.090 HD
ATOM     18  H   UNL     1      -5.949  -0.248   8.268  0.00  0.00    -0.090 HD
ATOM     19  H   UNL     1      -5.394   1.295   8.433  0.00  0.00    -0.090 HD
ENDBRANCH  13  16
ENDBRANCH   7  10
BRANCH   1  21
ATOM     20  C   UNL     1      -0.034   0.953  -0.307  0.00  0.00    +0.027 C 
ATOM     21  C   UNL     1      -0.163  -0.558  -0.102  0.00  0.00    +0.121 C 
ENDBRANCH   1  21
BRANCH   9  22
ATOM     22  N   UNL     1       1.932  -1.910   5.435  0.00  0.00    -0.298 N 
ATOM     23  H   UNL     1       2.818  -2.096   5.086  0.00  0.00    +0.154 HD
BRANCH  22  24
ATOM     24  C   UNL     1       1.663  -2.093   6.794  0.00  0.00    +0.032 A 
ATOM     25  C   UNL     1       0.411  -2.534   7.203  0.00  0.00    +0.024 A 
ATOM     26  C   UNL     1       0.148  -2.715   8.546  0.00  0.00    +0.015 A 
ATOM     27  C   UNL     1       1.131  -2.458   9.485  0.00  0.00    +0.040 A 
ATOM     28  C   UNL     1       2.379  -2.020   9.082  0.00  0.00    +0.015 A 
ATOM     29  C   UNL     1       2.650  -1.842   7.739  0.00  0.00    +0.024 A 
BRANCH  27  30
ATOM     30  P   UNL     1       0.782  -2.697  11.249  0.00  0.00    +0.276 P 
ATOM     31  O   UNL     1      -0.718  -2.440  11.517  0.00  0.00    -0.283 OA
ATOM     32  O   UNL     1       1.630  -1.709  12.080  0.00  0.00    -0.164 OA
BRANCH  30  33
ATOM     33  C   UNL     1       1.200  -4.406  11.725  0.00  0.00    +0.233 C 
BRANCH  33  34
ATOM     34  P   UNL     1       0.849  -4.646  13.498  0.00  0.00    +0.367 P 
ATOM     35  O   UNL     1       1.698  -3.658  14.329  0.00  0.00    -0.256 OA
ATOM     36  O   UNL     1      -0.650  -4.389  13.766  0.00  0.00    -0.140 OA
BRANCH  34  37
ATOM     37  O   UNL     1       1.219  -6.156  13.919  0.00  0.00    -0.322 OA
ATOM     38  H   UNL     1       1.057  -6.355  14.851  0.00  0.00    +0.220 HD
ENDBRANCH  34  37
ENDBRANCH  33  34
ENDBRANCH  30  33
ENDBRANCH  27  30
ENDBRANCH  22  24
ENDBRANCH   9  22
TORSDOF 9
