REMARK  Name = CHEMBL128356
REMARK  5 active torsions:
REMARK  status: ('A' for Active; 'I' for Inactive)
REMARK    1  A    between atoms: C_1  and  O_2
REMARK    2  A    between atoms: O_2  and  C_3
REMARK    3  A    between atoms: C_8  and  O_9
REMARK    4  A    between atoms: O_9  and  C_10
REMARK    5  A    between atoms: N_15  and  C_16
REMARK                            x       y       z     vdW  Elec       q    Type
REMARK                         _______ _______ _______ _____ _____    ______ ____
ROOT
ATOM      1  C   UNL     1      -0.038  -0.528  -1.455  0.00  0.00    +0.162 A 
ATOM      2  C   UNL     1       0.729   0.211  -2.310  0.00  0.00    +0.062 A 
ATOM      3  C   UNL     1       1.345  -0.412  -3.402  0.00  0.00    +0.044 A 
ATOM      4  C   UNL     1       1.170  -1.803  -3.614  0.00  0.00    +0.080 A 
ATOM      5  C   UNL     1       0.379  -2.540  -2.724  0.00  0.00    +0.078 A 
ATOM      6  C   UNL     1      -0.212  -1.904  -1.654  0.00  0.00    +0.164 A 
ATOM      7  N   UNL     1       1.772  -2.376  -4.668  0.00  0.00    -0.235 NA
ATOM      8  C   UNL     1       2.507  -1.659  -5.484  0.00  0.00    +0.223 A 
ATOM      9  N   UNL     1       2.699  -0.359  -5.326  0.00  0.00    -0.220 NA
ATOM     10  C   UNL     1       2.150   0.306  -4.318  0.00  0.00    +0.134 A 
ATOM     11  N   UNL     1       2.359   1.662  -4.166  0.00  0.00    -0.298 N 
ATOM     12  H   UNL     1       2.034   2.117  -3.373  0.00  0.00    +0.154 HD
ENDROOT
BRANCH  11  13
ATOM     13  C   UNL     1       3.038   2.380  -5.156  0.00  0.00    +0.051 A 
ATOM     14  C   UNL     1       3.099   1.890  -6.454  0.00  0.00    +0.026 A 
ATOM     15  C   UNL     1       3.770   2.601  -7.429  0.00  0.00    +0.022 A 
ATOM     16  C   UNL     1       4.383   3.801  -7.114  0.00  0.00    +0.042 A 
ATOM     17  C   UNL     1       4.325   4.293  -5.822  0.00  0.00    +0.041 A 
ATOM     18  C   UNL     1       3.649   3.589  -4.843  0.00  0.00    +0.063 A 
ATOM     19 CL   UNL     1       3.570   4.209  -3.224  0.00  0.00    -0.082 Cl
ATOM     20 CL   UNL     1       5.227   4.691  -8.342  0.00  0.00    -0.083 Cl
ENDBRANCH  11  13
BRANCH   1  22
ATOM     21  C   UNL     1      -0.422   1.484  -0.245  0.00  0.00    +0.277 C 
ATOM     22  O   UNL     1      -0.636   0.079  -0.395  0.00  0.00    -0.491 OA
ENDBRANCH   1  22
BRANCH   6  23
ATOM     23  O   UNL     1      -0.975  -2.618  -0.786  0.00  0.00    -0.491 OA
ATOM     24  C   UNL     1      -1.113  -4.017  -1.043  0.00  0.00    +0.277 C 
ENDBRANCH   6  23
TORSDOF 3
