REMARK  Name = CHEMBL327188
REMARK  8 active torsions:
REMARK  status: ('A' for Active; 'I' for Inactive)
REMARK    1  A    between atoms: C_1  and  O_2
REMARK    2  A    between atoms: O_2  and  C_3
REMARK    3  A    between atoms: C_5  and  N_11
REMARK    4  A    between atoms: N_11  and  C_12
REMARK    5  A    between atoms: C_21  and  C_22
REMARK    6  A    between atoms: N_24  and  C_27
REMARK    7  A    between atoms: C_27  and  C_28
REMARK    8  A    between atoms: C_28  and  N_29
REMARK                            x       y       z     vdW  Elec       q    Type
REMARK                         _______ _______ _______ _____ _____    ______ ____
ROOT
ATOM      1  C   UNL     1       2.499   1.836  -3.861  0.00  0.00    +0.060 A 
ATOM      2  C   UNL     1       2.866   2.669  -4.948  0.00  0.00    +0.025 A 
ATOM      3  C   UNL     1       3.096   2.130  -6.215  0.00  0.00    +0.041 A 
ATOM      4  C   UNL     1       3.454   2.967  -7.263  0.00  0.00    +0.090 A 
ATOM      5  C   UNL     1       3.584   4.357  -7.044  0.00  0.00    +0.071 A 
ATOM      6  C   UNL     1       3.358   4.897  -5.796  0.00  0.00    +0.056 A 
ATOM      7  C   UNL     1       2.997   4.065  -4.731  0.00  0.00    +0.075 A 
ATOM      8  N   UNL     1       2.775   4.581  -3.511  0.00  0.00    -0.254 NA
ATOM      9  C   UNL     1       2.435   3.835  -2.493  0.00  0.00    +0.132 A 
ATOM     10  C   UNL     1       2.277   2.444  -2.617  0.00  0.00    +0.091 A 
ATOM     11  N   UNL     1       3.945   4.898  -8.265  0.00  0.00    -0.329 N 
ATOM     12  C   UNL     1       4.022   3.872  -9.157  0.00  0.00    +0.200 A 
ATOM     13  N   UNL     1       3.737   2.746  -8.575  0.00  0.00    -0.236 NA
ENDROOT
BRANCH   1  14
ATOM     14  N   UNL     1       2.359   0.474  -4.023  0.00  0.00    -0.312 N 
ATOM     15  H   UNL     1       2.826   0.021  -4.743  0.00  0.00    +0.152 HD
BRANCH  14  18
ATOM     16  C   UNL     1       1.300  -1.897  -1.417  0.00  0.00    +0.140 A 
ATOM     17  C   UNL     1       2.110  -1.177  -2.281  0.00  0.00    +0.071 A 
ATOM     18  C   UNL     1       1.545  -0.255  -3.150  0.00  0.00    +0.049 A 
ATOM     19  C   UNL     1       0.170  -0.055  -3.152  0.00  0.00    +0.041 A 
ATOM     20  C   UNL     1      -0.635  -0.774  -2.289  0.00  0.00    +0.040 A 
ATOM     21  C   UNL     1      -0.074  -1.698  -1.426  0.00  0.00    +0.084 A 
ATOM     22 CL   UNL     1      -1.088  -2.605  -0.347  0.00  0.00    -0.080 Cl
ATOM     23 BR   UNL     1      -0.602   1.202  -4.336  0.00  0.00    -0.048 Br
BRANCH  16  25
ATOM     24  C   UNL     1       3.277  -2.873  -0.527  0.00  0.00    +0.277 C 
ATOM     25  O   UNL     1       1.851  -2.802  -0.564  0.00  0.00    -0.494 OA
ENDBRANCH  16  25
ENDBRANCH  14  18
ENDBRANCH   1  14
BRANCH  10  26
ATOM     26  C   UNL     1       1.897   1.655  -1.484  0.00  0.00    +0.103 C 
ATOM     27  N   UNL     1       1.596   1.028  -0.585  0.00  0.00    -0.191 NA
ENDBRANCH  10  26
BRANCH  11  28
ATOM     28  C   UNL     1       4.196   6.314  -8.546  0.00  0.00    +0.138 C 
BRANCH  28  29
ATOM     29  C   UNL     1       5.646   6.654  -8.195  0.00  0.00    +0.106 C 
BRANCH  29  30
ATOM     30  N   UNL     1       5.897   8.074  -8.477  0.00  0.00    -0.296 NA
ATOM     31  C   UNL     1       5.821   8.345  -9.920  0.00  0.00    +0.112 C 
ATOM     32  C   UNL     1       6.030   9.842 -10.164  0.00  0.00    +0.175 C 
ATOM     33  O   UNL     1       7.284  10.241  -9.603  0.00  0.00    -0.377 OA
ATOM     34  C   UNL     1       7.392   9.991  -8.199  0.00  0.00    +0.175 C 
ATOM     35  C   UNL     1       7.197   8.496  -7.936  0.00  0.00    +0.112 C 
ENDBRANCH  29  30
ENDBRANCH  28  29
ENDBRANCH  11  28
TORSDOF 7
