REMARK  Name = CHEMBL195382
REMARK  8 active torsions:
REMARK  status: ('A' for Active; 'I' for Inactive)
REMARK    1  A    between atoms: C_1  and  N_2
REMARK    2  A    between atoms: C_8  and  C_10
REMARK    3  A    between atoms: C_13  and  C_16
REMARK    4  A    between atoms: C_21  and  N_27
REMARK    5  A    between atoms: C_22  and  C_25
REMARK    6  A    between atoms: N_27  and  C_28
REMARK    7  A    between atoms: C_30  and  O_36
REMARK    8  A    between atoms: O_36  and  C_37
REMARK                            x       y       z     vdW  Elec       q    Type
REMARK                         _______ _______ _______ _____ _____    ______ ____
ROOT
ATOM      1  C   UNL     1       8.666  -5.059   7.099  0.00  0.00    +0.022 A 
ATOM      2  C   UNL     1       8.343  -6.223   6.474  0.00  0.00    +0.044 A 
ATOM      3  C   UNL     1       7.220  -6.957   6.891  0.00  0.00    +0.080 A 
ATOM      4  C   UNL     1       6.498  -6.396   7.968  0.00  0.00    +0.060 A 
ATOM      5  S   UNL     1       7.397  -4.914   8.346  0.00  0.00    -0.085 S 
ATOM      6  C   UNL     1       5.370  -7.004   8.489  0.00  0.00    +0.066 A 
ATOM      7  C   UNL     1       4.950  -8.220   7.908  0.00  0.00    +0.092 A 
ATOM      8  C   UNL     1       5.701  -8.734   6.842  0.00  0.00    +0.132 A 
ATOM      9  N   UNL     1       6.760  -8.127   6.383  0.00  0.00    -0.253 NA
ENDROOT
BRANCH   1  13
ATOM     10  C   UNL     1      11.906  -2.427   6.296  0.00  0.00    +0.037 A 
ATOM     11  C   UNL     1      11.076  -2.198   7.397  0.00  0.00    +0.013 A 
ATOM     12  C   UNL     1      10.027  -3.050   7.657  0.00  0.00    +0.010 A 
ATOM     13  C   UNL     1       9.792  -4.144   6.820  0.00  0.00    -0.011 A 
ATOM     14  C   UNL     1      10.621  -4.373   5.719  0.00  0.00    +0.010 A 
ATOM     15  C   UNL     1      11.667  -3.519   5.456  0.00  0.00    +0.013 A 
BRANCH  10  23
ATOM     16  C   UNL     1      17.053  -1.324   9.655  0.00  0.00    +0.105 C 
ATOM     17  N   UNL     1      15.851  -0.941   8.902  0.00  0.00    -0.302 NA
ATOM     18  C   UNL     1      16.164  -0.729   7.482  0.00  0.00    +0.103 C 
ATOM     19  C   UNL     1      14.932  -0.159   6.771  0.00  0.00    +0.123 C 
ATOM     20  N   UNL     1      13.790  -1.049   7.029  0.00  0.00    -0.295 N 
ATOM     21  C   UNL     1      13.497  -1.418   8.422  0.00  0.00    +0.123 C 
ATOM     22  C   UNL     1      14.785  -1.938   9.069  0.00  0.00    +0.103 C 
ATOM     23  C   UNL     1      13.031  -1.513   6.016  0.00  0.00    +0.247 C 
ATOM     24  O   UNL     1      13.274  -1.179   4.873  0.00  0.00    -0.270 OA
ENDBRANCH  10  23
ENDBRANCH   1  13
BRANCH   7  25
ATOM     25  C   UNL     1       3.792  -8.908   8.394  0.00  0.00    +0.103 C 
ATOM     26  N   UNL     1       2.873  -9.454   8.779  0.00  0.00    -0.191 NA
ENDBRANCH   7  25
BRANCH   6  27
ATOM     27  N   UNL     1       4.675  -6.438   9.547  0.00  0.00    -0.311 N 
ATOM     28  H   UNL     1       4.964  -6.600  10.459  0.00  0.00    +0.152 HD
BRANCH  27  29
ATOM     29  C   UNL     1       3.558  -5.634   9.300  0.00  0.00    +0.054 A 
ATOM     30  C   UNL     1       3.068  -5.505   8.008  0.00  0.00    +0.071 A 
ATOM     31  C   UNL     1       1.961  -4.707   7.766  0.00  0.00    +0.140 A 
ATOM     32  C   UNL     1       1.345  -4.038   8.816  0.00  0.00    +0.084 A 
ATOM     33  C   UNL     1       1.834  -4.168  10.102  0.00  0.00    +0.045 A 
ATOM     34  C   UNL     1       2.935  -4.968  10.348  0.00  0.00    +0.064 A 
ATOM     35 CL   UNL     1       3.542  -5.134  11.966  0.00  0.00    -0.082 Cl
ATOM     36 CL   UNL     1      -0.042  -3.038   8.512  0.00  0.00    -0.080 Cl
BRANCH  31  37
ATOM     37  O   UNL     1       1.479  -4.578   6.501  0.00  0.00    -0.494 OA
ATOM     38  C   UNL     1       2.102  -5.367   5.486  0.00  0.00    +0.277 C 
ENDBRANCH  31  37
ENDBRANCH  27  29
ENDBRANCH   6  27
TORSDOF 6
