REMARK  Name = CHEMBL103579
REMARK  10 active torsions:
REMARK  status: ('A' for Active; 'I' for Inactive)
REMARK    1  A    between atoms: CG1_1  and  CB_2
REMARK    2  A    between atoms: CB_2  and  CG2_3
REMARK    3  A    between atoms: CB_2  and  CA_4
REMARK    4  A    between atoms: CA_4  and  C_5
REMARK    5  A    between atoms: CA_4  and  N_7
REMARK    6  A    between atoms: C_5  and  O_6
REMARK    7  A    between atoms: N_14  and  C_17
REMARK    8  A    between atoms: C_17  and  C_18
REMARK    9  A    between atoms: C_17  and  C_19
REMARK   10  A    between atoms: N_20  and  C_21
REMARK                            x       y       z     vdW  Elec       q    Type
REMARK                         _______ _______ _______ _____ _____    ______ ____
ROOT
ATOM      1  N   VAL A   1      -1.758  -1.950  -0.600  0.00  0.00    -0.308 N 
ATOM      2  C   UNK A   0      -2.734  -2.672   0.067  0.00  0.00    +0.219 A 
ATOM      3  N   UNK A   0      -3.695  -2.015   0.703  0.00  0.00    -0.197 NA
ATOM      4  C   UNK A   0      -4.653  -2.662   1.357  0.00  0.00    +0.156 A 
ATOM      5  C   UNK A   0      -4.631  -4.068   1.363  0.00  0.00    +0.148 A 
ATOM      6  C   UNK A   0      -3.595  -4.721   0.676  0.00  0.00    +0.167 A 
ATOM      7  N   UNK A   0      -2.679  -3.994   0.043  0.00  0.00    -0.195 NA
ATOM      8  N   UNK A   0      -3.816  -6.064   0.845  0.00  0.00    -0.312 N 
ATOM      9  C   UNK A   0      -4.941  -6.201   1.604  0.00  0.00    +0.201 A 
ATOM     10  N   UNK A   0      -5.418  -5.029   1.907  0.00  0.00    -0.231 NA
ATOM     11  N   UNK A   0      -5.652  -1.968   2.018  0.00  0.00    -0.298 N 
ATOM     12  H   VAL A   1      -1.050  -2.414  -1.074  0.00  0.00    +0.149 HD
ATOM     13  H   UNK A   0      -6.390  -2.449   2.424  0.00  0.00    +0.154 HD
ENDROOT
BRANCH  11  14
ATOM     14  C   UNK A   0      -5.596  -0.574   2.102  0.00  0.00    +0.034 A 
ATOM     15  C   UNK A   0      -4.367   0.070   2.180  0.00  0.00    +0.023 A 
ATOM     16  C   UNK A   0      -4.314   1.448   2.261  0.00  0.00    +0.003 A 
ATOM     17  C   UNK A   0      -5.483   2.187   2.266  0.00  0.00    +0.020 A 
ATOM     18  C   UNK A   0      -6.709   1.550   2.188  0.00  0.00    +0.043 A 
ATOM     19  C   UNK A   0      -6.768   0.171   2.100  0.00  0.00    +0.043 A 
ATOM     20 CL   UNK A   0      -8.173   2.482   2.193  0.00  0.00    -0.083 Cl
ENDBRANCH  11  14
BRANCH   8  21
ATOM     21  C   UNK A   0      -2.994  -7.152   0.309  0.00  0.00    +0.084 C 
ATOM     22  C   UNK A   0      -2.452  -7.998   1.463  0.00  0.00    +0.030 C 
ATOM     23  C   UNK A   0      -3.846  -8.029  -0.611  0.00  0.00    +0.030 C 
ENDBRANCH   8  21
BRANCH   1  24
ATOM     24  CA  VAL A   1      -1.795  -0.486  -0.590  0.00  0.00    +0.101 C 
BRANCH  24  26
ATOM     25  CG1 VAL A   1      -0.423   1.591  -0.803  0.00  0.00    +0.009 C 
ATOM     26  CB  VAL A   1      -0.384   0.062  -0.814  0.00  0.00    +0.005 C 
ATOM     27  CG2 VAL A   1       0.538  -0.433   0.303  0.00  0.00    +0.009 C 
ENDBRANCH  24  26
BRANCH  24  28
ATOM     28  C   VAL A   1      -2.717   0.009  -1.707  0.00  0.00    +0.178 C 
BRANCH  28  29
ATOM     29  O   VAL A   1      -2.162  -0.347  -2.975  0.00  0.00    -0.393 OA
ATOM     30  H   VAL A   1      -2.695  -0.064  -3.730  0.00  0.00    +0.209 HD
ENDBRANCH  28  29
ENDBRANCH  24  28
ENDBRANCH   1  24
TORSDOF 6
