REMARK  Name = CHEMBL122640
REMARK  17 active torsions:
REMARK  status: ('A' for Active; 'I' for Inactive)
REMARK    1  A    between atoms: C_1  and  C_2
REMARK    2  A    between atoms: N_4  and  C_5
REMARK    3  A    between atoms: C_5  and  C_7
REMARK    4  A    between atoms: C_5  and  C_19
REMARK    5  A    between atoms: C_7  and  C_8
REMARK    6  A    between atoms: C_11  and  O_14
REMARK    7  A    between atoms: O_14  and  P_15
REMARK    8  A    between atoms: P_15  and  O_18
REMARK    9  A    between atoms: N_21  and  C_22
REMARK   10  A    between atoms: C_22  and  C_24
REMARK   11  A    between atoms: C_22  and  C_29
REMARK   12  A    between atoms: C_24  and  C_25
REMARK   13  A    between atoms: C_25  and  C_26
REMARK   14  A    between atoms: N_31  and  C_32
REMARK   15  A    between atoms: C_32  and  C_33
REMARK   16  A    between atoms: C_33  and  C_34
REMARK   17  A    between atoms: C_34  and  C_35
REMARK                            x       y       z     vdW  Elec       q    Type
REMARK                         _______ _______ _______ _____ _____    ______ ____
ROOT
ATOM      1  C   UNL     1      -0.407  -2.658   1.222  0.00  0.00    +0.234 C 
ATOM      2  O   UNL     1       0.350  -1.922   1.819  0.00  0.00    -0.274 OA
ATOM      3  N   UNL     1      -0.597  -3.922   1.651  0.00  0.00    -0.302 N 
ATOM      4  H   UNL     1      -1.202  -4.510   1.173  0.00  0.00    +0.150 HD
ENDROOT
BRANCH   3   5
ATOM      5  C   UNL     1       0.112  -4.407   2.837  0.00  0.00    +0.159 C 
BRANCH   5   6
ATOM      6  C   UNL     1       0.240  -5.907   2.768  0.00  0.00    +0.233 C 
ATOM      7  O   UNL     1      -0.216  -6.511   1.820  0.00  0.00    -0.274 OA
ATOM      8  N   UNL     1       0.861  -6.577   3.759  0.00  0.00    -0.314 N 
ATOM      9  H   UNL     1       1.225  -6.094   4.517  0.00  0.00    +0.149 HD
BRANCH   8  10
ATOM     10  C   UNL     1       0.985  -8.035   3.691  0.00  0.00    +0.104 C 
BRANCH  10  11
ATOM     11  C   UNL     1       1.725  -8.542   4.930  0.00  0.00    +0.019 C 
BRANCH  11  12
ATOM     12  C   UNL     1       1.855 -10.065   4.860  0.00  0.00    +0.005 C 
BRANCH  12  13
ATOM     13  C   UNL     1       2.595 -10.572   6.099  0.00  0.00    -0.011 C 
ATOM     14  C   UNL     1       4.030 -10.042   6.088  0.00  0.00    +0.003 C 
ATOM     15  C   UNL     1       4.770 -10.549   7.328  0.00  0.00    +0.000 C 
ATOM     16  C   UNL     1       4.791 -12.079   7.319  0.00  0.00    +0.000 C 
ATOM     17  C   UNL     1       3.356 -12.608   7.330  0.00  0.00    +0.000 C 
ATOM     18  C   UNL     1       2.616 -12.101   6.091  0.00  0.00    +0.003 C 
ENDBRANCH  12  13
ENDBRANCH  11  12
ENDBRANCH  10  11
ENDBRANCH   8  10
ENDBRANCH   5   6
BRANCH   5  19
ATOM     19  C   UNL     1      -0.672  -4.020   4.093  0.00  0.00    +0.043 C 
BRANCH  19  20
ATOM     20  C   UNL     1      -0.695  -2.496   4.230  0.00  0.00    +0.127 C 
BRANCH  20  21
ATOM     21  C   UNL     1      -1.467  -2.115   5.467  0.00  0.00    +0.356 C 
ATOM     22  O   UNL     1      -1.953  -2.981   6.173  0.00  0.00    -0.246 OA
ATOM     23  O   UNL     1      -1.605  -0.939   5.761  0.00  0.00    -0.246 OA
ENDBRANCH  20  21
ENDBRANCH  19  20
ENDBRANCH   5  19
ENDBRANCH   3   5
BRANCH   1  24
ATOM     24  C   UNL     1      -1.136  -2.159   0.001  0.00  0.00    +0.163 C 
BRANCH  24  28
ATOM     25  C   UNL     1      -0.018   1.503   0.010  0.00  0.00    +0.109 C 
ATOM     26  C   UNL     1       0.002  -0.004   0.002  0.00  0.00    +0.211 C 
ATOM     27  O   UNL     1       1.060  -0.596  -0.011  0.00  0.00    -0.276 OA
ATOM     28  N   UNL     1      -1.156  -0.694   0.009  0.00  0.00    -0.304 N 
ATOM     29  H   UNL     1      -2.002  -0.220   0.020  0.00  0.00    +0.149 HD
ENDBRANCH  24  28
BRANCH  24  30
ATOM     30  C   UNL     1      -0.420  -2.652  -1.258  0.00  0.00    +0.067 C 
BRANCH  30  31
ATOM     31  C   UNL     1      -1.215  -2.257  -2.475  0.00  0.00    -0.045 A 
ATOM     32  C   UNL     1      -2.188  -3.107  -2.969  0.00  0.00    +0.007 A 
ATOM     33  C   UNL     1      -2.918  -2.747  -4.085  0.00  0.00    +0.046 A 
ATOM     34  C   UNL     1      -2.675  -1.533  -4.711  0.00  0.00    +0.132 A 
ATOM     35  C   UNL     1      -1.698  -0.683  -4.213  0.00  0.00    +0.046 A 
ATOM     36  C   UNL     1      -0.974  -1.044  -3.093  0.00  0.00    +0.007 A 
BRANCH  34  37
ATOM     37  O   UNL     1      -3.391  -1.178  -5.809  0.00  0.00    -0.403 OA
BRANCH  37  38
ATOM     38  P   UNL     1      -4.739  -0.361  -5.477  0.00  0.00    +0.558 P 
ATOM     39  O   UNL     1      -5.604  -1.177  -4.491  0.00  0.00    -0.213 OA
ATOM     40  O   UNL     1      -4.373   0.998  -4.839  0.00  0.00    -0.106 OA
BRANCH  38  41
ATOM     41  O   UNL     1      -5.564  -0.111  -6.836  0.00  0.00    -0.291 OA
ATOM     42  H   UNL     1      -6.390   0.376  -6.711  0.00  0.00    +0.223 HD
ENDBRANCH  38  41
ENDBRANCH  37  38
ENDBRANCH  34  37
ENDBRANCH  30  31
ENDBRANCH  24  30
ENDBRANCH   1  24
TORSDOF 16
