REMARK  Name = CHEMBL248392
REMARK  11 active torsions:
REMARK  status: ('A' for Active; 'I' for Inactive)
REMARK    1  A    between atoms: C_1  and  O_2
REMARK    2  A    between atoms: O_2  and  C_3
REMARK    3  A    between atoms: C_8  and  O_9
REMARK    4  A    between atoms: O_9  and  C_10
REMARK    5  A    between atoms: C_10  and  C_11
REMARK    6  A    between atoms: C_11  and  C_12
REMARK    7  A    between atoms: C_12  and  N_13
REMARK    8  A    between atoms: C_21  and  C_35
REMARK    9  A    between atoms: C_22  and  N_23
REMARK   10  A    between atoms: N_23  and  C_24
REMARK   11  A    between atoms: C_27  and  C_29
REMARK                            x       y       z     vdW  Elec       q    Type
REMARK                         _______ _______ _______ _____ _____    ______ ____
ROOT
ATOM      1  C   UNL     1      -1.464  -0.803   1.074  0.00  0.00    +0.162 A 
ATOM      2  C   UNL     1      -2.530  -0.016   0.746  0.00  0.00    +0.061 A 
ATOM      3  C   UNL     1      -3.704  -0.603   0.249  0.00  0.00    +0.026 A 
ATOM      4  C   UNL     1      -3.779  -2.008   0.091  0.00  0.00    +0.076 A 
ATOM      5  C   UNL     1      -2.669  -2.795   0.436  0.00  0.00    +0.077 A 
ATOM      6  C   UNL     1      -1.528  -2.194   0.915  0.00  0.00    +0.164 A 
ATOM      7  N   UNL     1      -4.897  -2.576  -0.384  0.00  0.00    -0.253 NA
ATOM      8  C   UNL     1      -5.947  -1.868  -0.714  0.00  0.00    +0.132 A 
ATOM      9  C   UNL     1      -5.961  -0.470  -0.590  0.00  0.00    +0.091 A 
ATOM     10  C   UNL     1      -4.823   0.188  -0.099  0.00  0.00    +0.056 A 
ENDROOT
BRANCH   1  12
ATOM     11  C   UNL     1      -0.326   1.192   1.693  0.00  0.00    +0.277 C 
ATOM     12  O   UNL     1      -0.328  -0.231   1.554  0.00  0.00    -0.491 OA
ENDBRANCH   1  12
BRANCH  10  13
ATOM     13  N   UNL     1      -4.797   1.560   0.039  0.00  0.00    -0.339 N 
ATOM     14  H   UNL     1      -3.954   2.037  -0.017  0.00  0.00    +0.146 HD
BRANCH  13  15
ATOM     15  C   UNL     1      -6.042   2.298   0.269  0.00  0.00    +0.078 C 
ATOM     16  C   UNL     1      -6.383   3.429  -0.704  0.00  0.00    +0.032 C 
ATOM     17  C   UNL     1      -5.927   3.755   0.721  0.00  0.00    +0.041 C 
BRANCH  17  18
ATOM     18  C   UNL     1      -6.966   4.268   1.684  0.00  0.00    -0.042 A 
ATOM     19  C   UNL     1      -8.303   4.257   1.329  0.00  0.00    +0.004 A 
ATOM     20  C   UNL     1      -9.256   4.728   2.212  0.00  0.00    +0.000 A 
ATOM     21  C   UNL     1      -8.873   5.210   3.450  0.00  0.00    +0.000 A 
ATOM     22  C   UNL     1      -7.537   5.221   3.805  0.00  0.00    +0.000 A 
ATOM     23  C   UNL     1      -6.584   4.746   2.923  0.00  0.00    +0.004 A 
ENDBRANCH  17  18
ENDBRANCH  13  15
ENDBRANCH  10  13
BRANCH   9  24
ATOM     24  C   UNL     1      -7.125   0.278  -0.960  0.00  0.00    +0.103 C 
ATOM     25  N   UNL     1      -8.049   0.871  -1.254  0.00  0.00    -0.191 NA
ENDBRANCH   9  24
BRANCH   6  26
ATOM     26  O   UNL     1      -0.453  -2.957   1.243  0.00  0.00    -0.488 OA
BRANCH  26  27
ATOM     27  C   UNL     1      -0.579  -4.369   1.058  0.00  0.00    +0.230 C 
BRANCH  27  28
ATOM     28  C   UNL     1       0.721  -5.056   1.478  0.00  0.00    +0.056 C 
BRANCH  28  29
ATOM     29  C   UNL     1       0.586  -6.568   1.280  0.00  0.00    +0.088 C 
BRANCH  29  30
ATOM     30  N   UNL     1       1.835  -7.228   1.683  0.00  0.00    -0.298 NA
ATOM     31  C   UNL     1       2.938  -6.862   0.783  0.00  0.00    +0.112 C 
ATOM     32  C   UNL     1       4.230  -7.523   1.273  0.00  0.00    +0.175 C 
ATOM     33  O   UNL     1       4.037  -8.938   1.346  0.00  0.00    -0.377 OA
ATOM     34  C   UNL     1       2.970  -9.330   2.214  0.00  0.00    +0.175 C 
ATOM     35  C   UNL     1       1.666  -8.688   1.734  0.00  0.00    +0.112 C 
ENDBRANCH  29  30
ENDBRANCH  28  29
ENDBRANCH  27  28
ENDBRANCH  26  27
ENDBRANCH   6  26
TORSDOF 10
