REMARK  Name = CHEMBL180299
REMARK  7 active torsions:
REMARK  status: ('A' for Active; 'I' for Inactive)
REMARK    1  A    between atoms: C_1  and  O_2
REMARK    2  A    between atoms: O_2  and  C_3
REMARK    3  A    between atoms: C_5  and  N_11
REMARK    4  A    between atoms: N_11  and  C_12
REMARK    5  A    between atoms: C_15  and  C_24
REMARK    6  A    between atoms: C_21  and  C_22
REMARK    7  A    between atoms: C_25  and  C_26
REMARK                            x       y       z     vdW  Elec       q    Type
REMARK                         _______ _______ _______ _____ _____    ______ ____
ROOT
ATOM      1  C   UNL     1      -4.637   1.720  -0.235  0.00  0.00    +0.060 A 
ATOM      2  C   UNL     1      -5.781   2.525  -0.013  0.00  0.00    +0.023 A 
ATOM      3  C   UNL     1      -6.985   1.962   0.424  0.00  0.00    +0.019 A 
ATOM      4  C   UNL     1      -8.086   2.783   0.632  0.00  0.00    -0.024 A 
ATOM      5  C   UNL     1      -7.990   4.168   0.404  0.00  0.00    +0.010 A 
ATOM      6  C   UNL     1      -6.827   4.726  -0.020  0.00  0.00    +0.029 A 
ATOM      7  C   UNL     1      -5.695   3.921  -0.239  0.00  0.00    +0.073 A 
ATOM      8  N   UNL     1      -4.544   4.465  -0.656  0.00  0.00    -0.254 NA
ATOM      9  C   UNL     1      -3.471   3.745  -0.869  0.00  0.00    +0.132 A 
ATOM     10  C   UNL     1      -3.463   2.356  -0.667  0.00  0.00    +0.091 A 
ENDROOT
BRANCH   1  11
ATOM     11  N   UNL     1      -4.673   0.357  -0.029  0.00  0.00    -0.312 N 
ATOM     12  H   UNL     1      -5.520  -0.115  -0.054  0.00  0.00    +0.152 HD
BRANCH  11  15
ATOM     13  C   UNL     1      -1.843  -1.953  -0.466  0.00  0.00    +0.140 A 
ATOM     14  C   UNL     1      -3.017  -1.260  -0.713  0.00  0.00    +0.071 A 
ATOM     15  C   UNL     1      -3.489  -0.345   0.218  0.00  0.00    +0.053 A 
ATOM     16  C   UNL     1      -2.783  -0.127   1.396  0.00  0.00    +0.064 A 
ATOM     17  C   UNL     1      -1.613  -0.821   1.638  0.00  0.00    +0.045 A 
ATOM     18  C   UNL     1      -1.144  -1.736   0.714  0.00  0.00    +0.084 A 
ATOM     19 CL   UNL     1       0.323  -2.610   1.026  0.00  0.00    -0.080 Cl
ATOM     20 CL   UNL     1      -3.372   1.016   2.561  0.00  0.00    -0.082 Cl
BRANCH  13  22
ATOM     21  C   UNL     1      -2.082  -2.939  -2.617  0.00  0.00    +0.277 C 
ATOM     22  O   UNL     1      -1.379  -2.850  -1.376  0.00  0.00    -0.494 OA
ENDBRANCH  13  22
ENDBRANCH  11  15
ENDBRANCH   1  11
BRANCH  10  23
ATOM     23  C   UNL     1      -2.273   1.597  -0.904  0.00  0.00    +0.103 C 
ATOM     24  N   UNL     1      -1.328   0.994  -1.091  0.00  0.00    -0.191 NA
ENDBRANCH  10  23
BRANCH   4  25
ATOM     25  C   UNL     1      -9.358   2.201   1.092  0.00  0.00    +0.008 C 
ATOM     26  C   UNL     1     -10.425   2.993   1.294  0.00  0.00    +0.008 C 
BRANCH  26  27
ATOM     27  C   UNL     1     -11.697   2.411   1.754  0.00  0.00    -0.022 A 
ATOM     28  C   UNL     1     -11.816   1.035   1.993  0.00  0.00    +0.027 A 
ATOM     29  C   UNL     1     -13.026   0.534   2.423  0.00  0.00    +0.111 A 
ATOM     30  N   UNL     1     -14.062   1.330   2.609  0.00  0.00    -0.263 NA
ATOM     31  C   UNL     1     -13.994   2.631   2.397  0.00  0.00    +0.111 A 
ATOM     32  C   UNL     1     -12.822   3.219   1.972  0.00  0.00    +0.027 A 
ENDBRANCH  26  27
ENDBRANCH   4  25
TORSDOF 6
