REMARK  Name = CHEMBL47203
REMARK  7 active torsions:
REMARK  status: ('A' for Active; 'I' for Inactive)
REMARK    1  A    between atoms: C_1  and  N_2
REMARK    2  A    between atoms: N_5  and  C_8
REMARK    3  A    between atoms: C_11  and  N_14
REMARK    4  A    between atoms: C_16  and  C_24
REMARK    5  A    between atoms: C_22  and  N_23
REMARK    6  A    between atoms: C_27  and  O_30
REMARK    7  A    between atoms: O_30  and  C_31
REMARK                            x       y       z     vdW  Elec       q    Type
REMARK                         _______ _______ _______ _____ _____    ______ ____
ROOT
ATOM      1  N   UNL     1      -1.451  -7.970   2.480  0.00  0.00    -0.328 N 
ATOM      2  C   UNL     1      -0.929  -8.787   1.514  0.00  0.00    +0.097 A 
ATOM      3  C   UNL     1      -1.043 -10.081   1.901  0.00  0.00    +0.012 A 
ATOM      4  C   UNL     1      -1.691 -10.067   3.219  0.00  0.00    +0.066 A 
ATOM      5  C   UNL     1      -1.917  -8.714   3.530  0.00  0.00    +0.147 A 
ATOM      6  N   UNL     1      -2.498  -8.417   4.692  0.00  0.00    -0.218 NA
ATOM      7  C   UNL     1      -2.850  -9.369   5.530  0.00  0.00    +0.225 A 
ATOM      8  N   UNL     1      -2.653 -10.650   5.277  0.00  0.00    -0.220 NA
ATOM      9  C   UNL     1      -2.087 -11.045   4.140  0.00  0.00    +0.129 A 
ENDROOT
BRANCH   1  13
ATOM     10  C   UNL     1      -0.950  -4.009   0.977  0.00  0.00    +0.057 C 
ATOM     11  C   UNL     1      -2.371  -4.559   1.107  0.00  0.00    +0.021 C 
ATOM     12  C   UNL     1      -2.322  -6.086   1.186  0.00  0.00    +0.026 C 
ATOM     13  C   UNL     1      -1.498  -6.508   2.405  0.00  0.00    +0.089 C 
ATOM     14  C   UNL     1      -0.076  -5.957   2.274  0.00  0.00    +0.026 C 
ATOM     15  C   UNL     1      -0.126  -4.430   2.195  0.00  0.00    +0.021 C 
BRANCH  10  20
ATOM     16  C   UNL     1      -0.573   1.451  -0.361  0.00  0.00    -0.096 C 
ATOM     17  N   UNL     1      -0.499  -0.016  -0.334  0.00  0.00    +0.379 N 
ATOM     18  C   UNL     1      -1.857  -0.572  -0.270  0.00  0.00    -0.064 C 
ATOM     19  C   UNL     1      -1.782  -2.101  -0.261  0.00  0.00    +0.066 C 
ATOM     20  N   UNL     1      -0.997  -2.543   0.901  0.00  0.00    -0.303 NA
ATOM     21  C   UNL     1       0.357  -1.973   0.863  0.00  0.00    +0.066 C 
ATOM     22  C   UNL     1       0.265  -0.446   0.844  0.00  0.00    -0.064 C 
ATOM     23  H   UNL     1      -0.041  -0.345  -1.171  0.00  0.00    -0.082 HD
ENDBRANCH  10  20
ENDBRANCH   1  13
BRANCH   3  24
ATOM     24  C   UNL     1      -0.602 -11.276   1.143  0.00  0.00    -0.015 A 
ATOM     25  C   UNL     1       0.175 -12.251   1.766  0.00  0.00    +0.012 A 
ATOM     26  C   UNL     1       0.584 -13.362   1.058  0.00  0.00    +0.047 A 
ATOM     27  C   UNL     1       0.222 -13.510  -0.274  0.00  0.00    +0.128 A 
ATOM     28  C   UNL     1      -0.552 -12.540  -0.898  0.00  0.00    +0.047 A 
ATOM     29  C   UNL     1      -0.968 -11.430  -0.194  0.00  0.00    +0.012 A 
BRANCH  27  30
ATOM     30  O   UNL     1       0.626 -14.605  -0.970  0.00  0.00    -0.456 OA
BRANCH  30  31
ATOM     31  C   UNL     1       1.517 -14.426  -1.980  0.00  0.00    +0.128 A 
ATOM     32  C   UNL     1       2.088 -13.179  -2.191  0.00  0.00    +0.046 A 
ATOM     33  C   UNL     1       2.994 -13.000  -3.218  0.00  0.00    +0.004 A 
ATOM     34  C   UNL     1       3.332 -14.063  -4.036  0.00  0.00    +0.000 A 
ATOM     35  C   UNL     1       2.765 -15.306  -3.828  0.00  0.00    +0.004 A 
ATOM     36  C   UNL     1       1.863 -15.492  -2.799  0.00  0.00    +0.046 A 
ENDBRANCH  30  31
ENDBRANCH  27  30
ENDBRANCH   3  24
BRANCH   9  37
ATOM     37  N   UNL     1      -1.881 -12.388   3.880  0.00  0.00    -0.343 N 
ATOM     38  H   UNL     1      -1.458 -12.663   3.051  0.00  0.00    +0.144 HD
ATOM     39  H   UNL     1      -2.160 -13.056   4.527  0.00  0.00    +0.144 HD
ENDBRANCH   9  37
TORSDOF 6
