REMARK  Name = CHEMBL209908
REMARK  9 active torsions:
REMARK  status: ('A' for Active; 'I' for Inactive)
REMARK    1  A    between atoms: C_1  and  C_2
REMARK    2  A    between atoms: C_6  and  C_44
REMARK    3  A    between atoms: C_7  and  O_8
REMARK    4  A    between atoms: O_8  and  C_9
REMARK    5  A    between atoms: N_11  and  C_12
REMARK    6  A    between atoms: C_15  and  C_18
REMARK    7  A    between atoms: N_30  and  C_31
REMARK    8  A    between atoms: C_34  and  N_37
REMARK    9  A    between atoms: N_40  and  C_43
REMARK                            x       y       z     vdW  Elec       q    Type
REMARK                         _______ _______ _______ _____ _____    ______ ____
ROOT
ATOM      1  C   UNL     1      -1.276   0.228   3.010  0.00  0.00    +0.418 C 
ATOM      2  O   UNL     1      -2.363   0.004   2.515  0.00  0.00    -0.225 OA
ATOM      3  N   UNL     1      -1.187   0.963   4.136  0.00  0.00    -0.189 N 
ATOM      4  C   UNL     1       0.045   1.132   4.761  0.00  0.00    +0.140 A 
ATOM      5  C   UNL     1       0.517   0.180   5.665  0.00  0.00    +0.064 A 
ATOM      6  C   UNL     1       1.746   0.389   6.261  0.00  0.00    +0.118 A 
ATOM      7  N   UNL     1       2.435   1.479   5.960  0.00  0.00    -0.223 NA
ATOM      8  C   UNL     1       1.962   2.367   5.098  0.00  0.00    +0.221 A 
ATOM      9  N   UNL     1       0.791   2.200   4.501  0.00  0.00    -0.198 NA
ATOM     10  N   UNL     1       2.712   3.495   4.810  0.00  0.00    -0.284 N 
ATOM     11  H   UNL     1       2.399   4.129   4.146  0.00  0.00    +0.155 HD
ENDROOT
BRANCH   3  12
ATOM     12  C   UNL     1      -2.334   1.557   4.677  0.00  0.00    +0.046 A 
ATOM     13  C   UNL     1      -3.352   0.761   5.188  0.00  0.00    +0.024 A 
ATOM     14  C   UNL     1      -4.482   1.344   5.721  0.00  0.00    +0.010 A 
ATOM     15  C   UNL     1      -4.603   2.732   5.747  0.00  0.00    -0.018 A 
ATOM     16  C   UNL     1      -3.580   3.528   5.235  0.00  0.00    +0.010 A 
ATOM     17  C   UNL     1      -2.449   2.941   4.708  0.00  0.00    +0.024 A 
BRANCH  15  18
ATOM     18  C   UNL     1      -5.818   3.361   6.320  0.00  0.00    -0.018 A 
ATOM     19  C   UNL     1      -6.840   2.567   6.837  0.00  0.00    +0.008 A 
ATOM     20  C   UNL     1      -7.968   3.157   7.369  0.00  0.00    +0.001 A 
ATOM     21  C   UNL     1      -8.086   4.535   7.388  0.00  0.00    +0.000 A 
ATOM     22  C   UNL     1      -7.076   5.329   6.875  0.00  0.00    +0.001 A 
ATOM     23  C   UNL     1      -5.940   4.749   6.347  0.00  0.00    +0.008 A 
ENDBRANCH  15  18
ENDBRANCH   3  12
BRANCH  10  24
ATOM     24  C   UNL     1       3.922   3.720   5.478  0.00  0.00    +0.034 A 
ATOM     25  C   UNL     1       4.743   2.650   5.808  0.00  0.00    +0.025 A 
ATOM     26  C   UNL     1       5.936   2.872   6.466  0.00  0.00    +0.025 A 
ATOM     27  C   UNL     1       6.316   4.166   6.798  0.00  0.00    +0.030 A 
ATOM     28  C   UNL     1       5.495   5.236   6.468  0.00  0.00    +0.025 A 
ATOM     29  C   UNL     1       4.304   5.015   5.805  0.00  0.00    +0.025 A 
BRANCH  27  30
ATOM     30  N   UNL     1       7.525   4.391   7.466  0.00  0.00    -0.327 N 
ATOM     31  C   UNL     1       7.880   5.732   7.954  0.00  0.00    +0.120 C 
ATOM     32  C   UNL     1       8.279   5.623   9.429  0.00  0.00    +0.103 C 
ATOM     33  N   UNL     1       9.334   4.611   9.574  0.00  0.00    -0.302 NA
ATOM     34  C   UNL     1       8.851   3.280   9.183  0.00  0.00    +0.103 C 
ATOM     35  C   UNL     1       8.472   3.291   7.703  0.00  0.00    +0.120 C 
ATOM     36  C   UNL     1       9.865   4.597  10.944  0.00  0.00    +0.105 C 
ENDBRANCH  27  30
ENDBRANCH  10  24
BRANCH   1  37
ATOM     37  O   UNL     1      -0.161  -0.260   2.434  0.00  0.00    -0.410 OA
BRANCH  37  44
ATOM     38  C   UNL     1      -0.094   1.120  -0.031  0.00  0.00    +0.047 C 
ATOM     39  C   UNL     1      -0.273  -0.374   0.060  0.00  0.00    -0.008 A 
ATOM     40  C   UNL     1      -0.407  -1.125  -1.091  0.00  0.00    +0.007 A 
ATOM     41  C   UNL     1      -0.572  -2.496  -1.009  0.00  0.00    +0.001 A 
ATOM     42  C   UNL     1      -0.603  -3.117   0.226  0.00  0.00    +0.007 A 
ATOM     43  C   UNL     1      -0.470  -2.370   1.380  0.00  0.00    -0.008 A 
ATOM     44  C   UNL     1      -0.298  -0.996   1.300  0.00  0.00    +0.139 A 
ATOM     45  C   UNL     1      -0.506  -3.049   2.725  0.00  0.00    +0.047 C 
ENDBRANCH  37  44
ENDBRANCH   1  37
TORSDOF 6
