REMARK  Name = CHEMBL218281
REMARK  7 active torsions:
REMARK  status: ('A' for Active; 'I' for Inactive)
REMARK    1  A    between atoms: C_1  and  C_2
REMARK    2  A    between atoms: C_6  and  C_35
REMARK    3  A    between atoms: C_7  and  C_8
REMARK    4  A    between atoms: C_10  and  C_34
REMARK    5  A    between atoms: N_18  and  C_19
REMARK    6  A    between atoms: C_22  and  S_25
REMARK    7  A    between atoms: S_25  and  N_28
REMARK                            x       y       z     vdW  Elec       q    Type
REMARK                         _______ _______ _______ _____ _____    ______ ____
ROOT
ATOM      1  C   UNL     1       0.088   0.121   2.443  0.00  0.00    -0.015 A 
ATOM      2  C   UNL     1       1.052  -0.201   3.413  0.00  0.00    +0.014 A 
ATOM      3  C   UNL     1       1.035   0.389   4.637  0.00  0.00    -0.022 A 
ATOM      4  C   UNL     1       0.043   1.335   4.944  0.00  0.00    +0.097 A 
ATOM      5  C   UNL     1      -0.937   1.669   3.972  0.00  0.00    +0.112 A 
ATOM      6  C   UNL     1      -0.897   1.052   2.713  0.00  0.00    +0.040 A 
ATOM      7  N   UNL     1      -1.874   2.572   4.281  0.00  0.00    -0.144 NA
ATOM      8  N   UNL     1      -1.875   3.122   5.447  0.00  0.00    -0.112 NA
ATOM      9  C   UNL     1      -0.961   2.820   6.372  0.00  0.00    +0.240 A 
ATOM     10  N   UNL     1      -0.006   1.938   6.138  0.00  0.00    -0.211 NA
ATOM     11  N   UNL     1      -1.016   3.446   7.606  0.00  0.00    -0.282 N 
ATOM     12  C   UNL     1       2.078   0.029   5.663  0.00  0.00    +0.046 C 
ATOM     13  H   UNL     1      -0.313   3.296   8.257  0.00  0.00    +0.155 HD
ENDROOT
BRANCH   1  20
ATOM     14  C   UNL     1       0.630   1.695   0.077  0.00  0.00    +0.044 C 
ATOM     15  C   UNL     1       0.392   0.211  -0.030  0.00  0.00    -0.042 A 
ATOM     16  C   UNL     1       0.436  -0.410  -1.262  0.00  0.00    +0.004 A 
ATOM     17  C   UNL     1       0.218  -1.772  -1.362  0.00  0.00    +0.001 A 
ATOM     18  C   UNL     1      -0.045  -2.520  -0.228  0.00  0.00    +0.004 A 
ATOM     19  C   UNL     1      -0.092  -1.910   1.009  0.00  0.00    -0.042 A 
ATOM     20  C   UNL     1       0.132  -0.539   1.116  0.00  0.00    -0.012 A 
ATOM     21  C   UNL     1      -0.380  -2.727   2.243  0.00  0.00    +0.044 C 
ENDBRANCH   1  20
BRANCH  11  22
ATOM     22  C   UNL     1      -2.084   4.294   7.913  0.00  0.00    +0.034 A 
ATOM     23  C   UNL     1      -3.371   3.967   7.507  0.00  0.00    +0.025 A 
ATOM     24  C   UNL     1      -4.424   4.807   7.812  0.00  0.00    +0.030 A 
ATOM     25  C   UNL     1      -4.198   5.972   8.521  0.00  0.00    +0.106 A 
ATOM     26  C   UNL     1      -2.917   6.301   8.926  0.00  0.00    +0.030 A 
ATOM     27  C   UNL     1      -1.861   5.463   8.629  0.00  0.00    +0.025 A 
BRANCH  25  28
ATOM     28  S   UNL     1      -5.544   7.041   8.908  0.00  0.00    +0.061 S 
ATOM     29  O   UNL     1      -4.992   8.336   9.104  0.00  0.00    -0.153 OA
ATOM     30  O   UNL     1      -6.557   6.783   7.946  0.00  0.00    -0.153 OA
BRANCH  28  31
ATOM     31  N   UNL     1      -6.148   6.557  10.372  0.00  0.00    -0.174 NA
ATOM     32  C   UNL     1      -7.212   5.546  10.453  0.00  0.00    +0.124 C 
ATOM     33  C   UNL     1      -8.338   6.093  11.336  0.00  0.00    +0.098 C 
ATOM     34  N   UNL     1      -7.782   6.514  12.629  0.00  0.00    -0.313 NA
ATOM     35  C   UNL     1      -6.822   7.613  12.464  0.00  0.00    +0.098 C 
ATOM     36  C   UNL     1      -5.629   7.124  11.627  0.00  0.00    +0.124 C 
ATOM     37  H   UNL     1      -8.516   6.768  13.273  0.00  0.00    +0.122 HD
ENDBRANCH  28  31
ENDBRANCH  25  28
ENDBRANCH  11  22
TORSDOF 4
