REMARK  Name = CHEMBL1089405
REMARK  9 active torsions:
REMARK  status: ('A' for Active; 'I' for Inactive)
REMARK    1  A    between atoms: C_1  and  P_2
REMARK    2  A    between atoms: P_2  and  C_4
REMARK    3  A    between atoms: P_2  and  C_5
REMARK    4  A    between atoms: C_8  and  N_11
REMARK    5  A    between atoms: C_16  and  C_18
REMARK    6  A    between atoms: N_23  and  C_26
REMARK    7  A    between atoms: C_26  and  C_27
REMARK    8  A    between atoms: C_27  and  C_28
REMARK    9  A    between atoms: C_32  and  O_34
REMARK                            x       y       z     vdW  Elec       q    Type
REMARK                         _______ _______ _______ _____ _____    ______ ____
ROOT
ATOM      1  N   UNL     1       2.800  -1.932  -4.917  0.00  0.00    -0.298 N 
ATOM      2  C   UNL     1       3.571  -3.082  -4.870  0.00  0.00    +0.154 A 
ATOM      3  C   UNL     1       4.323  -3.490  -5.984  0.00  0.00    +0.148 A 
ATOM      4  C   UNL     1       5.086  -4.665  -5.876  0.00  0.00    +0.166 A 
ATOM      5  N   UNL     1       5.068  -5.343  -4.733  0.00  0.00    -0.212 NA
ATOM      6  C   UNL     1       4.348  -4.923  -3.715  0.00  0.00    +0.137 A 
ATOM      7  N   UNL     1       3.620  -3.822  -3.767  0.00  0.00    -0.215 NA
ATOM      8  N   UNL     1       5.709  -4.825  -7.088  0.00  0.00    -0.315 N 
ATOM      9  C   UNL     1       5.329  -3.784  -7.883  0.00  0.00    +0.201 A 
ATOM     10  N   UNL     1       4.516  -3.002  -7.233  0.00  0.00    -0.231 NA
ATOM     11  H   UNL     1       2.711  -1.442  -5.749  0.00  0.00    +0.154 HD
ENDROOT
BRANCH   1  15
ATOM     12  C   UNL     1       0.867  -0.579  -1.485  0.00  0.00    +0.011 A 
ATOM     13  C   UNL     1       0.287  -0.385  -2.726  0.00  0.00    +0.013 A 
ATOM     14  C   UNL     1       0.926  -0.832  -3.866  0.00  0.00    +0.024 A 
ATOM     15  C   UNL     1       2.152  -1.478  -3.765  0.00  0.00    +0.032 A 
ATOM     16  C   UNL     1       2.731  -1.671  -2.518  0.00  0.00    +0.024 A 
ATOM     17  C   UNL     1       2.090  -1.217  -1.382  0.00  0.00    +0.013 A 
BRANCH  12  19
ATOM     18  C   UNL     1      -0.978   1.478  -0.397  0.00  0.00    +0.085 C 
ATOM     19  P   UNL     1       0.025   0.010   0.009  0.00  0.00    +0.111 P 
ATOM     20  O   UNL     1       1.031   0.368   1.034  0.00  0.00    -0.317 OA
ATOM     21  C   UNL     1      -1.059  -1.306   0.655  0.00  0.00    +0.085 C 
ENDBRANCH  12  19
ENDBRANCH   1  15
BRANCH   6  22
ATOM     22  C   UNL     1       4.359  -5.725  -2.439  0.00  0.00    +0.057 C 
ATOM     23  C   UNL     1       2.922  -6.142  -2.064  0.00  0.00    +0.011 C 
ATOM     24  C   UNL     1       2.888  -6.043  -0.519  0.00  0.00    +0.001 C 
ATOM     25  C   UNL     1       3.746  -4.784  -0.238  0.00  0.00    +0.001 C 
ATOM     26  C   UNL     1       4.883  -4.861  -1.278  0.00  0.00    +0.011 C 
ENDBRANCH   6  22
BRANCH   8  27
ATOM     27  C   UNL     1       6.615  -5.914  -7.460  0.00  0.00    +0.129 C 
BRANCH  27  28
ATOM     28  C   UNL     1       5.799  -7.112  -7.948  0.00  0.00    +0.057 C 
BRANCH  28  29
ATOM     29  C   UNL     1       6.732  -8.233  -8.331  0.00  0.00    -0.042 A 
ATOM     30  C   UNL     1       7.213  -8.320  -9.624  0.00  0.00    +0.004 A 
ATOM     31  C   UNL     1       8.068  -9.347  -9.978  0.00  0.00    +0.004 A 
ATOM     32  C   UNL     1       8.445 -10.288  -9.040  0.00  0.00    +0.045 A 
ATOM     33  C   UNL     1       7.964 -10.203  -7.742  0.00  0.00    +0.117 A 
ATOM     34  C   UNL     1       7.110  -9.168  -7.387  0.00  0.00    +0.049 A 
BRANCH  33  35
ATOM     35  O   UNL     1       8.333 -11.128  -6.817  0.00  0.00    -0.507 OA
ATOM     36  H   UNL     1       9.133 -10.896  -6.326  0.00  0.00    +0.292 HD
ENDBRANCH  33  35
ENDBRANCH  28  29
ENDBRANCH  27  28
ENDBRANCH   8  27
TORSDOF 7
