REMARK  Name = CHEMBL442485
REMARK  12 active torsions:
REMARK  status: ('A' for Active; 'I' for Inactive)
REMARK    1  A    between atoms: C_1  and  C_2
REMARK    2  A    between atoms: C_6  and  C_42
REMARK    3  A    between atoms: C_7  and  O_8
REMARK    4  A    between atoms: O_8  and  C_9
REMARK    5  A    between atoms: N_11  and  C_32
REMARK    6  A    between atoms: N_18  and  C_19
REMARK    7  A    between atoms: C_22  and  N_25
REMARK    8  A    between atoms: N_28  and  C_31
REMARK    9  A    between atoms: C_34  and  O_40
REMARK   10  A    between atoms: C_37  and  O_38
REMARK   11  A    between atoms: O_38  and  C_39
REMARK   12  A    between atoms: O_40  and  C_41
REMARK                            x       y       z     vdW  Elec       q    Type
REMARK                         _______ _______ _______ _____ _____    ______ ____
ROOT
ATOM      1  C   UNL     1      -1.019   0.610   3.109  0.00  0.00    +0.418 C 
ATOM      2  O   UNL     1      -2.046   0.409   2.490  0.00  0.00    -0.225 OA
ATOM      3  N   UNL     1      -1.073   1.113   4.358  0.00  0.00    -0.186 N 
ATOM      4  C   UNL     1      -2.294   1.500   4.901  0.00  0.00    +0.140 A 
ATOM      5  C   UNL     1      -2.806   2.775   4.654  0.00  0.00    +0.064 A 
ATOM      6  C   UNL     1      -4.023   3.116   5.213  0.00  0.00    +0.118 A 
ATOM      7  N   UNL     1      -4.663   2.230   5.961  0.00  0.00    -0.223 NA
ATOM      8  C   UNL     1      -4.153   1.027   6.179  0.00  0.00    +0.221 A 
ATOM      9  N   UNL     1      -2.992   0.660   5.657  0.00  0.00    -0.198 NA
ATOM     10  N   UNL     1      -4.853   0.129   6.967  0.00  0.00    -0.284 N 
ATOM     11  H   UNL     1      -4.457  -0.726   7.196  0.00  0.00    +0.155 HD
ENDROOT
BRANCH  10  12
ATOM     12  C   UNL     1      -6.133   0.456   7.433  0.00  0.00    +0.034 A 
ATOM     13  C   UNL     1      -6.976   1.239   6.655  0.00  0.00    +0.025 A 
ATOM     14  C   UNL     1      -8.237   1.561   7.114  0.00  0.00    +0.025 A 
ATOM     15  C   UNL     1      -8.664   1.102   8.353  0.00  0.00    +0.030 A 
ATOM     16  C   UNL     1      -7.821   0.318   9.131  0.00  0.00    +0.025 A 
ATOM     17  C   UNL     1      -6.561  -0.009   8.669  0.00  0.00    +0.025 A 
BRANCH  15  18
ATOM     18  N   UNL     1      -9.942   1.429   8.819  0.00  0.00    -0.333 N 
ATOM     19  C   UNL     1     -10.368   1.064  10.179  0.00  0.00    +0.086 C 
ATOM     20  C   UNL     1     -10.944   2.311  10.858  0.00  0.00    -0.060 C 
ATOM     21  N   UNL     1     -12.010   2.875  10.020  0.00  0.00    +0.380 N 
ATOM     22  C   UNL     1     -11.450   3.343   8.746  0.00  0.00    -0.060 C 
ATOM     23  C   UNL     1     -10.896   2.152   7.964  0.00  0.00    +0.086 C 
ATOM     24  C   UNL     1     -12.636   4.004  10.722  0.00  0.00    -0.096 C 
ATOM     25  H   UNL     1     -12.706   2.167   9.841  0.00  0.00    -0.082 HD
ENDBRANCH  15  18
ENDBRANCH  10  12
BRANCH   3  26
ATOM     26  C   UNL     1       0.103   1.246   5.111  0.00  0.00    +0.091 A 
ATOM     27  C   UNL     1       0.838   2.421   5.050  0.00  0.00    +0.073 A 
ATOM     28  C   UNL     1       2.000   2.550   5.795  0.00  0.00    +0.122 A 
ATOM     29  C   UNL     1       2.428   1.505   6.601  0.00  0.00    +0.049 A 
ATOM     30  C   UNL     1       1.697   0.333   6.664  0.00  0.00    +0.051 A 
ATOM     31  C   UNL     1       0.532   0.202   5.926  0.00  0.00    +0.142 A 
BRANCH  31  32
ATOM     32  O   UNL     1      -0.190  -0.950   5.993  0.00  0.00    -0.493 OA
ATOM     33  C   UNL     1       0.308  -1.979   6.850  0.00  0.00    +0.277 C 
ENDBRANCH  31  32
BRANCH  28  34
ATOM     34  O   UNL     1       2.721   3.701   5.735  0.00  0.00    -0.495 OA
ATOM     35  C   UNL     1       3.908   3.765   6.529  0.00  0.00    +0.277 C 
ENDBRANCH  28  34
ENDBRANCH   3  26
BRANCH   1  36
ATOM     36  O   UNL     1       0.172   0.330   2.546  0.00  0.00    -0.410 OA
BRANCH  36  43
ATOM     37  C   UNL     1       0.284   2.171   0.405  0.00  0.00    +0.047 C 
ATOM     38  C   UNL     1       0.232   0.679   0.193  0.00  0.00    -0.008 A 
ATOM     39  C   UNL     1       0.244   0.163  -1.088  0.00  0.00    +0.007 A 
ATOM     40  C   UNL     1       0.196  -1.205  -1.284  0.00  0.00    +0.001 A 
ATOM     41  C   UNL     1       0.136  -2.059  -0.198  0.00  0.00    +0.007 A 
ATOM     42  C   UNL     1       0.124  -1.548   1.085  0.00  0.00    -0.008 A 
ATOM     43  C   UNL     1       0.178  -0.176   1.284  0.00  0.00    +0.139 A 
ATOM     44  C   UNL     1       0.059  -2.479   2.268  0.00  0.00    +0.047 C 
ENDBRANCH  36  43
ENDBRANCH   1  36
TORSDOF 7
