REMARK  Name = CHEMBL482967
REMARK  4 active torsions:
REMARK  status: ('A' for Active; 'I' for Inactive)
REMARK    1  A    between atoms: C_1  and  C_2
REMARK    2  A    between atoms: C_3  and  C_8
REMARK    3  A    between atoms: N_14  and  C_15
REMARK    4  A    between atoms: C_18  and  N_21
REMARK                            x       y       z     vdW  Elec       q    Type
REMARK                         _______ _______ _______ _____ _____    ______ ____
ROOT
ATOM      1  C   UNL     1       1.076   0.019  -2.489  0.00  0.00    +0.084 A 
ATOM      2  C   UNL     1       1.925  -0.583  -3.428  0.00  0.00    +0.049 A 
ATOM      3  C   UNL     1       2.075   0.021  -4.661  0.00  0.00    +0.116 A 
ATOM      4  N   UNL     1       1.418   1.142  -4.918  0.00  0.00    -0.223 NA
ATOM      5  C   UNL     1       0.621   1.692  -4.013  0.00  0.00    +0.220 A 
ATOM      6  N   UNL     1       0.442   1.145  -2.821  0.00  0.00    -0.214 NA
ATOM      7  N   UNL     1      -0.046   2.864  -4.325  0.00  0.00    -0.284 N 
ATOM      8  H   UNL     1      -0.568   3.321  -3.646  0.00  0.00    +0.155 HD
ENDROOT
BRANCH   1  11
ATOM      9  C   UNL     1      -0.732   1.087  -0.200  0.00  0.00    +0.067 C 
ATOM     10  C   UNL     1       0.102  -0.165  -0.111  0.00  0.00    +0.057 A 
ATOM     11  C   UNL     1       0.882  -0.585  -1.159  0.00  0.00    +0.062 A 
ATOM     12  S   UNL     1       1.597  -2.067  -0.465  0.00  0.00    -0.051 S 
ATOM     13  C   UNL     1       0.852  -2.002   1.042  0.00  0.00    +0.156 A 
ATOM     14  N   UNL     1       0.123  -0.904   0.975  0.00  0.00    -0.230 NA
ATOM     15  N   UNL     1       0.977  -2.884   2.099  0.00  0.00    -0.338 N 
ATOM     16  H   UNL     1       1.556  -3.658   2.018  0.00  0.00    +0.144 HD
ATOM     17  H   UNL     1       0.487  -2.728   2.921  0.00  0.00    +0.144 HD
ENDBRANCH   1  11
BRANCH   7  18
ATOM     18  C   UNL     1       0.031   3.392  -5.620  0.00  0.00    +0.034 A 
ATOM     19  C   UNL     1       0.030   2.540  -6.717  0.00  0.00    +0.025 A 
ATOM     20  C   UNL     1       0.107   3.060  -7.994  0.00  0.00    +0.025 A 
ATOM     21  C   UNL     1       0.185   4.434  -8.182  0.00  0.00    +0.030 A 
ATOM     22  C   UNL     1       0.186   5.285  -7.084  0.00  0.00    +0.025 A 
ATOM     23  C   UNL     1       0.104   4.766  -5.808  0.00  0.00    +0.025 A 
BRANCH  21  24
ATOM     24  N   UNL     1       0.263   4.960  -9.476  0.00  0.00    -0.326 N 
ATOM     25  C   UNL     1       0.472   6.400  -9.697  0.00  0.00    +0.133 C 
ATOM     26  C   UNL     1       1.634   6.574 -10.681  0.00  0.00    +0.178 C 
ATOM     27  O   UNL     1       1.387   5.783 -11.846  0.00  0.00    -0.377 OA
ATOM     28  C   UNL     1       1.317   4.377 -11.594  0.00  0.00    +0.178 C 
ATOM     29  C   UNL     1       0.144   4.090 -10.656  0.00  0.00    +0.133 C 
ENDBRANCH  21  24
ENDBRANCH   7  18
TORSDOF 3
