REMARK  Name = CHEMBL172450
REMARK  10 active torsions:
REMARK  status: ('A' for Active; 'I' for Inactive)
REMARK    1  A    between atoms: C_1  and  O_2
REMARK    2  A    between atoms: O_2  and  C_3
REMARK    3  A    between atoms: C_7  and  N_9
REMARK    4  A    between atoms: C_13  and  O_30
REMARK    5  A    between atoms: C_14  and  O_20
REMARK    6  A    between atoms: O_20  and  C_21
REMARK    7  A    between atoms: C_21  and  C_22
REMARK    8  A    between atoms: C_22  and  C_23
REMARK    9  A    between atoms: C_23  and  N_24
REMARK   10  A    between atoms: O_30  and  C_31
REMARK                            x       y       z     vdW  Elec       q    Type
REMARK                         _______ _______ _______ _____ _____    ______ ____
ROOT
ATOM      1  N   UNL     1      -2.542  -4.064   0.018  0.00  0.00    -0.298 N 
ATOM      2  C   UNL     1      -1.382  -4.803  -0.096  0.00  0.00    +0.134 A 
ATOM      3  C   UNL     1      -1.427  -6.213  -0.209  0.00  0.00    +0.044 A 
ATOM      4  C   UNL     1      -2.637  -6.918  -0.213  0.00  0.00    +0.062 A 
ATOM      5  C   UNL     1      -2.627  -8.279  -0.326  0.00  0.00    +0.162 A 
ATOM      6  C   UNL     1      -1.417  -8.979  -0.438  0.00  0.00    +0.164 A 
ATOM      7  C   UNL     1      -0.214  -8.310  -0.436  0.00  0.00    +0.078 A 
ATOM      8  C   UNL     1      -0.201  -6.914  -0.322  0.00  0.00    +0.080 A 
ATOM      9  N   UNL     1       0.945  -6.215  -0.316  0.00  0.00    -0.235 NA
ATOM     10  C   UNL     1       0.925  -4.908  -0.208  0.00  0.00    +0.223 A 
ATOM     11  N   UNL     1      -0.195  -4.210  -0.106  0.00  0.00    -0.220 NA
ATOM     12  H   UNL     1      -3.405  -4.498  -0.075  0.00  0.00    +0.154 HD
ENDROOT
BRANCH   1  17
ATOM     13  C   UNL     1      -1.311  -0.793   1.169  0.00  0.00    +0.122 A 
ATOM     14  C   UNL     1      -2.345   0.035   0.755  0.00  0.00    +0.047 A 
ATOM     15  C   UNL     1      -3.439  -0.497   0.099  0.00  0.00    +0.025 A 
ATOM     16  C   UNL     1      -3.507  -1.855  -0.147  0.00  0.00    +0.062 A 
ATOM     17  C   UNL     1      -2.474  -2.689   0.265  0.00  0.00    +0.054 A 
ATOM     18  C   UNL     1      -1.372  -2.155   0.919  0.00  0.00    +0.070 A 
ATOM     19 CL   UNL     1      -4.883  -2.521  -0.971  0.00  0.00    -0.082 Cl
BRANCH  13  21
ATOM     20  C   UNL     1      -0.240   1.144   2.037  0.00  0.00    +0.277 C 
ATOM     21  O   UNL     1      -0.236  -0.267   1.813  0.00  0.00    -0.495 OA
ENDBRANCH  13  21
ENDBRANCH   1  17
BRANCH   5  22
ATOM     22  O   UNL     1      -3.803  -8.962  -0.329  0.00  0.00    -0.491 OA
ATOM     23  C   UNL     1      -5.001  -8.192  -0.211  0.00  0.00    +0.277 C 
ENDBRANCH   5  22
BRANCH   6  24
ATOM     24  O   UNL     1      -1.433 -10.333  -0.548  0.00  0.00    -0.488 OA
BRANCH  24  25
ATOM     25  C   UNL     1      -0.169 -10.990  -0.659  0.00  0.00    +0.230 C 
BRANCH  25  26
ATOM     26  C   UNL     1      -0.386 -12.500  -0.774  0.00  0.00    +0.056 C 
BRANCH  26  27
ATOM     27  C   UNL     1       0.968 -13.203  -0.892  0.00  0.00    +0.088 C 
BRANCH  27  28
ATOM     28  N   UNL     1       0.758 -14.652  -1.002  0.00  0.00    -0.298 NA
ATOM     29  C   UNL     1       0.196 -15.199   0.241  0.00  0.00    +0.112 C 
ATOM     30  C   UNL     1      -0.061 -16.698   0.062  0.00  0.00    +0.175 C 
ATOM     31  O   UNL     1       1.159 -17.345  -0.310  0.00  0.00    -0.377 OA
ATOM     32  C   UNL     1       1.734 -16.837  -1.517  0.00  0.00    +0.175 C 
ATOM     33  C   UNL     1       2.009 -15.340  -1.354  0.00  0.00    +0.112 C 
ENDBRANCH  27  28
ENDBRANCH  26  27
ENDBRANCH  25  26
ENDBRANCH  24  25
ENDBRANCH   6  24
TORSDOF 8
