REMARK  Name = CHEMBL307087
REMARK  9 active torsions:
REMARK  status: ('A' for Active; 'I' for Inactive)
REMARK    1  A    between atoms: C_1  and  O_2
REMARK    2  A    between atoms: O_2  and  C_3
REMARK    3  A    between atoms: C_8  and  C_9
REMARK    4  A    between atoms: C_10  and  C_11
REMARK    5  A    between atoms: C_19  and  C_32
REMARK    6  A    between atoms: C_20  and  N_21
REMARK    7  A    between atoms: N_21  and  C_22
REMARK    8  A    between atoms: C_24  and  O_30
REMARK    9  A    between atoms: O_30  and  C_31
REMARK                            x       y       z     vdW  Elec       q    Type
REMARK                         _______ _______ _______ _____ _____    ______ ____
ROOT
ATOM      1  C   UNL     1      -1.154  -0.427   0.799  0.00  0.00    +0.128 A 
ATOM      2  C   UNL     1      -2.316   0.245   0.553  0.00  0.00    +0.058 A 
ATOM      3  C   UNL     1      -3.526  -0.458   0.453  0.00  0.00    +0.026 A 
ATOM      4  C   UNL     1      -3.544  -1.867   0.606  0.00  0.00    +0.074 A 
ATOM      5  C   UNL     1      -2.344  -2.544   0.858  0.00  0.00    +0.040 A 
ATOM      6  C   UNL     1      -1.157  -1.829   0.948  0.00  0.00    +0.019 A 
ATOM      7  N   UNL     1      -4.700  -2.542   0.509  0.00  0.00    -0.254 NA
ATOM      8  C   UNL     1      -5.837  -1.940   0.274  0.00  0.00    +0.132 A 
ATOM      9  C   UNL     1      -5.912  -0.547   0.108  0.00  0.00    +0.091 A 
ATOM     10  C   UNL     1      -4.741   0.220   0.198  0.00  0.00    +0.060 A 
ENDROOT
BRANCH   1  12
ATOM     11  C   UNL     1      -0.051   1.677   0.734  0.00  0.00    +0.277 C 
ATOM     12  O   UNL     1       0.014   0.259   0.895  0.00  0.00    -0.495 OA
ENDBRANCH   1  12
BRANCH   6  13
ATOM     13  C   UNL     1       0.106  -2.540   1.207  0.00  0.00    +0.012 C 
ATOM     14  C   UNL     1       0.108  -3.876   1.350  0.00  0.00    +0.009 C 
BRANCH  14  15
ATOM     15  C   UNL     1       1.373  -4.587   1.609  0.00  0.00    -0.022 A 
ATOM     16  C   UNL     1       2.583  -3.888   1.717  0.00  0.00    +0.027 A 
ATOM     17  C   UNL     1       3.742  -4.594   1.960  0.00  0.00    +0.111 A 
ATOM     18  N   UNL     1       3.721  -5.907   2.092  0.00  0.00    -0.263 NA
ATOM     19  C   UNL     1       2.605  -6.604   1.998  0.00  0.00    +0.111 A 
ATOM     20  C   UNL     1       1.398  -5.980   1.762  0.00  0.00    +0.027 A 
ENDBRANCH  14  15
ENDBRANCH   6  13
BRANCH  10  21
ATOM     21  N   UNL     1      -4.773   1.591   0.042  0.00  0.00    -0.312 N 
ATOM     22  H   UNL     1      -3.970   2.069  -0.219  0.00  0.00    +0.152 HD
BRANCH  21  23
ATOM     23  C   UNL     1      -5.963   2.292   0.260  0.00  0.00    +0.053 A 
ATOM     24  C   UNL     1      -6.609   2.913  -0.801  0.00  0.00    +0.071 A 
ATOM     25  C   UNL     1      -7.788   3.606  -0.582  0.00  0.00    +0.140 A 
ATOM     26  C   UNL     1      -8.323   3.679   0.698  0.00  0.00    +0.084 A 
ATOM     27  C   UNL     1      -7.679   3.060   1.754  0.00  0.00    +0.045 A 
ATOM     28  C   UNL     1      -6.505   2.363   1.538  0.00  0.00    +0.064 A 
ATOM     29 CL   UNL     1      -5.703   1.582   2.865  0.00  0.00    -0.082 Cl
ATOM     30 CL   UNL     1      -9.801   4.547   0.972  0.00  0.00    -0.080 Cl
BRANCH  25  31
ATOM     31  O   UNL     1      -8.422   4.215  -1.619  0.00  0.00    -0.494 OA
ATOM     32  C   UNL     1      -7.880   4.003  -2.924  0.00  0.00    +0.277 C 
ENDBRANCH  25  31
ENDBRANCH  21  23
ENDBRANCH  10  21
BRANCH   9  33
ATOM     33  C   UNL     1      -7.172   0.084  -0.149  0.00  0.00    +0.103 C 
ATOM     34  N   UNL     1      -8.171   0.584  -0.353  0.00  0.00    -0.191 NA
ENDBRANCH   9  33
TORSDOF 7
