REMARK  Name = CHEMBL77303
REMARK  3 active torsions:
REMARK  status: ('A' for Active; 'I' for Inactive)
REMARK    1  A    between atoms: C_4  and  N_7
REMARK    2  A    between atoms: C_14  and  O_17
REMARK    3  A    between atoms: C_15  and  O_16
REMARK                            x       y       z     vdW  Elec       q    Type
REMARK                         _______ _______ _______ _____ _____    ______ ____
ROOT
ATOM      1  N   UNL     1       3.623  -0.652  -0.037  0.00  0.00    -0.298 N 
ATOM      2  C   UNL     1       4.667  -0.421  -0.883  0.00  0.00    +0.205 A 
ATOM      3  N   UNL     1       5.645  -1.237  -0.618  0.00  0.00    -0.232 NA
ATOM      4  C   UNL     1       5.298  -2.048   0.416  0.00  0.00    +0.134 A 
ATOM      5  C   UNL     1       4.000  -1.682   0.808  0.00  0.00    +0.077 A 
ATOM      6  C   UNL     1       3.378  -2.342   1.858  0.00  0.00    +0.032 A 
ATOM      7  C   UNL     1       4.037  -3.357   2.520  0.00  0.00    +0.051 A 
ATOM      8  C   UNL     1       5.324  -3.726   2.143  0.00  0.00    +0.161 A 
ATOM      9  C   UNL     1       5.956  -3.082   1.092  0.00  0.00    +0.186 A 
ENDROOT
BRANCH   1  13
ATOM     10  C   UNL     1      -0.017   1.379   0.010  0.00  0.00    +0.000 A 
ATOM     11  C   UNL     1       1.170   2.089   0.002  0.00  0.00    +0.002 A 
ATOM     12  C   UNL     1       2.377   1.419  -0.013  0.00  0.00    +0.026 A 
ATOM     13  C   UNL     1       2.400   0.031  -0.021  0.00  0.00    +0.048 A 
ATOM     14  C   UNL     1       1.207  -0.680  -0.013  0.00  0.00    +0.026 A 
ATOM     15  C   UNL     1       0.002  -0.004   0.002  0.00  0.00    +0.002 A 
ENDBRANCH   1  13
BRANCH   9  16
ATOM     16  O   UNL     1       7.216  -3.444   0.727  0.00  0.00    -0.502 OA
ATOM     17  H   UNL     1       7.913  -2.964   1.193  0.00  0.00    +0.292 HD
ENDBRANCH   9  16
BRANCH   8  18
ATOM     18  O   UNL     1       5.962  -4.729   2.805  0.00  0.00    -0.503 OA
ATOM     19  H   UNL     1       5.811  -5.607   2.428  0.00  0.00    +0.292 HD
ENDBRANCH   8  18
TORSDOF 3
