REMARK  Name = CHEMBL60391
REMARK  9 active torsions:
REMARK  status: ('A' for Active; 'I' for Inactive)
REMARK    1  A    between atoms: C_1  and  N_2
REMARK    2  A    between atoms: N_5  and  C_8
REMARK    3  A    between atoms: C_8  and  C_9
REMARK    4  A    between atoms: C_11  and  C_14
REMARK    5  A    between atoms: C_22  and  C_35
REMARK    6  A    between atoms: C_23  and  N_24
REMARK    7  A    between atoms: N_24  and  C_25
REMARK    8  A    between atoms: C_27  and  O_33
REMARK    9  A    between atoms: O_33  and  C_34
REMARK                            x       y       z     vdW  Elec       q    Type
REMARK                         _______ _______ _______ _____ _____    ______ ____
ROOT
ATOM      1  C   UNL     1       3.082  -6.296   3.867  0.00  0.00    -0.009 A 
ATOM      2  C   UNL     1       4.181  -6.026   3.034  0.00  0.00    +0.010 A 
ATOM      3  C   UNL     1       5.449  -6.076   3.522  0.00  0.00    +0.012 A 
ATOM      4  C   UNL     1       5.669  -6.401   4.870  0.00  0.00    +0.023 A 
ATOM      5  C   UNL     1       4.572  -6.675   5.723  0.00  0.00    +0.073 A 
ATOM      6  C   UNL     1       3.272  -6.613   5.204  0.00  0.00    +0.037 A 
ATOM      7  N   UNL     1       4.777  -6.984   7.012  0.00  0.00    -0.254 NA
ATOM      8  C   UNL     1       5.979  -7.045   7.527  0.00  0.00    +0.132 A 
ATOM      9  C   UNL     1       7.123  -6.788   6.757  0.00  0.00    +0.091 A 
ATOM     10  C   UNL     1       6.979  -6.459   5.400  0.00  0.00    +0.060 A 
ENDROOT
BRANCH   1  13
ATOM     11  C   UNL     1      -0.038  -5.949   1.754  0.00  0.00    -0.026 A 
ATOM     12  C   UNL     1       1.309  -5.944   2.039  0.00  0.00    +0.021 A 
ATOM     13  C   UNL     1       1.714  -6.235   3.316  0.00  0.00    +0.020 A 
ATOM     14  S   UNL     1       0.155  -6.523   4.138  0.00  0.00    -0.096 S 
ATOM     15  C   UNL     1      -0.923  -6.235   2.745  0.00  0.00    +0.050 A 
BRANCH  11  16
ATOM     16  C   UNL     1      -0.525  -5.635   0.363  0.00  0.00    +0.120 C 
BRANCH  16  21
ATOM     17  C   UNL     1      -0.702  -0.193  -1.086  0.00  0.00    -0.096 C 
ATOM     18  N   UNL     1      -0.444  -1.637  -1.007  0.00  0.00    +0.379 N 
ATOM     19  C   UNL     1      -1.717  -2.366  -1.079  0.00  0.00    -0.064 C 
ATOM     20  C   UNL     1      -1.448  -3.871  -1.016  0.00  0.00    +0.066 C 
ATOM     21  N   UNL     1      -0.752  -4.189   0.239  0.00  0.00    -0.302 NA
ATOM     22  C   UNL     1       0.513  -3.447   0.337  0.00  0.00    +0.066 C 
ATOM     23  C   UNL     1       0.228  -1.946   0.262  0.00  0.00    -0.064 C 
ATOM     24  H   UNL     1       0.146  -1.915  -1.776  0.00  0.00    -0.082 HD
ENDBRANCH  16  21
ENDBRANCH  11  16
ENDBRANCH   1  13
BRANCH  10  25
ATOM     25  N   UNL     1       8.079  -6.200   4.608  0.00  0.00    -0.312 N 
ATOM     26  H   UNL     1       7.982  -5.673   3.800  0.00  0.00    +0.152 HD
BRANCH  25  27
ATOM     27  C   UNL     1       9.335  -6.697   4.971  0.00  0.00    +0.053 A 
ATOM     28  C   UNL     1      10.345  -5.824   5.353  0.00  0.00    +0.071 A 
ATOM     29  C   UNL     1      11.587  -6.321   5.712  0.00  0.00    +0.140 A 
ATOM     30  C   UNL     1      11.821  -7.690   5.690  0.00  0.00    +0.084 A 
ATOM     31  C   UNL     1      10.814  -8.558   5.310  0.00  0.00    +0.045 A 
ATOM     32  C   UNL     1       9.571  -8.067   4.957  0.00  0.00    +0.064 A 
ATOM     33 CL   UNL     1       8.307  -9.161   4.488  0.00  0.00    -0.082 Cl
ATOM     34 CL   UNL     1      13.378  -8.311   6.141  0.00  0.00    -0.080 Cl
BRANCH  29  35
ATOM     35  O   UNL     1      12.578  -5.468   6.085  0.00  0.00    -0.494 OA
ATOM     36  C   UNL     1      12.236  -4.085   6.196  0.00  0.00    +0.277 C 
ENDBRANCH  29  35
ENDBRANCH  25  27
ENDBRANCH  10  25
BRANCH   9  37
ATOM     37  C   UNL     1       8.425  -6.862   7.348  0.00  0.00    +0.103 C 
ATOM     38  N   UNL     1       9.458  -6.920   7.818  0.00  0.00    -0.191 NA
ENDBRANCH   9  37
TORSDOF 7
