REMARK  Name = CHEMBL330657
REMARK  11 active torsions:
REMARK  status: ('A' for Active; 'I' for Inactive)
REMARK    1  A    between atoms: C_1  and  O_2
REMARK    2  A    between atoms: O_2  and  C_3
REMARK    3  A    between atoms: C_5  and  N_13
REMARK    4  A    between atoms: C_7  and  O_11
REMARK    5  A    between atoms: C_8  and  O_9
REMARK    6  A    between atoms: O_9  and  C_10
REMARK    7  A    between atoms: O_11  and  C_12
REMARK    8  A    between atoms: N_13  and  C_14
REMARK    9  A    between atoms: C_23  and  C_24
REMARK   10  A    between atoms: C_28  and  C_30
REMARK   11  A    between atoms: C_30  and  N_31
REMARK                            x       y       z     vdW  Elec       q    Type
REMARK                         _______ _______ _______ _____ _____    ______ ____
ROOT
ATOM      1  C   UNL     1       2.252   0.022  -5.419  0.00  0.00    +0.060 A 
ATOM      2  C   UNL     1       2.940   0.791  -6.391  0.00  0.00    +0.025 A 
ATOM      3  C   UNL     1       3.119   2.166  -6.219  0.00  0.00    +0.041 A 
ATOM      4  C   UNL     1       3.797   2.896  -7.185  0.00  0.00    +0.090 A 
ATOM      5  C   UNL     1       4.303   2.249  -8.335  0.00  0.00    +0.068 A 
ATOM      6  C   UNL     1       4.131   0.892  -8.512  0.00  0.00    +0.056 A 
ATOM      7  C   UNL     1       3.449   0.144  -7.546  0.00  0.00    +0.075 A 
ATOM      8  N   UNL     1       3.276  -1.178  -7.709  0.00  0.00    -0.254 NA
ATOM      9  C   UNL     1       2.645  -1.910  -6.827  0.00  0.00    +0.132 A 
ATOM     10  C   UNL     1       2.114  -1.353  -5.652  0.00  0.00    +0.091 A 
ATOM     11  N   UNL     1       4.913   3.237  -9.086  0.00  0.00    -0.341 N 
ATOM     12  H   UNL     1       5.359   3.118  -9.938  0.00  0.00    +0.167 HD
ATOM     13  C   UNL     1       4.772   4.409  -8.406  0.00  0.00    +0.122 A 
ATOM     14  N   UNL     1       4.121   4.212  -7.298  0.00  0.00    -0.231 NA
ENDROOT
BRANCH   1  15
ATOM     15  N   UNL     1       1.740   0.607  -4.280  0.00  0.00    -0.313 N 
ATOM     16  H   UNL     1       1.026   1.259  -4.348  0.00  0.00    +0.152 HD
BRANCH  15  19
ATOM     17  C   UNL     1       3.653  -1.141  -1.665  0.00  0.00    +0.167 A 
ATOM     18  C   UNL     1       3.145  -0.797  -2.908  0.00  0.00    +0.072 A 
ATOM     19  C   UNL     1       2.253   0.260  -3.025  0.00  0.00    +0.039 A 
ATOM     20  C   UNL     1       1.869   0.974  -1.897  0.00  0.00    +0.072 A 
ATOM     21  C   UNL     1       2.376   0.630  -0.654  0.00  0.00    +0.167 A 
ATOM     22  C   UNL     1       3.265  -0.431  -0.535  0.00  0.00    +0.204 A 
BRANCH  17  24
ATOM     23  C   UNL     1       4.881  -2.863  -2.753  0.00  0.00    +0.277 C 
ATOM     24  O   UNL     1       4.527  -2.177  -1.551  0.00  0.00    -0.491 OA
ENDBRANCH  17  24
BRANCH  22  25
ATOM     25  O   UNL     1       3.760  -0.772   0.687  0.00  0.00    -0.488 OA
ATOM     26  C   UNL     1       4.969  -0.132   1.099  0.00  0.00    +0.277 C 
ENDBRANCH  22  25
BRANCH  21  27
ATOM     27  O   UNL     1       2.001   1.330   0.451  0.00  0.00    -0.491 OA
ATOM     28  C   UNL     1       0.985   2.320   0.277  0.00  0.00    +0.277 C 
ENDBRANCH  21  27
ENDBRANCH  15  19
ENDBRANCH   1  15
BRANCH  10  29
ATOM     29  C   UNL     1       1.433  -2.182  -4.703  0.00  0.00    +0.103 C 
ATOM     30  N   UNL     1       0.892  -2.840  -3.950  0.00  0.00    -0.191 NA
ENDBRANCH  10  29
BRANCH  13  31
ATOM     31  C   UNL     1       5.294   5.743  -8.873  0.00  0.00    +0.158 C 
BRANCH  31  32
ATOM     32  N   UNL     1       4.229   6.466  -9.581  0.00  0.00    -0.291 NA
ATOM     33  C   UNL     1       3.871   5.781 -10.832  0.00  0.00    +0.113 C 
ATOM     34  C   UNL     1       2.720   6.533 -11.507  0.00  0.00    +0.175 C 
ATOM     35  O   UNL     1       3.108   7.892 -11.725  0.00  0.00    -0.377 OA
ATOM     36  C   UNL     1       3.463   8.589 -10.528  0.00  0.00    +0.175 C 
ATOM     37  C   UNL     1       4.622   7.858  -9.843  0.00  0.00    +0.113 C 
ENDBRANCH  31  32
ENDBRANCH  13  31
TORSDOF 8
