REMARK  Name = CHEMBL501199
REMARK  8 active torsions:
REMARK  status: ('A' for Active; 'I' for Inactive)
REMARK    1  A    between atoms: C_1  and  O_2
REMARK    2  A    between atoms: O_2  and  C_3
REMARK    3  A    between atoms: C_8  and  O_9
REMARK    4  A    between atoms: O_9  and  C_10
REMARK    5  A    between atoms: C_10  and  C_11
REMARK    6  A    between atoms: C_11  and  N_12
REMARK    7  A    between atoms: C_20  and  C_32
REMARK    8  A    between atoms: C_21  and  N_22
REMARK                            x       y       z     vdW  Elec       q    Type
REMARK                         _______ _______ _______ _____ _____    ______ ____
ROOT
ATOM      1  C   UNL     1      -0.635  -0.894  -2.925  0.00  0.00    +0.162 A 
ATOM      2  C   UNL     1       0.381  -0.112  -3.391  0.00  0.00    +0.061 A 
ATOM      3  C   UNL     1       1.561  -0.707  -3.862  0.00  0.00    +0.027 A 
ATOM      4  C   UNL     1       1.694  -2.117  -3.851  0.00  0.00    +0.077 A 
ATOM      5  C   UNL     1       0.634  -2.900  -3.367  0.00  0.00    +0.077 A 
ATOM      6  C   UNL     1      -0.510  -2.291  -2.906  0.00  0.00    +0.164 A 
ATOM      7  N   UNL     1       2.819  -2.693  -4.299  0.00  0.00    -0.253 NA
ATOM      8  C   UNL     1       3.823  -1.989  -4.756  0.00  0.00    +0.132 A 
ATOM      9  C   UNL     1       3.778  -0.586  -4.802  0.00  0.00    +0.092 A 
ATOM     10  C   UNL     1       2.629   0.079  -4.350  0.00  0.00    +0.061 A 
ENDROOT
BRANCH  10  11
ATOM     11  N   UNL     1       2.545   1.459  -4.380  0.00  0.00    -0.292 N 
ATOM     12  C   UNL     1       2.589   2.128  -5.589  0.00  0.00    +0.163 A 
ATOM     13  N   UNL     1       2.667   1.632  -6.802  0.00  0.00    -0.225 NA
ATOM     14  C   UNL     1       2.702   2.412  -7.904  0.00  0.00    +0.080 A 
ATOM     15  C   UNL     1       2.785   2.009  -9.257  0.00  0.00    +0.029 A 
ATOM     16  C   UNL     1       2.811   2.938 -10.264  0.00  0.00    +0.002 A 
ATOM     17  C   UNL     1       2.756   4.299  -9.997  0.00  0.00    +0.001 A 
ATOM     18  C   UNL     1       2.675   4.729  -8.685  0.00  0.00    +0.017 A 
ATOM     19  C   UNL     1       2.648   3.805  -7.670  0.00  0.00    +0.041 A 
ATOM     20  S   UNL     1       2.545   3.887  -5.898  0.00  0.00    -0.052 S 
ATOM     21  H   UNL     1       2.456   1.957  -3.553  0.00  0.00    +0.154 HD
ENDBRANCH  10  11
BRANCH   1  23
ATOM     22  C   UNL     1      -1.843   1.113  -2.514  0.00  0.00    +0.277 C 
ATOM     23  O   UNL     1      -1.778  -0.314  -2.469  0.00  0.00    -0.491 OA
ENDBRANCH   1  23
BRANCH   9  24
ATOM     24  C   UNL     1       4.893   0.157  -5.307  0.00  0.00    +0.103 C 
ATOM     25  N   UNL     1       5.778   0.747  -5.707  0.00  0.00    -0.191 NA
ENDBRANCH   9  24
BRANCH   6  26
ATOM     26  O   UNL     1      -1.532  -3.050  -2.432  0.00  0.00    -0.490 OA
BRANCH  26  27
ATOM     27  C   UNL     1      -1.344  -4.467  -2.439  0.00  0.00    +0.211 C 
BRANCH  27  28
ATOM     28  C   UNL     1      -2.591  -5.149  -1.874  0.00  0.00    -0.037 C 
BRANCH  28  29
ATOM     29  N   UNL     1      -3.740  -4.870  -2.746  0.00  0.00    +0.382 N 
ATOM     30  C   UNL     1      -4.965  -5.382  -2.119  0.00  0.00    -0.079 C 
ATOM     31  C   UNL     1      -6.174  -5.021  -2.984  0.00  0.00    -0.019 C 
ATOM     32  C   UNL     1      -6.008  -5.649  -4.371  0.00  0.00    -0.004 C 
ATOM     33  C   UNL     1      -4.691  -5.165  -4.984  0.00  0.00    -0.019 C 
ATOM     34  C   UNL     1      -3.537  -5.520  -4.045  0.00  0.00    -0.079 C 
ATOM     35  H   UNL     1      -3.825  -3.873  -2.879  0.00  0.00    -0.082 HD
ENDBRANCH  28  29
ENDBRANCH  27  28
ENDBRANCH  26  27
ENDBRANCH   6  26
TORSDOF 7
