REMARK  Name = CHEMBL193695
REMARK  9 active torsions:
REMARK  status: ('A' for Active; 'I' for Inactive)
REMARK    1  A    between atoms: C_1  and  N_2
REMARK    2  A    between atoms: N_5  and  C_8
REMARK    3  A    between atoms: C_8  and  C_9
REMARK    4  A    between atoms: C_13  and  C_15
REMARK    5  A    between atoms: C_20  and  N_26
REMARK    6  A    between atoms: C_21  and  C_24
REMARK    7  A    between atoms: N_26  and  C_27
REMARK    8  A    between atoms: C_29  and  O_35
REMARK    9  A    between atoms: O_35  and  C_36
REMARK                            x       y       z     vdW  Elec       q    Type
REMARK                         _______ _______ _______ _____ _____    ______ ____
ROOT
ATOM      1  C   UNL     1       6.437  -2.107   4.210  0.00  0.00    +0.040 A 
ATOM      2  C   UNL     1       6.435  -2.973   3.162  0.00  0.00    +0.046 A 
ATOM      3  C   UNL     1       6.675  -4.340   3.380  0.00  0.00    +0.081 A 
ATOM      4  C   UNL     1       6.906  -4.706   4.724  0.00  0.00    +0.061 A 
ATOM      5  S   UNL     1       6.790  -3.168   5.601  0.00  0.00    -0.083 S 
ATOM      6  C   UNL     1       7.158  -6.016   5.094  0.00  0.00    +0.066 A 
ATOM      7  C   UNL     1       7.178  -6.995   4.078  0.00  0.00    +0.092 A 
ATOM      8  C   UNL     1       6.942  -6.579   2.760  0.00  0.00    +0.132 A 
ATOM      9  N   UNL     1       6.709  -5.333   2.456  0.00  0.00    -0.253 NA
ENDROOT
BRANCH   1  14
ATOM     10  C   UNL     1       5.882   1.293   2.989  0.00  0.00    +0.056 A 
ATOM     11  C   UNL     1       5.790   2.045   4.147  0.00  0.00    +0.025 A 
ATOM     12  C   UNL     1       5.914   1.418   5.378  0.00  0.00    +0.004 A 
ATOM     13  C   UNL     1       6.127   0.050   5.405  0.00  0.00    +0.029 A 
ATOM     14  C   UNL     1       6.210  -0.646   4.199  0.00  0.00    +0.078 A 
ATOM     15  N   UNL     1       6.080  -0.008   3.041  0.00  0.00    -0.250 NA
BRANCH  10  16
ATOM     16  C   UNL     1       5.747   1.971   1.650  0.00  0.00    +0.139 C 
BRANCH  16  21
ATOM     17  C   UNL     1      10.478   2.634  -1.338  0.00  0.00    -0.096 C 
ATOM     18  N   UNL     1       9.131   2.288  -0.863  0.00  0.00    +0.379 N 
ATOM     19  C   UNL     1       8.398   3.518  -0.533  0.00  0.00    -0.064 C 
ATOM     20  C   UNL     1       6.989   3.159  -0.056  0.00  0.00    +0.066 C 
ATOM     21  N   UNL     1       7.082   2.292   1.127  0.00  0.00    -0.300 NA
ATOM     22  C   UNL     1       7.835   1.068   0.819  0.00  0.00    +0.066 C 
ATOM     23  C   UNL     1       9.237   1.443   0.334  0.00  0.00    -0.064 C 
ATOM     24  H   UNL     1       8.638   1.786  -1.586  0.00  0.00    -0.082 HD
ENDBRANCH  16  21
ENDBRANCH  10  16
ENDBRANCH   1  14
BRANCH   7  25
ATOM     25  C   UNL     1       7.431  -8.370   4.383  0.00  0.00    +0.103 C 
ATOM     26  N   UNL     1       7.632  -9.462   4.626  0.00  0.00    -0.191 NA
ENDBRANCH   7  25
BRANCH   6  27
ATOM     27  N   UNL     1       7.383  -6.355   6.420  0.00  0.00    -0.311 N 
ATOM     28  H   UNL     1       8.273  -6.271   6.797  0.00  0.00    +0.152 HD
BRANCH  27  29
ATOM     29  C   UNL     1       6.328  -6.817   7.212  0.00  0.00    +0.054 A 
ATOM     30  C   UNL     1       5.079  -7.040   6.647  0.00  0.00    +0.071 A 
ATOM     31  C   UNL     1       4.036  -7.497   7.435  0.00  0.00    +0.140 A 
ATOM     32  C   UNL     1       4.240  -7.733   8.788  0.00  0.00    +0.084 A 
ATOM     33  C   UNL     1       5.484  -7.511   9.350  0.00  0.00    +0.045 A 
ATOM     34  C   UNL     1       6.529  -7.060   8.566  0.00  0.00    +0.064 A 
ATOM     35 CL   UNL     1       8.091  -6.789   9.274  0.00  0.00    -0.082 Cl
ATOM     36 CL   UNL     1       2.932  -8.306   9.775  0.00  0.00    -0.080 Cl
BRANCH  31  37
ATOM     37  O   UNL     1       2.812  -7.716   6.883  0.00  0.00    -0.494 OA
ATOM     38  C   UNL     1       2.643  -7.346   5.513  0.00  0.00    +0.277 C 
ENDBRANCH  31  37
ENDBRANCH  27  29
ENDBRANCH   6  27
TORSDOF 7
