REMARK  Name = CHEMBL104807
REMARK  8 active torsions:
REMARK  status: ('A' for Active; 'I' for Inactive)
REMARK    1  A    between atoms: C_1  and  C_2
REMARK    2  A    between atoms: C_5  and  C_8
REMARK    3  A    between atoms: N_15  and  C_17
REMARK    4  A    between atoms: C_21  and  C_23
REMARK    5  A    between atoms: N_25  and  C_26
REMARK    6  A    between atoms: C_26  and  C_27
REMARK    7  A    between atoms: C_30  and  P_37
REMARK    8  A    between atoms: C_31  and  P_33
REMARK                            x       y       z     vdW  Elec       q    Type
REMARK                         _______ _______ _______ _____ _____    ______ ____
ROOT
ATOM      1  C   UNL     1       1.970  -7.318  -0.532  0.00  0.00    +0.064 C 
ATOM      2  C   UNL     1       1.595  -7.167  -1.810  0.00  0.00    +0.001 C 
ATOM      3  C   UNL     1       1.505  -8.361  -2.721  0.00  0.00    +0.034 C 
ATOM      4  C   UNL     1       2.601  -9.368  -2.375  0.00  0.00    +0.044 C 
ATOM      5  C   UNL     1       2.597  -9.644  -0.895  0.00  0.00    +0.017 C 
ATOM      6  C   UNL     1       2.302  -8.656  -0.025  0.00  0.00    +0.036 C 
ENDROOT
BRANCH   1  14
ATOM      7  C   UNL     1       1.937  -4.088   0.974  0.00  0.00    +0.105 A 
ATOM      8  C   UNL     1       2.370  -4.913   2.101  0.00  0.00    +0.086 A 
ATOM      9  C   UNL     1       2.712  -4.664   3.441  0.00  0.00    +0.131 A 
ATOM     10  N   UNL     1       3.072  -5.693   4.202  0.00  0.00    -0.220 NA
ATOM     11  C   UNL     1       3.108  -6.921   3.716  0.00  0.00    +0.225 A 
ATOM     12  N   UNL     1       2.798  -7.201   2.469  0.00  0.00    -0.216 NA
ATOM     13  C   UNL     1       2.424  -6.237   1.628  0.00  0.00    +0.169 A 
ATOM     14  N   UNL     1       2.050  -6.205   0.315  0.00  0.00    -0.214 N 
ATOM     15  N   UNL     1       1.756  -4.887  -0.052  0.00  0.00    -0.164 NA
ATOM     16  N   UNL     1       2.676  -3.382   3.954  0.00  0.00    -0.342 N 
ATOM     17  H   UNL     1       2.322  -2.655   3.418  0.00  0.00    +0.144 HD
ATOM     18  H   UNL     1       3.004  -3.209   4.850  0.00  0.00    +0.144 HD
BRANCH   7  23
ATOM     19  C   UNL     1       1.156   1.542   1.663  0.00  0.00    +0.012 C 
ATOM     20  C   UNL     1       1.175   0.019   1.810  0.00  0.00    +0.012 C 
ATOM     21  C   UNL     1       0.333  -0.608   0.700  0.00  0.00    +0.035 C 
ATOM     22  C   UNL     1       0.532  -2.101   0.686  0.00  0.00    -0.016 C 
ATOM     23  C   UNL     1       1.733  -2.620   0.988  0.00  0.00    -0.001 C 
ATOM     24  C   UNL     1       2.850  -1.716   1.336  0.00  0.00    +0.006 C 
ATOM     25  C   UNL     1       2.595  -0.473   1.721  0.00  0.00    -0.023 C 
ENDBRANCH   7  23
ENDBRANCH   1  14
BRANCH   5  26
ATOM     26  C   UNL     1       2.919 -10.983  -0.400  0.00  0.00    +0.240 C 
ATOM     27  O   UNL     1       2.916 -11.207   0.796  0.00  0.00    -0.271 OA
ATOM     28  N   UNL     1       3.219 -11.969  -1.269  0.00  0.00    -0.307 N 
ATOM     29  H   UNL     1       3.221 -11.791  -2.223  0.00  0.00    +0.149 HD
BRANCH  28  30
ATOM     30  C   UNL     1       3.541 -13.309  -0.774  0.00  0.00    +0.139 C 
BRANCH  30  31
ATOM     31  C   UNL     1       3.836 -14.218  -1.939  0.00  0.00    -0.029 A 
ATOM     32  C   UNL     1       2.813 -14.931  -2.537  0.00  0.00    +0.006 A 
ATOM     33  C   UNL     1       3.084 -15.764  -3.606  0.00  0.00    +0.017 A 
ATOM     34  C   UNL     1       4.378 -15.885  -4.078  0.00  0.00    +0.083 A 
ATOM     35  C   UNL     1       5.400 -15.172  -3.481  0.00  0.00    +0.083 A 
ATOM     36  C   UNL     1       5.129 -14.335  -2.414  0.00  0.00    +0.022 A 
BRANCH  35  37
ATOM     37  P   UNL     1       7.098 -15.331  -4.100  0.00  0.00    +0.417 P 
ATOM     38  O   UNL     1       7.114 -15.091  -5.648  0.00  0.00    -0.248 OA
ATOM     39  O   UNL     1       8.011 -14.269  -3.398  0.00  0.00    -0.135 OA
ATOM     40  O   UNL     1       7.635 -16.769  -3.788  0.00  0.00    -0.135 OA
ENDBRANCH  35  37
BRANCH  34  41
ATOM     41  P   UNL     1       4.733 -16.980  -5.480  0.00  0.00    +0.417 P 
ATOM     42  O   UNL     1       4.756 -16.142  -6.803  0.00  0.00    -0.248 OA
ATOM     43  O   UNL     1       6.128 -17.662  -5.269  0.00  0.00    -0.135 OA
ATOM     44  O   UNL     1       3.623 -18.080  -5.577  0.00  0.00    -0.135 OA
ENDBRANCH  34  41
ENDBRANCH  30  31
ENDBRANCH  28  30
ENDBRANCH   5  26
TORSDOF 7
