REMARK  Name = CHEMBL510516
REMARK  13 active torsions:
REMARK  status: ('A' for Active; 'I' for Inactive)
REMARK    1  A    between atoms: C_1  and  C_2
REMARK    2  A    between atoms: C_2  and  C_3
REMARK    3  A    between atoms: N_5  and  C_6
REMARK    4  A    between atoms: C_12  and  N_16
REMARK    5  A    between atoms: N_16  and  C_17
REMARK    6  A    between atoms: C_20  and  N_23
REMARK    7  A    between atoms: N_26  and  C_27
REMARK    8  A    between atoms: C_29  and  C_39
REMARK    9  A    between atoms: N_31  and  C_32
REMARK   10  A    between atoms: C_36  and  C_38
REMARK   11  A    between atoms: C_39  and  C_40
REMARK   12  A    between atoms: C_39  and  C_41
REMARK   13  A    between atoms: C_39  and  C_42
REMARK                            x       y       z     vdW  Elec       q    Type
REMARK                         _______ _______ _______ _____ _____    ______ ____
ROOT
ATOM      1  C   UNL     1       2.517  -7.710   3.952  0.00  0.00    +0.032 A 
ATOM      2  C   UNL     1       3.685  -8.081   4.606  0.00  0.00    +0.025 A 
ATOM      3  C   UNL     1       3.935  -9.413   4.870  0.00  0.00    +0.025 A 
ATOM      4  C   UNL     1       3.019 -10.381   4.482  0.00  0.00    +0.035 A 
ATOM      5  C   UNL     1       1.851 -10.011   3.829  0.00  0.00    +0.025 A 
ATOM      6  C   UNL     1       1.598  -8.679   3.569  0.00  0.00    +0.025 A 
ENDROOT
BRANCH   4   7
ATOM      7  N   UNL     1       3.273 -11.733   4.750  0.00  0.00    -0.269 N 
ATOM      8  C   UNL     1       2.844 -12.682   3.895  0.00  0.00    +0.309 C 
ATOM      9  O   UNL     1       2.321 -12.362   2.845  0.00  0.00    -0.252 OA
ATOM     10  N   UNL     1       2.995 -13.985   4.203  0.00  0.00    -0.254 N 
ATOM     11  H   UNL     1       3.758 -11.986   5.552  0.00  0.00    +0.156 HD
ATOM     12  H   UNL     1       3.412 -14.240   5.041  0.00  0.00    +0.158 HD
BRANCH  10  13
ATOM     13  C   UNL     1       2.551 -14.967   3.318  0.00  0.00    +0.130 A 
ATOM     14  C   UNL     1       1.956 -14.755   2.112  0.00  0.00    +0.069 A 
ATOM     15  C   UNL     1       1.670 -16.002   1.549  0.00  0.00    +0.071 A 
ATOM     16  N   UNL     1       2.072 -16.933   2.377  0.00  0.00    -0.169 NA
ATOM     17  N   UNL     1       2.638 -16.313   3.499  0.00  0.00    -0.218 N 
BRANCH  17  18
ATOM     18  C   UNL     1       3.190 -16.963   4.610  0.00  0.00    +0.068 A 
ATOM     19  C   UNL     1       4.284 -16.413   5.266  0.00  0.00    +0.028 A 
ATOM     20  C   UNL     1       4.826 -17.056   6.361  0.00  0.00    +0.002 A 
ATOM     21  C   UNL     1       4.282 -18.247   6.805  0.00  0.00    +0.003 A 
ATOM     22  C   UNL     1       3.194 -18.798   6.154  0.00  0.00    -0.048 A 
ATOM     23  C   UNL     1       2.643 -18.156   5.062  0.00  0.00    +0.031 A 
ATOM     24  C   UNL     1       2.604 -20.096   6.641  0.00  0.00    +0.044 C 
ENDBRANCH  17  18
BRANCH  15  25
ATOM     25  C   UNL     1       1.008 -16.235   0.215  0.00  0.00    +0.006 C 
ATOM     26  C   UNL     1       2.010 -15.954  -0.907  0.00  0.00    +0.017 C 
ATOM     27  C   UNL     1       0.539 -17.689   0.126  0.00  0.00    +0.017 C 
ATOM     28  C   UNL     1      -0.194 -15.301   0.072  0.00  0.00    +0.017 C 
ENDBRANCH  15  25
ENDBRANCH  10  13
ENDBRANCH   4   7
BRANCH   1  29
ATOM     29  N   UNL     1       2.263  -6.360   3.685  0.00  0.00    -0.299 N 
ATOM     30  H   UNL     1       2.999  -5.756   3.498  0.00  0.00    +0.154 HD
BRANCH  29  37
ATOM     31  C   UNL     1       1.335  -2.371   2.564  0.00  0.00    +0.034 A 
ATOM     32  C   UNL     1      -0.001  -1.959   2.588  0.00  0.00    +0.025 A 
ATOM     33  C   UNL     1      -0.991  -2.815   2.963  0.00  0.00    +0.030 A 
ATOM     34  C   UNL     1      -0.674  -4.130   3.332  0.00  0.00    +0.076 A 
ATOM     35  C   UNL     1       0.677  -4.554   3.309  0.00  0.00    +0.042 A 
ATOM     36  C   UNL     1       1.679  -3.660   2.916  0.00  0.00    +0.036 A 
ATOM     37  C   UNL     1       0.967  -5.888   3.686  0.00  0.00    +0.134 A 
ATOM     38  N   UNL     1      -0.043  -6.672   4.041  0.00  0.00    -0.220 NA
ATOM     39  C   UNL     1      -1.291  -6.231   4.046  0.00  0.00    +0.223 A 
ATOM     40  N   UNL     1      -1.617  -5.007   3.707  0.00  0.00    -0.235 NA
BRANCH  31  43
ATOM     41  C   UNL     1       2.233  -0.168   2.511  0.00  0.00    +0.217 C 
ATOM     42  O   UNL     1       1.239   0.238   3.076  0.00  0.00    -0.275 OA
ATOM     43  N   UNL     1       2.332  -1.469   2.174  0.00  0.00    -0.285 N 
ATOM     44  H   UNL     1       3.094  -1.781   1.662  0.00  0.00    +0.155 HD
BRANCH  41  46
ATOM     45  C   UNL     1       2.992   2.187   2.670  0.00  0.00    +0.013 C 
ATOM     46  C   UNL     1       3.355   0.783   2.184  0.00  0.00    +0.093 C 
ENDBRANCH  41  46
ENDBRANCH  31  43
ENDBRANCH  29  37
ENDBRANCH   1  29
TORSDOF 8
