REMARK  Name = CHEMBL303786
REMARK  9 active torsions:
REMARK  status: ('A' for Active; 'I' for Inactive)
REMARK    1  A    between atoms: C_1  and  N_2
REMARK    2  A    between atoms: N_5  and  C_8
REMARK    3  A    between atoms: C_8  and  C_9
REMARK    4  A    between atoms: C_11  and  C_14
REMARK    5  A    between atoms: C_22  and  C_35
REMARK    6  A    between atoms: C_23  and  N_24
REMARK    7  A    between atoms: N_24  and  C_25
REMARK    8  A    between atoms: C_27  and  O_33
REMARK    9  A    between atoms: O_33  and  C_34
REMARK                            x       y       z     vdW  Elec       q    Type
REMARK                         _______ _______ _______ _____ _____    ______ ____
ROOT
ATOM      1  C   UNL     1      -0.857  -4.509   6.269  0.00  0.00    -0.015 A 
ATOM      2  C   UNL     1      -2.259  -4.514   6.348  0.00  0.00    +0.009 A 
ATOM      3  C   UNL     1      -2.889  -5.023   7.440  0.00  0.00    +0.012 A 
ATOM      4  C   UNL     1      -2.137  -5.549   8.502  0.00  0.00    +0.023 A 
ATOM      5  C   UNL     1      -0.722  -5.551   8.436  0.00  0.00    +0.073 A 
ATOM      6  C   UNL     1      -0.091  -5.027   7.299  0.00  0.00    +0.037 A 
ATOM      7  N   UNL     1       0.001  -6.054   9.447  0.00  0.00    -0.254 NA
ATOM      8  C   UNL     1      -0.559  -6.555  10.518  0.00  0.00    +0.132 A 
ATOM      9  C   UNL     1      -1.954  -6.595  10.669  0.00  0.00    +0.091 A 
ATOM     10  C   UNL     1      -2.771  -6.084   9.648  0.00  0.00    +0.060 A 
ENDROOT
BRANCH   1  13
ATOM     11  C   UNL     1      -0.297  -2.920   2.942  0.00  0.00    +0.004 A 
ATOM     12  C   UNL     1      -0.940  -3.422   4.020  0.00  0.00    +0.021 A 
ATOM     13  C   UNL     1      -0.192  -3.949   5.069  0.00  0.00    -0.011 A 
ATOM     14  C   UNL     1       1.172  -3.938   4.966  0.00  0.00    +0.054 A 
ATOM     15  S   UNL     1       1.416  -3.181   3.368  0.00  0.00    -0.100 S 
BRANCH  11  16
ATOM     16  C   UNL     1      -0.878  -2.303   1.696  0.00  0.00    +0.126 C 
BRANCH  16  21
ATOM     17  C   UNL     1      -0.844   3.324   1.406  0.00  0.00    -0.096 C 
ATOM     18  N   UNL     1      -0.669   1.885   1.165  0.00  0.00    +0.379 N 
ATOM     19  C   UNL     1      -1.986   1.242   1.067  0.00  0.00    -0.064 C 
ATOM     20  C   UNL     1      -1.804  -0.254   0.797  0.00  0.00    +0.066 C 
ATOM     21  N   UNL     1      -1.026  -0.855   1.890  0.00  0.00    -0.301 NA
ATOM     22  C   UNL     1       0.285  -0.204   2.017  0.00  0.00    +0.066 C 
ATOM     23  C   UNL     1       0.086   1.291   2.276  0.00  0.00    -0.064 C 
ATOM     24  H   UNL     1      -0.163   1.748   0.303  0.00  0.00    -0.082 HD
ENDBRANCH  16  21
ENDBRANCH  11  16
ENDBRANCH   1  13
BRANCH  10  25
ATOM     25  N   UNL     1      -4.146  -6.103   9.757  0.00  0.00    -0.312 N 
ATOM     26  H   UNL     1      -4.697  -6.064   8.960  0.00  0.00    +0.152 HD
BRANCH  25  27
ATOM     27  C   UNL     1      -4.746  -6.181  11.018  0.00  0.00    +0.053 A 
ATOM     28  C   UNL     1      -5.454  -7.318  11.383  0.00  0.00    +0.071 A 
ATOM     29  C   UNL     1      -6.046  -7.391  12.633  0.00  0.00    +0.140 A 
ATOM     30  C   UNL     1      -5.932  -6.328  13.519  0.00  0.00    +0.084 A 
ATOM     31  C   UNL     1      -5.227  -5.195  13.155  0.00  0.00    +0.045 A 
ATOM     32  C   UNL     1      -4.629  -5.121  11.911  0.00  0.00    +0.064 A 
ATOM     33 CL   UNL     1      -3.737  -3.701  11.460  0.00  0.00    -0.082 Cl
ATOM     34 CL   UNL     1      -6.675  -6.420  15.085  0.00  0.00    -0.080 Cl
BRANCH  29  35
ATOM     35  O   UNL     1      -6.741  -8.504  12.992  0.00  0.00    -0.494 OA
ATOM     36  C   UNL     1      -6.721  -9.603  12.079  0.00  0.00    +0.277 C 
ENDBRANCH  29  35
ENDBRANCH  25  27
ENDBRANCH  10  25
BRANCH   9  37
ATOM     37  C   UNL     1      -2.539  -7.151  11.852  0.00  0.00    +0.103 C 
ATOM     38  N   UNL     1      -3.003  -7.591  12.791  0.00  0.00    -0.191 NA
ENDBRANCH   9  37
TORSDOF 7
