REMARK  Name = CHEMBL475584
REMARK  9 active torsions:
REMARK  status: ('A' for Active; 'I' for Inactive)
REMARK    1  A    between atoms: C_1  and  O_2
REMARK    2  A    between atoms: O_2  and  C_3
REMARK    3  A    between atoms: C_7  and  C_9
REMARK    4  A    between atoms: N_11  and  C_19
REMARK    5  A    between atoms: C_14  and  N_18
REMARK    6  A    between atoms: C_22  and  C_25
REMARK    7  A    between atoms: C_25  and  C_26
REMARK    8  A    between atoms: C_26  and  N_27
REMARK    9  A    between atoms: C_30  and  O_33
REMARK                            x       y       z     vdW  Elec       q    Type
REMARK                         _______ _______ _______ _____ _____    ______ ____
ROOT
ATOM      1  C   UNL     1       1.331  -4.082  -2.301  0.00  0.00    +0.013 A 
ATOM      2  C   UNL     1       1.737  -4.936  -1.328  0.00  0.00    +0.102 A 
ATOM      3  N   UNL     1       1.647  -6.225  -1.781  0.00  0.00    -0.300 N 
ATOM      4  C   UNL     1       1.177  -6.244  -3.069  0.00  0.00    +0.151 A 
ATOM      5  C   UNL     1       0.951  -4.911  -3.453  0.00  0.00    +0.066 A 
ATOM      6  C   UNL     1       0.458  -4.654  -4.739  0.00  0.00    +0.129 A 
ATOM      7  N   UNL     1       0.221  -5.688  -5.542  0.00  0.00    -0.220 NA
ATOM      8  C   UNL     1       0.443  -6.926  -5.141  0.00  0.00    +0.225 A 
ATOM      9  N   UNL     1       0.914  -7.212  -3.946  0.00  0.00    -0.217 NA
ENDROOT
BRANCH   1  14
ATOM     10  C   UNL     1       0.606  -0.607  -1.056  0.00  0.00    +0.121 A 
ATOM     11  C   UNL     1       1.173   0.163  -2.063  0.00  0.00    +0.045 A 
ATOM     12  C   UNL     1       1.788  -0.446  -3.141  0.00  0.00    +0.004 A 
ATOM     13  C   UNL     1       1.841  -1.823  -3.223  0.00  0.00    +0.009 A 
ATOM     14  C   UNL     1       1.275  -2.604  -2.216  0.00  0.00    -0.012 A 
ATOM     15  C   UNL     1       0.660  -1.989  -1.126  0.00  0.00    +0.054 A 
BRANCH  10  17
ATOM     16  C   UNL     1      -0.017   1.425   0.010  0.00  0.00    +0.277 C 
ATOM     17  O   UNL     1       0.002  -0.004   0.002  0.00  0.00    -0.495 OA
ENDBRANCH  10  17
ENDBRANCH   1  14
BRANCH   3  18
ATOM     18  C   UNL     1       1.987  -7.361  -1.036  0.00  0.00    +0.048 A 
ATOM     19  C   UNL     1       1.103  -8.429  -0.953  0.00  0.00    +0.026 A 
ATOM     20  C   UNL     1       1.442  -9.548  -0.217  0.00  0.00    +0.005 A 
ATOM     21  C   UNL     1       2.659  -9.606   0.436  0.00  0.00    -0.049 A 
ATOM     22  C   UNL     1       3.541  -8.544   0.356  0.00  0.00    +0.005 A 
ATOM     23  C   UNL     1       3.211  -7.425  -0.383  0.00  0.00    +0.026 A 
BRANCH  21  24
ATOM     24  C   UNL     1       3.025 -10.828   1.238  0.00  0.00    +0.016 C 
BRANCH  24  25
ATOM     25  C   UNL     1       3.750 -11.831   0.338  0.00  0.00    -0.074 C 
BRANCH  25  26
ATOM     26  N   UNL     1       4.106 -13.022   1.119  0.00  0.00    +0.380 N 
ATOM     27  C   UNL     1       5.073 -12.652   2.159  0.00  0.00    -0.076 C 
ATOM     28  C   UNL     1       5.387 -13.872   3.028  0.00  0.00    +0.013 C 
ATOM     29  C   UNL     1       5.978 -14.979   2.149  0.00  0.00    +0.111 C 
ATOM     30  C   UNL     1       4.992 -15.305   1.024  0.00  0.00    +0.013 C 
ATOM     31  C   UNL     1       4.693 -14.031   0.230  0.00  0.00    -0.076 C 
ATOM     32  H   UNL     1       3.277 -13.399   1.553  0.00  0.00    -0.082 HD
BRANCH  29  33
ATOM     33  O   UNL     1       6.204 -16.147   2.940  0.00  0.00    -0.392 OA
ATOM     34  H   UNL     1       6.579 -16.890   2.447  0.00  0.00    +0.210 HD
ENDBRANCH  29  33
ENDBRANCH  25  26
ENDBRANCH  24  25
ENDBRANCH  21  24
ENDBRANCH   3  18
BRANCH   6  35
ATOM     35  N   UNL     1       0.223  -3.358  -5.163  0.00  0.00    -0.343 N 
ATOM     36  H   UNL     1       0.400  -2.614  -4.567  0.00  0.00    +0.144 HD
ATOM     37  H   UNL     1      -0.119  -3.194  -6.056  0.00  0.00    +0.144 HD
ENDBRANCH   6  35
TORSDOF 8
