REMARK  Name = CHEMBL131577
REMARK  4 active torsions:
REMARK  status: ('A' for Active; 'I' for Inactive)
REMARK    1  A    between atoms: C_1  and  C_2
REMARK    2  A    between atoms: C_7  and  N_8
REMARK    3  A    between atoms: C_9  and  C_11
REMARK    4  A    between atoms: C_17  and  C_19
REMARK                            x       y       z     vdW  Elec       q    Type
REMARK                         _______ _______ _______ _____ _____    ______ ____
ROOT
ATOM      1  N   UNL     1       0.025  -0.015   2.417  0.00  0.00    -0.280 N 
ATOM      2  C   UNL     1      -0.355  -0.641   3.548  0.00  0.00    +0.256 C 
ATOM      3  O   UNL     1      -0.613  -1.831   3.528  0.00  0.00    -0.269 OA
ATOM      4  H   UNL     1       0.300   0.915   2.446  0.00  0.00    +0.155 HD
ENDROOT
BRANCH   2   5
ATOM      5  C   UNL     1      -0.458   0.109   4.800  0.00  0.00    +0.095 A 
ATOM      6  C   UNL     1      -0.819  -0.327   6.067  0.00  0.00    +0.133 A 
ATOM      7  N   UNL     1      -0.824   0.577   7.014  0.00  0.00    -0.232 NA
ATOM      8  C   UNL     1      -0.502   1.834   6.769  0.00  0.00    +0.165 A 
ATOM      9  S   UNL     1      -0.146   1.837   5.124  0.00  0.00    -0.047 S 
ATOM     10  N   UNL     1      -0.461   2.896   7.655  0.00  0.00    -0.264 N 
ATOM     11  C   UNL     1      -0.776   2.704   8.952  0.00  0.00    +0.222 C 
ATOM     12  O   UNL     1      -1.095   1.601   9.341  0.00  0.00    -0.275 OA
ATOM     13  H   UNL     1      -0.206   3.779   7.344  0.00  0.00    +0.157 HD
BRANCH  11  14
ATOM     14  C   UNL     1      -0.732   3.860   9.917  0.00  0.00    +0.075 C 
ATOM     15  C   UNL     1       0.358   3.842  10.992  0.00  0.00    +0.013 C 
ATOM     16  C   UNL     1      -1.100   3.578  11.375  0.00  0.00    +0.013 C 
ENDBRANCH  11  14
ENDBRANCH   2   5
BRANCH   1  23
ATOM     17  C   UNL     1      -2.321   0.099   0.811  0.00  0.00    +0.046 C 
ATOM     18  C   UNL     1      -1.101  -0.676   0.386  0.00  0.00    -0.028 A 
ATOM     19  C   UNL     1      -1.098  -1.355  -0.818  0.00  0.00    +0.005 A 
ATOM     20  C   UNL     1       0.020  -2.067  -1.210  0.00  0.00    +0.002 A 
ATOM     21  C   UNL     1       1.140  -2.102  -0.399  0.00  0.00    +0.022 A 
ATOM     22  C   UNL     1       1.145  -1.426   0.806  0.00  0.00    +0.062 A 
ATOM     23  C   UNL     1       0.023  -0.705   1.200  0.00  0.00    +0.055 A 
ATOM     24 CL   UNL     1       2.550  -1.471   1.824  0.00  0.00    -0.082 Cl
ENDBRANCH   1  23
TORSDOF 3
