REMARK  Name = CHEMBL321569
REMARK  9 active torsions:
REMARK  status: ('A' for Active; 'I' for Inactive)
REMARK    1  A    between atoms: C_1  and  O_2
REMARK    2  A    between atoms: O_2  and  C_3
REMARK    3  A    between atoms: C_7  and  C_9
REMARK    4  A    between atoms: N_11  and  C_19
REMARK    5  A    between atoms: C_14  and  N_18
REMARK    6  A    between atoms: C_22  and  C_25
REMARK    7  A    between atoms: N_27  and  C_28
REMARK    8  A    between atoms: C_31  and  P_38
REMARK    9  A    between atoms: C_32  and  P_34
REMARK                            x       y       z     vdW  Elec       q    Type
REMARK                         _______ _______ _______ _____ _____    ______ ____
ROOT
ATOM      1  C   UNL     1      -2.158  -7.995  -0.798  0.00  0.00    +0.048 A 
ATOM      2  C   UNL     1      -1.518  -9.040  -0.140  0.00  0.00    +0.027 A 
ATOM      3  C   UNL     1      -0.928 -10.053  -0.862  0.00  0.00    +0.015 A 
ATOM      4  C   UNL     1      -0.973 -10.030  -2.259  0.00  0.00    +0.037 A 
ATOM      5  C   UNL     1      -1.616  -8.979  -2.917  0.00  0.00    +0.015 A 
ATOM      6  C   UNL     1      -2.209  -7.972  -2.188  0.00  0.00    +0.027 A 
ENDROOT
BRANCH   1   9
ATOM      7  C   UNL     1      -3.290  -4.914   0.607  0.00  0.00    +0.013 A 
ATOM      8  C   UNL     1      -2.562  -5.632  -0.283  0.00  0.00    +0.102 A 
ATOM      9  N   UNL     1      -2.756  -6.970  -0.063  0.00  0.00    -0.300 N 
ATOM     10  C   UNL     1      -3.621  -7.157   0.985  0.00  0.00    +0.151 A 
ATOM     11  C   UNL     1      -3.991  -5.886   1.456  0.00  0.00    +0.066 A 
ATOM     12  C   UNL     1      -4.875  -5.800   2.540  0.00  0.00    +0.129 A 
ATOM     13  N   UNL     1      -5.324  -6.930   3.080  0.00  0.00    -0.220 NA
ATOM     14  C   UNL     1      -4.949  -8.105   2.608  0.00  0.00    +0.225 A 
ATOM     15  N   UNL     1      -4.128  -8.232   1.588  0.00  0.00    -0.217 NA
BRANCH   7  20
ATOM     16  C   UNL     1      -2.261  -1.302   0.835  0.00  0.00    +0.121 A 
ATOM     17  C   UNL     1      -3.498  -0.674   0.897  0.00  0.00    +0.045 A 
ATOM     18  C   UNL     1      -4.660  -1.422   0.864  0.00  0.00    +0.004 A 
ATOM     19  C   UNL     1      -4.598  -2.798   0.770  0.00  0.00    +0.009 A 
ATOM     20  C   UNL     1      -3.360  -3.437   0.708  0.00  0.00    -0.012 A 
ATOM     21  C   UNL     1      -2.189  -2.682   0.735  0.00  0.00    +0.054 A 
BRANCH  16  23
ATOM     22  C   UNL     1      -1.270   0.855   0.972  0.00  0.00    +0.277 C 
ATOM     23  O   UNL     1      -1.121  -0.563   0.868  0.00  0.00    -0.495 OA
ENDBRANCH  16  23
ENDBRANCH   7  20
BRANCH  12  24
ATOM     24  N   UNL     1      -5.270  -4.571   3.037  0.00  0.00    -0.343 N 
ATOM     25  H   UNL     1      -4.934  -3.755   2.635  0.00  0.00    +0.144 HD
ATOM     26  H   UNL     1      -5.882  -4.526   3.788  0.00  0.00    +0.144 HD
ENDBRANCH  12  24
ENDBRANCH   1   9
BRANCH   4  27
ATOM     27  C   UNL     1      -0.341 -11.114  -3.036  0.00  0.00    +0.248 C 
ATOM     28  O   UNL     1       0.219 -12.028  -2.462  0.00  0.00    -0.270 OA
ATOM     29  N   UNL     1      -0.385 -11.091  -4.383  0.00  0.00    -0.281 N 
ATOM     30  H   UNL     1      -0.890 -10.400  -4.840  0.00  0.00    +0.155 HD
BRANCH  29  31
ATOM     31  C   UNL     1       0.298 -12.062  -5.122  0.00  0.00    +0.035 A 
ATOM     32  C   UNL     1       0.893 -11.726  -6.331  0.00  0.00    +0.024 A 
ATOM     33  C   UNL     1       1.567 -12.687  -7.058  0.00  0.00    +0.019 A 
ATOM     34  C   UNL     1       1.651 -13.983  -6.583  0.00  0.00    +0.083 A 
ATOM     35  C   UNL     1       1.060 -14.321  -5.379  0.00  0.00    +0.084 A 
ATOM     36  C   UNL     1       0.389 -13.363  -4.645  0.00  0.00    +0.040 A 
BRANCH  35  37
ATOM     37  P   UNL     1       1.173 -16.023  -4.761  0.00  0.00    +0.418 P 
ATOM     38  O   UNL     1       2.674 -16.472  -4.738  0.00  0.00    -0.248 OA
ATOM     39  O   UNL     1       0.586 -16.091  -3.310  0.00  0.00    -0.135 OA
ATOM     40  O   UNL     1       0.356 -16.975  -5.700  0.00  0.00    -0.135 OA
ENDBRANCH  35  37
BRANCH  34  41
ATOM     41  P   UNL     1       2.537 -15.243  -7.541  0.00  0.00    +0.417 P 
ATOM     42  O   UNL     1       3.995 -15.392  -6.986  0.00  0.00    -0.248 OA
ATOM     43  O   UNL     1       1.790 -16.615  -7.418  0.00  0.00    -0.135 OA
ATOM     44  O   UNL     1       2.593 -14.812  -9.046  0.00  0.00    -0.135 OA
ENDBRANCH  34  41
ENDBRANCH  29  31
ENDBRANCH   4  27
TORSDOF 8
