REMARK  Name = CHEMBL221742
REMARK  10 active torsions:
REMARK  status: ('A' for Active; 'I' for Inactive)
REMARK    1  A    between atoms: C_1  and  C_2
REMARK    2  A    between atoms: C_6  and  C_37
REMARK    3  A    between atoms: C_7  and  C_8
REMARK    4  A    between atoms: C_10  and  C_36
REMARK    5  A    between atoms: N_18  and  C_19
REMARK    6  A    between atoms: C_22  and  N_25
REMARK    7  A    between atoms: N_25  and  S_26
REMARK    8  A    between atoms: S_26  and  C_29
REMARK    9  A    between atoms: C_29  and  C_30
REMARK   10  A    between atoms: C_30  and  N_31
REMARK                            x       y       z     vdW  Elec       q    Type
REMARK                         _______ _______ _______ _____ _____    ______ ____
ROOT
ATOM      1  C   UNL     1       0.088   0.121   2.443  0.00  0.00    -0.015 A 
ATOM      2  C   UNL     1       1.052  -0.201   3.413  0.00  0.00    +0.014 A 
ATOM      3  C   UNL     1       1.035   0.389   4.636  0.00  0.00    -0.022 A 
ATOM      4  C   UNL     1       0.043   1.335   4.944  0.00  0.00    +0.097 A 
ATOM      5  C   UNL     1      -0.937   1.669   3.972  0.00  0.00    +0.112 A 
ATOM      6  C   UNL     1      -0.898   1.052   2.713  0.00  0.00    +0.040 A 
ATOM      7  N   UNL     1      -1.874   2.572   4.281  0.00  0.00    -0.144 NA
ATOM      8  N   UNL     1      -1.874   3.122   5.447  0.00  0.00    -0.112 NA
ATOM      9  C   UNL     1      -0.961   2.820   6.372  0.00  0.00    +0.240 A 
ATOM     10  N   UNL     1      -0.006   1.938   6.138  0.00  0.00    -0.211 NA
ATOM     11  N   UNL     1      -1.016   3.446   7.606  0.00  0.00    -0.282 N 
ATOM     12  C   UNL     1       2.078   0.029   5.662  0.00  0.00    +0.046 C 
ATOM     13  H   UNL     1      -0.313   3.296   8.257  0.00  0.00    +0.155 HD
ENDROOT
BRANCH   1  20
ATOM     14  C   UNL     1       0.629   1.695   0.076  0.00  0.00    +0.044 C 
ATOM     15  C   UNL     1       0.391   0.211  -0.030  0.00  0.00    -0.042 A 
ATOM     16  C   UNL     1       0.436  -0.410  -1.262  0.00  0.00    +0.004 A 
ATOM     17  C   UNL     1       0.218  -1.772  -1.362  0.00  0.00    +0.001 A 
ATOM     18  C   UNL     1      -0.046  -2.520  -0.228  0.00  0.00    +0.004 A 
ATOM     19  C   UNL     1      -0.093  -1.910   1.009  0.00  0.00    -0.042 A 
ATOM     20  C   UNL     1       0.132  -0.539   1.116  0.00  0.00    -0.012 A 
ATOM     21  C   UNL     1      -0.381  -2.727   2.243  0.00  0.00    +0.044 C 
ENDBRANCH   1  20
BRANCH  11  22
ATOM     22  C   UNL     1      -2.086   4.295   7.913  0.00  0.00    +0.034 A 
ATOM     23  C   UNL     1      -3.372   3.966   7.506  0.00  0.00    +0.025 A 
ATOM     24  C   UNL     1      -4.427   4.804   7.809  0.00  0.00    +0.028 A 
ATOM     25  C   UNL     1      -4.202   5.975   8.521  0.00  0.00    +0.074 A 
ATOM     26  C   UNL     1      -2.916   6.303   8.929  0.00  0.00    +0.028 A 
ATOM     27  C   UNL     1      -1.861   5.463   8.630  0.00  0.00    +0.025 A 
BRANCH  25  28
ATOM     28  N   UNL     1      -5.271   6.824   8.828  0.00  0.00    -0.103 NA
BRANCH  28  29
ATOM     29  S   UNL     1      -5.003   8.220   9.677  0.00  0.00    +0.061 S 
ATOM     30  O   UNL     1      -4.536   7.788  10.947  0.00  0.00    -0.154 OA
ATOM     31  O   UNL     1      -4.175   9.006   8.830  0.00  0.00    -0.154 OA
BRANCH  29  32
ATOM     32  C   UNL     1      -6.638   8.989   9.841  0.00  0.00    +0.172 C 
BRANCH  32  33
ATOM     33  C   UNL     1      -6.510  10.300  10.617  0.00  0.00    -0.054 C 
BRANCH  33  34
ATOM     34  N   UNL     1      -7.834  10.922  10.750  0.00  0.00    +0.381 N 
ATOM     35  C   UNL     1      -8.692  10.113  11.652  0.00  0.00    -0.079 C 
ATOM     36  C   UNL     1      -9.763  11.127  12.127  0.00  0.00    -0.020 C 
ATOM     37  C   UNL     1      -8.955  12.435  12.283  0.00  0.00    -0.020 C 
ATOM     38  C   UNL     1      -7.712  12.249  11.393  0.00  0.00    -0.079 C 
ATOM     39  H   UNL     1      -8.268  11.014   9.844  0.00  0.00    -0.082 HD
ENDBRANCH  33  34
ENDBRANCH  32  33
ENDBRANCH  29  32
ENDBRANCH  28  29
ENDBRANCH  25  28
ENDBRANCH  11  22
TORSDOF 7
