REMARK  Name = CHEMBL473516
REMARK  7 active torsions:
REMARK  status: ('A' for Active; 'I' for Inactive)
REMARK    1  A    between atoms: C_1  and  S_2
REMARK    2  A    between atoms: S_2  and  C_3
REMARK    3  A    between atoms: N_9  and  C_12
REMARK    4  A    between atoms: C_12  and  C_13
REMARK    5  A    between atoms: C_13  and  C_14
REMARK    6  A    between atoms: N_21  and  C_22
REMARK    7  A    between atoms: C_22  and  C_23
REMARK                            x       y       z     vdW  Elec       q    Type
REMARK                         _______ _______ _______ _____ _____    ______ ____
ROOT
ATOM      1  C   UNL     1       0.848  -0.411  -1.489  0.00  0.00    +0.192 A 
ATOM      2  N   UNL     1       1.284   0.575  -2.267  0.00  0.00    -0.206 NA
ATOM      3  C   UNL     1       1.927   0.321  -3.400  0.00  0.00    +0.134 A 
ATOM      4  C   UNL     1       2.141  -1.023  -3.765  0.00  0.00    +0.078 A 
ATOM      5  C   UNL     1       2.763  -1.665  -4.858  0.00  0.00    +0.148 A 
ATOM      6  N   UNL     1       2.672  -2.953  -4.686  0.00  0.00    -0.177 NA
ATOM      7  N   UNL     1       1.996  -3.223  -3.489  0.00  0.00    -0.245 N 
ATOM      8  C   UNL     1       1.662  -2.034  -2.910  0.00  0.00    +0.164 A 
ATOM      9  N   UNL     1       1.032  -1.685  -1.790  0.00  0.00    -0.202 NA
ATOM     10  N   UNL     1       2.375   1.351  -4.202  0.00  0.00    -0.324 N 
ATOM     11  H   UNL     1       2.844   1.154  -5.029  0.00  0.00    +0.148 HD
ENDROOT
BRANCH   1  13
ATOM     12  C   UNL     1      -0.022   1.810   0.012  0.00  0.00    +0.093 C 
ATOM     13  S   UNL     1       0.002  -0.004   0.002  0.00  0.00    -0.089 S 
ENDBRANCH   1  13
BRANCH   7  14
ATOM     14  C   UNL     1       1.698  -4.553  -2.952  0.00  0.00    +0.165 C 
BRANCH  14  15
ATOM     15  C   UNL     1       2.850  -5.009  -2.053  0.00  0.00    +0.108 C 
ATOM     16 BR   UNL     1       2.965  -3.828  -0.485  0.00  0.00    -0.081 Br
BRANCH  15  17
ATOM     17  C   UNL     1       2.602  -6.424  -1.599  0.00  0.00    -0.032 A 
ATOM     18  C   UNL     1       1.521  -6.710  -0.787  0.00  0.00    +0.005 A 
ATOM     19  C   UNL     1       1.294  -8.009  -0.370  0.00  0.00    +0.000 A 
ATOM     20  C   UNL     1       2.148  -9.021  -0.766  0.00  0.00    +0.000 A 
ATOM     21  C   UNL     1       3.228  -8.735  -1.579  0.00  0.00    +0.000 A 
ATOM     22  C   UNL     1       3.453  -7.438  -2.000  0.00  0.00    +0.005 A 
ENDBRANCH  15  17
ENDBRANCH  14  15
ENDBRANCH   7  14
BRANCH  10  23
ATOM     23  C   UNL     1       2.143   2.743  -3.807  0.00  0.00    +0.138 C 
BRANCH  23  24
ATOM     24  C   UNL     1       2.727   3.665  -4.846  0.00  0.00    -0.030 A 
ATOM     25  C   UNL     1       4.038   4.089  -4.737  0.00  0.00    +0.005 A 
ATOM     26  C   UNL     1       4.573   4.935  -5.690  0.00  0.00    +0.000 A 
ATOM     27  C   UNL     1       3.797   5.356  -6.754  0.00  0.00    +0.000 A 
ATOM     28  C   UNL     1       2.486   4.931  -6.864  0.00  0.00    +0.000 A 
ATOM     29  C   UNL     1       1.952   4.082  -5.913  0.00  0.00    +0.005 A 
ENDBRANCH  23  24
ENDBRANCH  10  23
TORSDOF 6
