REMARK  Name = CHEMBL419914
REMARK  11 active torsions:
REMARK  status: ('A' for Active; 'I' for Inactive)
REMARK    1  A    between atoms: C_1  and  C_2
REMARK    2  A    between atoms: C_2  and  N_3
REMARK    3  A    between atoms: N_3  and  C_4
REMARK    4  A    between atoms: N_3  and  C_6
REMARK    5  A    between atoms: C_4  and  C_5
REMARK    6  A    between atoms: C_6  and  C_7
REMARK    7  A    between atoms: C_7  and  C_8
REMARK    8  A    between atoms: C_8  and  O_9
REMARK    9  A    between atoms: O_9  and  C_10
REMARK   10  A    between atoms: C_13  and  N_16
REMARK   11  A    between atoms: C_22  and  C_26
REMARK                            x       y       z     vdW  Elec       q    Type
REMARK                         _______ _______ _______ _____ _____    ______ ____
ROOT
ATOM      1  N   UNL     1       0.746  -9.277   5.028  0.00  0.00    -0.299 N 
ATOM      2  C   UNL     1       0.850 -10.308   4.105  0.00  0.00    +0.125 A 
ATOM      3  C   UNL     1       0.848 -11.623   4.551  0.00  0.00    +0.070 A 
ATOM      4  C   UNL     1       0.953 -12.648   3.619  0.00  0.00    +0.054 A 
ATOM      5  C   UNL     1       1.056 -12.303   2.253  0.00  0.00    +0.017 A 
ATOM      6  C   UNL     1       1.165 -13.320   1.275  0.00  0.00    +0.025 A 
ATOM      7  C   UNL     1       1.168 -14.629   1.673  0.00  0.00    +0.050 A 
ATOM      8  C   UNL     1       1.058 -14.952   3.098  0.00  0.00    +0.257 A 
ATOM      9  N   UNL     1       0.956 -13.967   4.011  0.00  0.00    -0.321 N 
ATOM     10  O   UNL     1       1.060 -16.116   3.458  0.00  0.00    -0.267 OA
ATOM     11  C   UNL     1       1.050 -10.951   1.891  0.00  0.00    +0.122 A 
ATOM     12  N   UNL     1       0.944 -10.018   2.812  0.00  0.00    -0.239 NA
ATOM     13  H   UNL     1       0.761  -9.472   5.978  0.00  0.00    +0.154 HD
ATOM     14  H   UNL     1       0.884 -14.189   4.952  0.00  0.00    +0.169 HD
ENDROOT
BRANCH   7  15
ATOM     15  C   UNL     1       1.280 -15.713   0.669  0.00  0.00    +0.024 A 
ATOM     16  C   UNL     1       0.131 -16.255   0.091  0.00  0.00    +0.050 A 
ATOM     17  C   UNL     1       0.243 -17.265  -0.844  0.00  0.00    +0.021 A 
ATOM     18  C   UNL     1       1.490 -17.740  -1.208  0.00  0.00    +0.003 A 
ATOM     19  C   UNL     1       2.633 -17.208  -0.638  0.00  0.00    +0.021 A 
ATOM     20  C   UNL     1       2.535 -16.194   0.294  0.00  0.00    +0.050 A 
ATOM     21 CL   UNL     1       3.971 -15.522   1.002  0.00  0.00    -0.083 Cl
ATOM     22 CL   UNL     1      -1.435 -15.660   0.547  0.00  0.00    -0.083 Cl
ENDBRANCH   7  15
BRANCH   1  26
ATOM     23  C   UNL     1       0.366  -5.338   3.717  0.00  0.00    +0.121 A 
ATOM     24  C   UNL     1      -0.208  -6.369   2.989  0.00  0.00    +0.047 A 
ATOM     25  C   UNL     1      -0.083  -7.674   3.422  0.00  0.00    +0.027 A 
ATOM     26  C   UNL     1       0.619  -7.954   4.587  0.00  0.00    +0.033 A 
ATOM     27  C   UNL     1       1.193  -6.921   5.316  0.00  0.00    +0.027 A 
ATOM     28  C   UNL     1       1.072  -5.617   4.878  0.00  0.00    +0.047 A 
BRANCH  23  29
ATOM     29  O   UNL     1       0.242  -4.053   3.289  0.00  0.00    -0.492 OA
BRANCH  29  30
ATOM     30  C   UNL     1      -0.498  -3.838   2.086  0.00  0.00    +0.227 C 
BRANCH  30  31
ATOM     31  C   UNL     1      -0.529  -2.342   1.766  0.00  0.00    +0.022 C 
BRANCH  31  32
ATOM     32  C   UNL     1      -1.321  -2.112   0.478  0.00  0.00    -0.076 C 
BRANCH  32  33
ATOM     33  N   UNL     1      -1.351  -0.676   0.171  0.00  0.00    +0.379 N 
ATOM     34  H   UNL     1      -1.716  -0.170   0.964  0.00  0.00    -0.082 HD
BRANCH  33  36
ATOM     35  C   UNL     1       0.002   1.310  -0.301  0.00  0.00    -0.017 C 
ATOM     36  C   UNL     1       0.011  -0.209  -0.121  0.00  0.00    -0.082 C 
ENDBRANCH  33  36
BRANCH  33  37
ATOM     37  C   UNL     1      -2.210  -0.442  -0.997  0.00  0.00    -0.082 C 
ATOM     38  C   UNL     1      -3.657  -0.794  -0.645  0.00  0.00    -0.017 C 
ENDBRANCH  33  37
ENDBRANCH  32  33
ENDBRANCH  31  32
ENDBRANCH  30  31
ENDBRANCH  29  30
ENDBRANCH  23  29
ENDBRANCH   1  26
TORSDOF 9
