REMARK  Name = CHEMBL166390
REMARK  6 active torsions:
REMARK  status: ('A' for Active; 'I' for Inactive)
REMARK    1  A    between atoms: C_1  and  C_2
REMARK    2  A    between atoms: C_5  and  N_8
REMARK    3  A    between atoms: N_10  and  C_19
REMARK    4  A    between atoms: C_19  and  C_20
REMARK    5  A    between atoms: C_19  and  C_21
REMARK    6  A    between atoms: C_19  and  C_22
REMARK                            x       y       z     vdW  Elec       q    Type
REMARK                         _______ _______ _______ _____ _____    ______ ____
ROOT
ATOM      1  N   UNL     1       0.116  -4.150   0.028  0.00  0.00    -0.270 N 
ATOM      2  C   UNL     1       0.210  -4.935   1.270  0.00  0.00    +0.222 C 
ATOM      3  N   UNL     1      -0.897  -5.908   1.327  0.00  0.00    -0.294 N 
ATOM      4  C   UNL     1      -1.224  -6.566   0.152  0.00  0.00    +0.129 A 
ATOM      5  C   UNL     1      -0.792  -6.086  -1.092  0.00  0.00    +0.072 A 
ATOM      6  C   UNL     1      -1.276  -6.953  -2.070  0.00  0.00    +0.147 A 
ATOM      7  N   UNL     1      -1.956  -7.898  -1.467  0.00  0.00    -0.180 NA
ATOM      8  N   UNL     1      -1.933  -7.672  -0.082  0.00  0.00    -0.263 N 
ATOM      9  H   UNL     1      -2.360  -8.226   0.591  0.00  0.00    +0.190 HD
ATOM     10  C   UNL     1       0.023  -4.859  -1.179  0.00  0.00    +0.110 C 
ATOM     11  N   UNL     1       0.607  -4.470  -2.281  0.00  0.00    -0.386 N 
ATOM     12  H   UNL     1       1.215  -3.714  -2.268  0.00  0.00    +0.157 HD
ATOM     13  H   UNL     1       0.433  -4.938  -3.113  0.00  0.00    +0.157 HD
ENDROOT
BRANCH   1  18
ATOM     14  C   UNL     1       0.103   1.521   0.121  0.00  0.00    +0.044 C 
ATOM     15  C   UNL     1       0.106   0.014   0.096  0.00  0.00    -0.050 A 
ATOM     16  C   UNL     1      -0.119  -0.657  -1.092  0.00  0.00    +0.005 A 
ATOM     17  C   UNL     1      -0.116  -2.038  -1.118  0.00  0.00    +0.024 A 
ATOM     18  C   UNL     1       0.113  -2.752   0.051  0.00  0.00    +0.037 A 
ATOM     19  C   UNL     1       0.340  -2.075   1.242  0.00  0.00    +0.024 A 
ATOM     20  C   UNL     1       0.340  -0.694   1.260  0.00  0.00    +0.005 A 
ENDBRANCH   1  18
BRANCH   3  21
ATOM     21  C   UNL     1      -1.621  -6.168   2.573  0.00  0.00    +0.029 C 
ATOM     22  C   UNL     1      -1.157  -5.182   3.647  0.00  0.00    +0.031 C 
ATOM     23  C   UNL     1      -3.122  -5.995   2.337  0.00  0.00    +0.031 C 
ATOM     24  C   UNL     1      -1.339  -7.598   3.038  0.00  0.00    +0.031 C 
ENDBRANCH   3  21
TORSDOF 2
