REMARK  Name = CHEMBL104807
REMARK  9 active torsions:
REMARK  status: ('A' for Active; 'I' for Inactive)
REMARK    1  A    between atoms: C_1  and  C_2
REMARK    2  A    between atoms: C_5  and  C_8
REMARK    3  A    between atoms: N_15  and  C_17
REMARK    4  A    between atoms: C_21  and  C_23
REMARK    5  A    between atoms: N_25  and  C_26
REMARK    6  A    between atoms: C_26  and  C_27
REMARK    7  A    between atoms: C_30  and  P_37
REMARK    8  A    between atoms: C_31  and  P_33
REMARK    9  A    between atoms: P_37  and  O_40
REMARK                            x       y       z     vdW  Elec       q    Type
REMARK                         _______ _______ _______ _____ _____    ______ ____
ROOT
ATOM      1  C   UNL     1       2.055  -7.295  -0.663  0.00  0.00    +0.064 C 
ATOM      2  C   UNL     1       1.688  -7.162  -1.945  0.00  0.00    +0.001 C 
ATOM      3  C   UNL     1       1.588  -8.373  -2.835  0.00  0.00    +0.034 C 
ATOM      4  C   UNL     1       2.671  -9.385  -2.466  0.00  0.00    +0.044 C 
ATOM      5  C   UNL     1       2.657  -9.634  -0.981  0.00  0.00    +0.017 C 
ATOM      6  C   UNL     1       2.369  -8.627  -0.131  0.00  0.00    +0.036 C 
ENDROOT
BRANCH   1  14
ATOM      7  C   UNL     1       2.052  -4.037   0.783  0.00  0.00    +0.105 A 
ATOM      8  C   UNL     1       2.471  -4.847   1.928  0.00  0.00    +0.086 A 
ATOM      9  C   UNL     1       2.809  -4.577   3.264  0.00  0.00    +0.131 A 
ATOM     10  N   UNL     1       3.154  -5.596   4.045  0.00  0.00    -0.220 NA
ATOM     11  C   UNL     1       3.179  -6.833   3.582  0.00  0.00    +0.225 A 
ATOM     12  N   UNL     1       2.870  -7.133   2.339  0.00  0.00    -0.216 NA
ATOM     13  C   UNL     1       2.512  -6.180   1.479  0.00  0.00    +0.169 A 
ATOM     14  N   UNL     1       2.144  -6.167   0.164  0.00  0.00    -0.214 N 
ATOM     15  N   UNL     1       1.867  -4.853  -0.228  0.00  0.00    -0.164 NA
ATOM     16  N   UNL     1       2.786  -3.286   3.754  0.00  0.00    -0.342 N 
ATOM     17  H   UNL     1       2.437  -2.566   3.206  0.00  0.00    +0.144 HD
ATOM     18  H   UNL     1       3.118  -3.099   4.646  0.00  0.00    +0.144 HD
BRANCH   7  23
ATOM     19  C   UNL     1       1.344   1.614   1.367  0.00  0.00    +0.012 C 
ATOM     20  C   UNL     1       1.348   0.094   1.545  0.00  0.00    +0.012 C 
ATOM     21  C   UNL     1       0.484  -0.546   0.460  0.00  0.00    +0.035 C 
ATOM     22  C   UNL     1       0.666  -2.041   0.474  0.00  0.00    -0.016 C 
ATOM     23  C   UNL     1       1.865  -2.567   0.770  0.00  0.00    -0.001 C 
ATOM     24  C   UNL     1       2.997  -1.670   1.084  0.00  0.00    +0.006 C 
ATOM     25  C   UNL     1       2.761  -0.416   1.447  0.00  0.00    -0.023 C 
ENDBRANCH   7  23
ENDBRANCH   1  14
BRANCH   5  26
ATOM     26  C   UNL     1       2.961 -10.968  -0.460  0.00  0.00    +0.240 C 
ATOM     27  O   UNL     1       2.950 -11.169   0.740  0.00  0.00    -0.271 OA
ATOM     28  N   UNL     1       3.254 -11.972  -1.310  0.00  0.00    -0.307 N 
ATOM     29  H   UNL     1       3.263 -11.811  -2.266  0.00  0.00    +0.149 HD
BRANCH  28  30
ATOM     30  C   UNL     1       3.558 -13.307  -0.789  0.00  0.00    +0.139 C 
BRANCH  30  31
ATOM     31  C   UNL     1       3.848 -14.240  -1.936  0.00  0.00    -0.029 A 
ATOM     32  C   UNL     1       2.820 -14.952  -2.525  0.00  0.00    +0.006 A 
ATOM     33  C   UNL     1       3.086 -15.808  -3.577  0.00  0.00    +0.017 A 
ATOM     34  C   UNL     1       4.380 -15.952  -4.041  0.00  0.00    +0.080 A 
ATOM     35  C   UNL     1       5.409 -15.239  -3.453  0.00  0.00    +0.083 A 
ATOM     36  C   UNL     1       5.142 -14.380  -2.403  0.00  0.00    +0.022 A 
BRANCH  35  37
ATOM     37  P   UNL     1       7.107 -15.429  -4.061  0.00  0.00    +0.417 P 
ATOM     38  O   UNL     1       7.134 -15.209  -5.611  0.00  0.00    -0.248 OA
ATOM     39  O   UNL     1       8.031 -14.371  -3.367  0.00  0.00    -0.135 OA
ATOM     40  O   UNL     1       7.623 -16.870  -3.728  0.00  0.00    -0.135 OA
ENDBRANCH  35  37
BRANCH  34  41
ATOM     41  P   UNL     1       4.730 -17.076  -5.421  0.00  0.00    +0.389 P 
ATOM     42  O   UNL     1       4.768 -16.274  -6.742  0.00  0.00    -0.251 OA
ATOM     43  O   UNL     1       6.096 -17.760  -5.195  0.00  0.00    -0.136 OA
BRANCH  41  44
ATOM     44  O   UNL     1       3.576 -18.196  -5.506  0.00  0.00    -0.319 OA
ATOM     45  H   UNL     1       3.699 -18.833  -6.224  0.00  0.00    +0.220 HD
ENDBRANCH  41  44
ENDBRANCH  34  41
ENDBRANCH  30  31
ENDBRANCH  28  30
ENDBRANCH   5  26
TORSDOF 8
