REMARK  Name = CHEMBL584054
REMARK  10 active torsions:
REMARK  status: ('A' for Active; 'I' for Inactive)
REMARK    1  A    between atoms: C_1  and  N_2
REMARK    2  A    between atoms: N_2  and  C_3
REMARK    3  A    between atoms: N_2  and  C_4
REMARK    4  A    between atoms: C_4  and  C_5
REMARK    5  A    between atoms: C_8  and  C_11
REMARK    6  A    between atoms: C_19  and  C_32
REMARK    7  A    between atoms: C_20  and  N_21
REMARK    8  A    between atoms: N_21  and  C_22
REMARK    9  A    between atoms: C_24  and  O_30
REMARK   10  A    between atoms: O_30  and  C_31
REMARK                            x       y       z     vdW  Elec       q    Type
REMARK                         _______ _______ _______ _____ _____    ______ ____
ROOT
ATOM      1  C   UNL     1      -4.485   0.446  -4.916  0.00  0.00    +0.002 A 
ATOM      2  C   UNL     1      -5.075   1.687  -5.196  0.00  0.00    +0.011 A 
ATOM      3  C   UNL     1      -5.361   2.046  -6.476  0.00  0.00    +0.012 A 
ATOM      4  C   UNL     1      -5.066   1.171  -7.532  0.00  0.00    +0.023 A 
ATOM      5  C   UNL     1      -4.469  -0.086  -7.265  0.00  0.00    +0.073 A 
ATOM      6  C   UNL     1      -4.178  -0.435  -5.938  0.00  0.00    +0.038 A 
ATOM      7  N   UNL     1      -4.184  -0.926  -8.270  0.00  0.00    -0.254 NA
ATOM      8  C   UNL     1      -4.440  -0.626  -9.518  0.00  0.00    +0.132 A 
ATOM      9  C   UNL     1      -5.029   0.597  -9.876  0.00  0.00    +0.091 A 
ATOM     10  C   UNL     1      -5.353   1.522  -8.872  0.00  0.00    +0.060 A 
ENDROOT
BRANCH   1  14
ATOM     11  C   UNL     1      -3.615  -0.632  -0.944  0.00  0.00    -0.015 A 
ATOM     12  C   UNL     1      -4.204   0.603  -1.176  0.00  0.00    +0.008 A 
ATOM     13  C   UNL     1      -4.492   0.962  -2.482  0.00  0.00    +0.029 A 
ATOM     14  C   UNL     1      -4.183   0.076  -3.512  0.00  0.00    +0.071 A 
ATOM     15  N   UNL     1      -3.620  -1.096  -3.247  0.00  0.00    -0.255 NA
ATOM     16  C   UNL     1      -3.330  -1.460  -2.014  0.00  0.00    +0.116 A 
BRANCH  11  17
ATOM     17  C   UNL     1      -3.284  -1.064   0.461  0.00  0.00    +0.120 C 
BRANCH  17  19
ATOM     18  C   UNL     1      -1.845   0.843   0.859  0.00  0.00    +0.104 C 
ATOM     19  N   UNL     1      -1.924  -0.623   0.801  0.00  0.00    -0.304 NA
ATOM     20  C   UNL     1      -1.476  -1.224   2.065  0.00  0.00    +0.104 C 
ENDBRANCH  17  19
ENDBRANCH  11  17
ENDBRANCH   1  14
BRANCH  10  21
ATOM     21  N   UNL     1      -5.934   2.735  -9.182  0.00  0.00    -0.312 N 
ATOM     22  H   UNL     1      -5.860   3.480  -8.565  0.00  0.00    +0.152 HD
BRANCH  21  23
ATOM     23  C   UNL     1      -6.630   2.890 -10.385  0.00  0.00    +0.053 A 
ATOM     24  C   UNL     1      -6.133   3.730 -11.372  0.00  0.00    +0.071 A 
ATOM     25  C   UNL     1      -6.826   3.881 -12.563  0.00  0.00    +0.140 A 
ATOM     26  C   UNL     1      -8.015   3.193 -12.766  0.00  0.00    +0.084 A 
ATOM     27  C   UNL     1      -8.509   2.357 -11.782  0.00  0.00    +0.045 A 
ATOM     28  C   UNL     1      -7.818   2.199 -10.595  0.00  0.00    +0.064 A 
ATOM     29 CL   UNL     1      -8.437   1.142  -9.365  0.00  0.00    -0.082 Cl
ATOM     30 CL   UNL     1      -8.882   3.384 -14.258  0.00  0.00    -0.080 Cl
BRANCH  25  31
ATOM     31  O   UNL     1      -6.341   4.704 -13.531  0.00  0.00    -0.494 OA
ATOM     32  C   UNL     1      -5.058   5.290 -13.302  0.00  0.00    +0.277 C 
ENDBRANCH  25  31
ENDBRANCH  21  23
ENDBRANCH  10  21
BRANCH   9  33
ATOM     33  C   UNL     1      -5.296   0.897 -11.250  0.00  0.00    +0.103 C 
ATOM     34  N   UNL     1      -5.508   1.135 -12.341  0.00  0.00    -0.191 NA
ENDBRANCH   9  33
TORSDOF 7
