REMARK  Name = CHEMBL27085
REMARK  3 active torsions:
REMARK  status: ('A' for Active; 'I' for Inactive)
REMARK    1  A    between atoms: C_1  and  C_2
REMARK    2  A    between atoms: C_3  and  C_26
REMARK    3  A    between atoms: N_16  and  C_17
REMARK                            x       y       z     vdW  Elec       q    Type
REMARK                         _______ _______ _______ _____ _____    ______ ____
ROOT
ATOM      1  C   UNL     1       5.176   0.766   1.526  0.00  0.00    +0.046 C 
ATOM      2  C   UNL     1       4.632  -0.621   1.298  0.00  0.00    -0.024 A 
ATOM      3  C   UNL     1       4.922  -1.285   0.168  0.00  0.00    +0.019 A 
ATOM      4  N   UNL     1       4.452  -2.543  -0.080  0.00  0.00    -0.326 N 
ATOM      5  C   UNL     1       3.664  -3.201   0.793  0.00  0.00    +0.259 A 
ATOM      6  C   UNL     1       3.295  -2.556   2.051  0.00  0.00    +0.074 A 
ATOM      7  C   UNL     1       3.787  -1.257   2.311  0.00  0.00    -0.006 A 
ATOM      8  C   UNL     1       3.458  -0.612   3.506  0.00  0.00    +0.011 A 
ATOM      9  C   UNL     1       2.666  -1.235   4.429  0.00  0.00    +0.028 A 
ATOM     10  C   UNL     1       2.175  -2.516   4.199  0.00  0.00    +0.068 A 
ATOM     11  C   UNL     1       2.474  -3.190   3.005  0.00  0.00    +0.104 A 
ATOM     12  N   UNL     1       1.867  -4.392   3.060  0.00  0.00    -0.214 NA
ATOM     13  C   UNL     1       1.204  -4.504   4.186  0.00  0.00    +0.198 A 
ATOM     14  N   UNL     1       1.370  -3.374   4.933  0.00  0.00    -0.326 N 
ATOM     15  H   UNL     1       0.988  -3.199   5.806  0.00  0.00    +0.169 HD
ATOM     16  N   UNL     1       0.468  -5.606   4.568  0.00  0.00    -0.283 N 
ATOM     17  O   UNL     1       3.263  -4.322   0.536  0.00  0.00    -0.267 OA
ATOM     18  C   UNL     1       5.798  -0.620  -0.862  0.00  0.00    +0.063 C 
ATOM     19  H   UNL     1      -0.059  -5.579   5.382  0.00  0.00    +0.155 HD
ATOM     20  H   UNL     1       4.692  -2.977  -0.914  0.00  0.00    +0.169 HD
ENDROOT
BRANCH  16  21
ATOM     21  C   UNL     1       0.480  -6.762   3.780  0.00  0.00    +0.071 A 
ATOM     22  C   UNL     1       0.035  -6.714   2.465  0.00  0.00    +0.064 A 
ATOM     23  C   UNL     1       0.049  -7.859   1.690  0.00  0.00    +0.022 A 
ATOM     24  C   UNL     1       0.506  -9.050   2.222  0.00  0.00    +0.003 A 
ATOM     25  C   UNL     1       0.950  -9.102   3.531  0.00  0.00    +0.022 A 
ATOM     26  C   UNL     1       0.943  -7.960   4.310  0.00  0.00    +0.064 A 
ATOM     27 CL   UNL     1       1.507  -8.025   5.951  0.00  0.00    -0.082 Cl
ATOM     28 CL   UNL     1      -0.539  -5.219   1.796  0.00  0.00    -0.082 Cl
ENDBRANCH  16  21
TORSDOF 1
