REMARK  Name = CHEMBL104779
REMARK  3 active torsions:
REMARK  status: ('A' for Active; 'I' for Inactive)
REMARK    1  A    between atoms: C_1  and  N_2
REMARK    2  A    between atoms: C_6  and  C_9
REMARK    3  A    between atoms: N_21  and  C_22
REMARK                            x       y       z     vdW  Elec       q    Type
REMARK                         _______ _______ _______ _____ _____    ______ ____
ROOT
ATOM      1  C   UNL     1      -0.040   1.396   0.653  0.00  0.00    +0.154 C 
ATOM      2  N   UNL     1      -0.011  -0.042   0.374  0.00  0.00    -0.295 N 
ATOM      3  C   UNL     1      -1.186  -0.715   0.154  0.00  0.00    +0.148 A 
ATOM      4  C   UNL     1      -1.176  -2.100  -0.116  0.00  0.00    +0.037 A 
ATOM      5  C   UNL     1       0.048  -2.806  -0.163  0.00  0.00    +0.027 A 
ATOM      6  C   UNL     1       1.216  -2.127   0.058  0.00  0.00    +0.050 A 
ATOM      7  C   UNL     1       1.170  -0.688   0.330  0.00  0.00    +0.260 A 
ATOM      8  O   UNL     1       2.204  -0.074   0.522  0.00  0.00    -0.267 OA
ATOM      9  C   UNL     1      -2.399  -2.750  -0.336  0.00  0.00    +0.126 A 
ATOM     10  N   UNL     1      -3.511  -2.040  -0.281  0.00  0.00    -0.222 NA
ATOM     11  C   UNL     1      -3.482  -0.738  -0.023  0.00  0.00    +0.221 A 
ATOM     12  N   UNL     1      -2.353  -0.081   0.190  0.00  0.00    -0.196 NA
ATOM     13  N   UNL     1      -4.676  -0.042   0.022  0.00  0.00    -0.283 N 
ATOM     14  H   UNL     1      -4.672   0.922   0.127  0.00  0.00    +0.155 HD
ENDROOT
BRANCH   6  15
ATOM     15  C   UNL     1       2.514  -2.838   0.016  0.00  0.00    +0.024 A 
ATOM     16  C   UNL     1       3.038  -3.411   1.176  0.00  0.00    +0.050 A 
ATOM     17  C   UNL     1       4.249  -4.073   1.129  0.00  0.00    +0.021 A 
ATOM     18  C   UNL     1       4.943  -4.169  -0.063  0.00  0.00    +0.003 A 
ATOM     19  C   UNL     1       4.431  -3.603  -1.216  0.00  0.00    +0.021 A 
ATOM     20  C   UNL     1       3.217  -2.943  -1.185  0.00  0.00    +0.050 A 
ATOM     21 CL   UNL     1       2.572  -2.241  -2.636  0.00  0.00    -0.083 Cl
ATOM     22 CL   UNL     1       2.168  -3.291   2.673  0.00  0.00    -0.083 Cl
ENDBRANCH   6  15
BRANCH  13  23
ATOM     23  C   UNL     1      -5.886  -0.726  -0.082  0.00  0.00    +0.036 A 
ATOM     24  C   UNL     1      -6.051  -1.981   0.504  0.00  0.00    +0.041 A 
ATOM     25  C   UNL     1      -7.264  -2.625   0.379  0.00  0.00    +0.084 A 
ATOM     26  N   UNL     1      -8.259  -2.069  -0.286  0.00  0.00    -0.367 N 
ATOM     27  C   UNL     1      -8.143  -0.884  -0.855  0.00  0.00    +0.084 A 
ATOM     28  C   UNL     1      -6.965  -0.172  -0.769  0.00  0.00    +0.041 A 
ATOM     29  H   UNL     1      -9.101  -2.546  -0.359  0.00  0.00    +0.165 HD
ENDBRANCH  13  23
TORSDOF 2
