REMARK  Name = CHEMBL510893
REMARK  8 active torsions:
REMARK  status: ('A' for Active; 'I' for Inactive)
REMARK    1  A    between atoms: C_1  and  C_2
REMARK    2  A    between atoms: C_7  and  C_8
REMARK    3  A    between atoms: C_9  and  N_10
REMARK    4  A    between atoms: C_18  and  N_19
REMARK    5  A    between atoms: N_19  and  C_20
REMARK    6  A    between atoms: C_23  and  P_26
REMARK    7  A    between atoms: P_26  and  C_28
REMARK    8  A    between atoms: P_26  and  C_29
REMARK                            x       y       z     vdW  Elec       q    Type
REMARK                         _______ _______ _______ _____ _____    ______ ____
ROOT
ATOM      1  N   UNL     1       0.591   2.087   3.709  0.00  0.00    -0.290 N 
ATOM      2  C   UNL     1      -0.303   1.937   4.732  0.00  0.00    +0.206 A 
ATOM      3  N   UNL     1       0.068   2.654   5.754  0.00  0.00    -0.230 NA
ATOM      4  C   UNL     1       1.216   3.308   5.456  0.00  0.00    +0.148 A 
ATOM      5  C   UNL     1       1.570   2.950   4.144  0.00  0.00    +0.169 A 
ATOM      6  N   UNL     1       2.675   3.459   3.611  0.00  0.00    -0.216 NA
ATOM      7  C   UNL     1       3.433   4.286   4.300  0.00  0.00    +0.225 A 
ATOM      8  N   UNL     1       3.143   4.649   5.536  0.00  0.00    -0.218 NA
ATOM      9  C   UNL     1       2.054   4.198   6.149  0.00  0.00    +0.154 A 
ENDROOT
BRANCH   1  11
ATOM     10  C   UNL     1      -0.491   0.656   2.173  0.00  0.00    +0.027 C 
ATOM     11  C   UNL     1       0.525   1.478   2.463  0.00  0.00    +0.095 C 
BRANCH  10  18
ATOM     12  C   UNL     1      -0.202   2.241  -0.209  0.00  0.00    +0.044 C 
ATOM     13  C   UNL     1      -0.424   0.754  -0.307  0.00  0.00    -0.043 A 
ATOM     14  C   UNL     1      -0.483   0.154  -1.561  0.00  0.00    +0.006 A 
ATOM     15  C   UNL     1      -0.679  -1.178  -1.727  0.00  0.00    +0.030 A 
ATOM     16  C   UNL     1      -0.835  -2.026  -0.609  0.00  0.00    +0.093 A 
ATOM     17  C   UNL     1      -0.781  -1.435   0.737  0.00  0.00    +0.027 A 
ATOM     18  C   UNL     1      -0.561   0.010   0.853  0.00  0.00    -0.010 A 
ATOM     19  C   UNL     1      -0.959  -2.468   1.628  0.00  0.00    +0.114 A 
ATOM     20  N   UNL     1      -1.111  -3.599   0.924  0.00  0.00    -0.284 N 
ATOM     21  N   UNL     1      -1.035  -3.321  -0.446  0.00  0.00    -0.174 NA
ATOM     22  H   UNL     1      -1.254  -4.479   1.306  0.00  0.00    +0.188 HD
ENDBRANCH  10  18
ENDBRANCH   1  11
BRANCH   9  23
ATOM     23  N   UNL     1       1.760   4.583   7.446  0.00  0.00    -0.298 N 
ATOM     24  H   UNL     1       1.016   4.175   7.916  0.00  0.00    +0.154 HD
BRANCH  23  25
ATOM     25  C   UNL     1       2.534   5.560   8.078  0.00  0.00    +0.032 A 
ATOM     26  C   UNL     1       3.079   6.602   7.338  0.00  0.00    +0.024 A 
ATOM     27  C   UNL     1       3.844   7.566   7.965  0.00  0.00    +0.013 A 
ATOM     28  C   UNL     1       4.068   7.494   9.328  0.00  0.00    +0.011 A 
ATOM     29  C   UNL     1       3.528   6.458  10.067  0.00  0.00    +0.013 A 
ATOM     30  C   UNL     1       2.756   5.495   9.447  0.00  0.00    +0.024 A 
BRANCH  28  31
ATOM     31  P   UNL     1       5.074   8.762  10.147  0.00  0.00    +0.111 P 
ATOM     32  O   UNL     1       4.935  10.046   9.424  0.00  0.00    -0.317 OA
ATOM     33  C   UNL     1       4.508   8.968  11.868  0.00  0.00    +0.085 C 
ATOM     34  C   UNL     1       6.823   8.248  10.140  0.00  0.00    +0.085 C 
ENDBRANCH  28  31
ENDBRANCH  23  25
ENDBRANCH   9  23
TORSDOF 5
