REMARK  Name = CHEMBL1083001
REMARK  9 active torsions:
REMARK  status: ('A' for Active; 'I' for Inactive)
REMARK    1  A    between atoms: C_1  and  N_2
REMARK    2  A    between atoms: N_5  and  C_8
REMARK    3  A    between atoms: C_11  and  C_14
REMARK    4  A    between atoms: C_21  and  C_24
REMARK    5  A    between atoms: C_22  and  N_23
REMARK    6  A    between atoms: C_27  and  N_30
REMARK    7  A    between atoms: C_31  and  C_33
REMARK    8  A    between atoms: C_33  and  C_34
REMARK    9  A    between atoms: C_34  and  C_35
REMARK                            x       y       z     vdW  Elec       q    Type
REMARK                         _______ _______ _______ _____ _____    ______ ____
ROOT
ATOM      1  C   UNL     1      -2.337  -6.749   4.222  0.00  0.00    +0.046 A 
ATOM      2  C   UNL     1      -3.632  -6.839   4.747  0.00  0.00    +0.145 A 
ATOM      3  N   UNL     1      -3.778  -8.013   5.312  0.00  0.00    -0.171 NA
ATOM      4  N   UNL     1      -2.589  -8.738   5.182  0.00  0.00    -0.200 N 
ATOM      5  C   UNL     1      -1.691  -7.959   4.500  0.00  0.00    +0.165 A 
ATOM      6  N   UNL     1      -0.460  -8.406   4.225  0.00  0.00    -0.235 NA
ATOM      7  C   UNL     1      -0.069  -9.604   4.594  0.00  0.00    +0.125 A 
ATOM      8  C   UNL     1      -0.947 -10.450   5.294  0.00  0.00    +0.040 A 
ATOM      9  C   UNL     1      -2.226  -9.993   5.592  0.00  0.00    +0.129 A 
ENDROOT
BRANCH   1  13
ATOM     10  C   UNL     1      -0.682  -3.421   2.154  0.00  0.00    +0.030 A 
ATOM     11  C   UNL     1      -1.922  -3.924   1.778  0.00  0.00    +0.024 A 
ATOM     12  C   UNL     1      -2.461  -5.003   2.447  0.00  0.00    +0.010 A 
ATOM     13  C   UNL     1      -1.760  -5.589   3.501  0.00  0.00    -0.013 A 
ATOM     14  C   UNL     1      -0.516  -5.082   3.876  0.00  0.00    +0.010 A 
ATOM     15  C   UNL     1       0.020  -4.006   3.200  0.00  0.00    +0.024 A 
BRANCH  10  20
ATOM     16  C   UNL     1       0.277   1.786   0.823  0.00  0.00    -0.096 C 
ATOM     17  N   UNL     1       0.386   0.322   0.754  0.00  0.00    +0.380 N 
ATOM     18  C   UNL     1      -0.935  -0.253   0.472  0.00  0.00    -0.060 C 
ATOM     19  C   UNL     1      -0.803  -1.768   0.287  0.00  0.00    +0.086 C 
ATOM     20  N   UNL     1      -0.139  -2.327   1.475  0.00  0.00    -0.333 N 
ATOM     21  C   UNL     1       1.114  -1.702   1.927  0.00  0.00    +0.086 C 
ATOM     22  C   UNL     1       0.891  -0.190   2.035  0.00  0.00    -0.060 C 
ATOM     23  H   UNL     1       1.026   0.068   0.016  0.00  0.00    -0.082 HD
ENDBRANCH  10  20
ENDBRANCH   1  13
BRANCH   8  24
ATOM     24  C   UNL     1      -0.513 -11.804   5.714  0.00  0.00    -0.013 A 
ATOM     25  C   UNL     1      -0.412 -12.116   7.070  0.00  0.00    +0.010 A 
ATOM     26  C   UNL     1      -0.008 -13.376   7.458  0.00  0.00    +0.024 A 
ATOM     27  C   UNL     1       0.298 -14.335   6.500  0.00  0.00    +0.033 A 
ATOM     28  C   UNL     1       0.198 -14.027   5.149  0.00  0.00    +0.024 A 
ATOM     29  C   UNL     1      -0.211 -12.770   4.755  0.00  0.00    +0.010 A 
BRANCH  27  30
ATOM     30  N   UNL     1       0.707 -15.612   6.897  0.00  0.00    -0.285 N 
ATOM     31  C   UNL     1       0.335 -16.692   6.182  0.00  0.00    +0.217 C 
ATOM     32  O   UNL     1      -0.286 -16.551   5.149  0.00  0.00    -0.275 OA
ATOM     33  H   UNL     1       1.260 -15.721   7.687  0.00  0.00    +0.155 HD
BRANCH  31  34
ATOM     34  C   UNL     1       0.689 -18.075   6.665  0.00  0.00    +0.096 C 
BRANCH  34  35
ATOM     35  C   UNL     1       0.152 -19.113   5.677  0.00  0.00    +0.013 C 
BRANCH  35  36
ATOM     36  C   UNL     1       0.512 -20.517   6.168  0.00  0.00    -0.011 C 
ATOM     37  C   UNL     1      -0.310 -20.877   7.430  0.00  0.00    +0.003 C 
ATOM     38  C   UNL     1      -0.300 -22.426   7.414  0.00  0.00    +0.000 C 
ATOM     39  C   UNL     1      -0.424 -22.790   5.920  0.00  0.00    +0.000 C 
ATOM     40  C   UNL     1       0.092 -21.576   5.128  0.00  0.00    +0.003 C 
ENDBRANCH  35  36
ENDBRANCH  34  35
ENDBRANCH  31  34
ENDBRANCH  27  30
ENDBRANCH   8  24
BRANCH   9  41
ATOM     41  N   UNL     1      -3.115 -10.792   6.274  0.00  0.00    -0.343 N 
ATOM     42  H   UNL     1      -4.008 -10.468   6.468  0.00  0.00    +0.144 HD
ATOM     43  H   UNL     1      -2.848 -11.680   6.560  0.00  0.00    +0.144 HD
ENDBRANCH   9  41
TORSDOF 8
