REMARK  Name = CHEMBL486370
REMARK  8 active torsions:
REMARK  status: ('A' for Active; 'I' for Inactive)
REMARK    1  A    between atoms: C_1  and  C_2
REMARK    2  A    between atoms: C_7  and  O_8
REMARK    3  A    between atoms: O_8  and  C_9
REMARK    4  A    between atoms: C_9  and  C_10
REMARK    5  A    between atoms: C_10  and  N_11
REMARK    6  A    between atoms: C_19  and  C_32
REMARK    7  A    between atoms: C_20  and  N_21
REMARK    8  A    between atoms: N_21  and  C_22
REMARK                            x       y       z     vdW  Elec       q    Type
REMARK                         _______ _______ _______ _____ _____    ______ ____
ROOT
ATOM      1  C   UNL     1      -4.113  -1.964  -1.324  0.00  0.00    +0.047 C 
ATOM      2  C   UNL     1      -2.787  -2.598  -0.992  0.00  0.00    -0.008 A 
ATOM      3  C   UNL     1      -1.770  -2.543  -1.895  0.00  0.00    +0.018 A 
ATOM      4  C   UNL     1      -0.534  -3.132  -1.590  0.00  0.00    +0.023 A 
ATOM      5  C   UNL     1      -0.348  -3.781  -0.345  0.00  0.00    +0.076 A 
ATOM      6  C   UNL     1      -1.413  -3.823   0.567  0.00  0.00    +0.074 A 
ATOM      7  C   UNL     1      -2.614  -3.230   0.242  0.00  0.00    +0.125 A 
ATOM      8  N   UNL     1       0.831  -4.345  -0.046  0.00  0.00    -0.253 NA
ATOM      9  C   UNL     1       1.842  -4.321  -0.877  0.00  0.00    +0.132 A 
ATOM     10  C   UNL     1       1.748  -3.700  -2.132  0.00  0.00    +0.091 A 
ATOM     11  C   UNL     1       0.541  -3.090  -2.509  0.00  0.00    +0.060 A 
ENDROOT
BRANCH  11  12
ATOM     12  N   UNL     1       0.408  -2.470  -3.733  0.00  0.00    -0.313 N 
ATOM     13  H   UNL     1       0.629  -1.530  -3.828  0.00  0.00    +0.152 HD
BRANCH  12  14
ATOM     14  C   UNL     1      -0.048  -3.196  -4.840  0.00  0.00    +0.033 A 
ATOM     15  C   UNL     1      -0.470  -4.515  -4.692  0.00  0.00    +0.025 A 
ATOM     16  C   UNL     1      -0.916  -5.242  -5.751  0.00  0.00    +0.031 A 
ATOM     17  C   UNL     1      -0.969  -4.681  -7.048  0.00  0.00    +0.080 A 
ATOM     18  C   UNL     1      -0.536  -3.341  -7.169  0.00  0.00    +0.043 A 
ATOM     19  C   UNL     1      -0.091  -2.608  -6.098  0.00  0.00    +0.040 A 
ATOM     20  S   UNL     1      -0.755  -3.027  -8.903  0.00  0.00    -0.053 S 
ATOM     21  C   UNL     1      -1.388  -4.638  -9.347  0.00  0.00    +0.157 A 
ATOM     22  N   UNL     1      -1.385  -5.267  -8.194  0.00  0.00    -0.225 NA
ATOM     23  N   UNL     1      -1.780  -5.104 -10.586  0.00  0.00    -0.337 N 
ATOM     24  H   UNL     1      -1.728  -4.523 -11.361  0.00  0.00    +0.144 HD
ATOM     25  H   UNL     1      -2.107  -6.012 -10.681  0.00  0.00    +0.144 HD
ENDBRANCH  12  14
ENDBRANCH  11  12
BRANCH  10  26
ATOM     26  C   UNL     1       2.871  -3.689  -3.020  0.00  0.00    +0.103 C 
ATOM     27  N   UNL     1       3.763  -3.680  -3.724  0.00  0.00    -0.191 NA
ENDBRANCH  10  26
BRANCH   7  28
ATOM     28  O   UNL     1      -3.642  -3.267   1.128  0.00  0.00    -0.493 OA
BRANCH  28  29
ATOM     29  C   UNL     1      -3.403  -3.928   2.372  0.00  0.00    +0.210 C 
BRANCH  29  30
ATOM     30  C   UNL     1      -4.667  -3.867   3.233  0.00  0.00    -0.037 C 
BRANCH  30  31
ATOM     31  N   UNL     1      -5.751  -4.597   2.563  0.00  0.00    +0.382 N 
ATOM     32  C   UNL     1      -7.001  -4.407   3.310  0.00  0.00    -0.079 C 
ATOM     33  C   UNL     1      -8.150  -5.099   2.573  0.00  0.00    -0.019 C 
ATOM     34  C   UNL     1      -7.846  -6.595   2.455  0.00  0.00    -0.004 C 
ATOM     35  C   UNL     1      -6.504  -6.779   1.740  0.00  0.00    -0.019 C 
ATOM     36  C   UNL     1      -5.416  -6.025   2.508  0.00  0.00    -0.079 C 
ATOM     37  H   UNL     1      -5.865  -4.243   1.625  0.00  0.00    -0.082 HD
ENDBRANCH  30  31
ENDBRANCH  29  30
ENDBRANCH  28  29
ENDBRANCH   7  28
TORSDOF 7
