REMARK  Name = CHEMBL128241
REMARK  12 active torsions:
REMARK  status: ('A' for Active; 'I' for Inactive)
REMARK    1  A    between atoms: C_1  and  O_2
REMARK    2  A    between atoms: O_2  and  C_3
REMARK    3  A    between atoms: C_8  and  O_9
REMARK    4  A    between atoms: O_9  and  C_10
REMARK    5  A    between atoms: C_10  and  C_11
REMARK    6  A    between atoms: C_11  and  C_12
REMARK    7  A    between atoms: C_12  and  N_13
REMARK    8  A    between atoms: C_19  and  N_25
REMARK    9  A    between atoms: C_20  and  C_23
REMARK   10  A    between atoms: N_25  and  C_26
REMARK   11  A    between atoms: C_28  and  O_34
REMARK   12  A    between atoms: O_34  and  C_35
REMARK                            x       y       z     vdW  Elec       q    Type
REMARK                         _______ _______ _______ _____ _____    ______ ____
ROOT
ATOM      1  C   UNL     1      -0.571  -0.353   5.606  0.00  0.00    +0.164 A 
ATOM      2  C   UNL     1       0.486   0.329   5.047  0.00  0.00    +0.077 A 
ATOM      3  C   UNL     1       1.597  -0.380   4.567  0.00  0.00    +0.077 A 
ATOM      4  C   UNL     1       1.611  -1.792   4.668  0.00  0.00    +0.026 A 
ATOM      5  C   UNL     1       0.521  -2.463   5.242  0.00  0.00    +0.061 A 
ATOM      6  C   UNL     1      -0.547  -1.751   5.707  0.00  0.00    +0.163 A 
ATOM      7  C   UNL     1       2.732  -2.505   4.183  0.00  0.00    +0.060 A 
ATOM      8  C   UNL     1       3.785  -1.766   3.622  0.00  0.00    +0.091 A 
ATOM      9  C   UNL     1       3.686  -0.366   3.563  0.00  0.00    +0.132 A 
ATOM     10  N   UNL     1       2.636   0.268   4.020  0.00  0.00    -0.253 NA
ENDROOT
BRANCH   1  12
ATOM     11  C   UNL     1      -1.610   1.759   5.938  0.00  0.00    +0.277 C 
ATOM     12  O   UNL     1      -1.645   0.336   6.070  0.00  0.00    -0.491 OA
ENDBRANCH   1  12
BRANCH   8  13
ATOM     13  C   UNL     1       4.947  -2.431   3.115  0.00  0.00    +0.103 C 
ATOM     14  N   UNL     1       5.869  -2.959   2.713  0.00  0.00    -0.191 NA
ENDBRANCH   8  13
BRANCH   7  15
ATOM     15  N   UNL     1       2.790  -3.882   4.261  0.00  0.00    -0.312 N 
ATOM     16  H   UNL     1       2.546  -4.421   3.492  0.00  0.00    +0.152 HD
BRANCH  15  17
ATOM     17  C   UNL     1       3.201  -4.499   5.446  0.00  0.00    +0.053 A 
ATOM     18  C   UNL     1       3.436  -3.736   6.582  0.00  0.00    +0.071 A 
ATOM     19  C   UNL     1       3.843  -4.350   7.755  0.00  0.00    +0.140 A 
ATOM     20  C   UNL     1       4.014  -5.728   7.793  0.00  0.00    +0.084 A 
ATOM     21  C   UNL     1       3.780  -6.487   6.662  0.00  0.00    +0.045 A 
ATOM     22  C   UNL     1       3.368  -5.878   5.491  0.00  0.00    +0.064 A 
ATOM     23 CL   UNL     1       3.067  -6.835   4.074  0.00  0.00    -0.082 Cl
ATOM     24 CL   UNL     1       4.525  -6.497   9.263  0.00  0.00    -0.080 Cl
BRANCH  19  25
ATOM     25  O   UNL     1       4.074  -3.605   8.868  0.00  0.00    -0.494 OA
ATOM     26  C   UNL     1       3.764  -2.212   8.792  0.00  0.00    +0.277 C 
ENDBRANCH  19  25
ENDBRANCH  15  17
ENDBRANCH   7  15
BRANCH   6  27
ATOM     27  O   UNL     1      -1.599  -2.404   6.268  0.00  0.00    -0.488 OA
BRANCH  27  28
ATOM     28  C   UNL     1      -1.515  -3.828   6.342  0.00  0.00    +0.227 C 
BRANCH  28  29
ATOM     29  C   UNL     1      -2.781  -4.381   6.998  0.00  0.00    +0.022 C 
BRANCH  29  30
ATOM     30  C   UNL     1      -2.691  -5.907   7.077  0.00  0.00    -0.075 C 
BRANCH  30  31
ATOM     31  N   UNL     1      -3.907  -6.438   7.707  0.00  0.00    +0.383 N 
ATOM     32  C   UNL     1      -3.975  -5.981   9.102  0.00  0.00    -0.050 C 
ATOM     33  C   UNL     1      -5.243  -6.535   9.756  0.00  0.00    +0.141 C 
ATOM     34  O   UNL     1      -5.232  -7.963   9.671  0.00  0.00    -0.383 OA
ATOM     35  C   UNL     1      -5.142  -8.457   8.332  0.00  0.00    +0.141 C 
ATOM     36  C   UNL     1      -3.874  -7.906   7.675  0.00  0.00    -0.050 C 
ATOM     37  H   UNL     1      -4.717  -6.108   7.205  0.00  0.00    -0.082 HD
ENDBRANCH  30  31
ENDBRANCH  29  30
ENDBRANCH  28  29
ENDBRANCH  27  28
ENDBRANCH   6  27
TORSDOF 10
