REMARK  Name = CHEMBL302483
REMARK  4 active torsions:
REMARK  status: ('A' for Active; 'I' for Inactive)
REMARK    1  A    between atoms: C_3  and  O_19
REMARK    2  A    between atoms: C_4  and  O_18
REMARK    3  A    between atoms: C_9  and  O_17
REMARK    4  A    between atoms: C_10  and  O_16
REMARK                            x       y       z     vdW  Elec       q    Type
REMARK                         _______ _______ _______ _____ _____    ______ ____
ROOT
ATOM      1  C   UNL     1      -0.017   1.385   0.010  0.00  0.00    +0.013 A 
ATOM      2  C   UNL     1       1.172   2.089   0.002  0.00  0.00    +0.050 A 
ATOM      3  C   UNL     1       2.389   1.422  -0.013  0.00  0.00    +0.159 A 
ATOM      4  C   UNL     1       2.431   0.032  -0.021  0.00  0.00    +0.171 A 
ATOM      5  C   UNL     1       1.235  -0.692  -0.014  0.00  0.00    +0.092 A 
ATOM      6  C   UNL     1       0.002  -0.004   0.002  0.00  0.00    +0.000 A 
ATOM      7  C   UNL     1      -1.243  -0.795   0.009  0.00  0.00    +0.010 A 
ATOM      8  C   UNL     1      -2.487  -0.165   0.024  0.00  0.00    +0.059 A 
ATOM      9  C   UNL     1      -3.641  -0.922   0.030  0.00  0.00    +0.159 A 
ATOM     10  C   UNL     1      -3.563  -2.315   0.021  0.00  0.00    +0.160 A 
ATOM     11  C   UNL     1      -2.333  -2.947   0.007  0.00  0.00    +0.075 A 
ATOM     12  C   UNL     1      -1.163  -2.196   0.000  0.00  0.00    +0.053 A 
ATOM     13  N   UNL     1       0.068  -2.837  -0.015  0.00  0.00    -0.321 N 
ATOM     14  C   UNL     1       1.229  -2.159  -0.022  0.00  0.00    +0.261 A 
ATOM     15  O   UNL     1       2.284  -2.768  -0.036  0.00  0.00    -0.267 OA
ATOM     16  H   UNL     1       0.091  -3.806  -0.021  0.00  0.00    +0.169 HD
ENDROOT
BRANCH  10  17
ATOM     17  O   UNL     1      -4.703  -3.056   0.027  0.00  0.00    -0.503 OA
ATOM     18  H   UNL     1      -5.041  -3.265  -0.855  0.00  0.00    +0.292 HD
ENDBRANCH  10  17
BRANCH   9  19
ATOM     19  O   UNL     1      -4.856  -0.310   0.044  0.00  0.00    -0.503 OA
ATOM     20  H   UNL     1      -5.215  -0.127  -0.835  0.00  0.00    +0.292 HD
ENDBRANCH   9  19
BRANCH   4  21
ATOM     21  O   UNL     1       3.623  -0.616  -0.037  0.00  0.00    -0.503 OA
ATOM     22  H   UNL     1       3.978  -0.809   0.842  0.00  0.00    +0.292 HD
ENDBRANCH   4  21
BRANCH   3  23
ATOM     23  O   UNL     1       3.548   2.133  -0.020  0.00  0.00    -0.503 OA
ATOM     24  H   UNL     1       3.892   2.333   0.861  0.00  0.00    +0.292 HD
ENDBRANCH   3  23
TORSDOF 4
