REMARK  Name = CHEMBL436486
REMARK  13 active torsions:
REMARK  status: ('A' for Active; 'I' for Inactive)
REMARK    1  A    between atoms: C_1  and  C_2
REMARK    2  A    between atoms: C_5  and  N_10
REMARK    3  A    between atoms: C_7  and  O_8
REMARK    4  A    between atoms: O_8  and  C_9
REMARK    5  A    between atoms: N_10  and  C_11
REMARK    6  A    between atoms: C_16  and  O_37
REMARK    7  A    between atoms: C_17  and  O_27
REMARK    8  A    between atoms: C_24  and  C_25
REMARK    9  A    between atoms: O_27  and  C_28
REMARK   10  A    between atoms: C_28  and  C_29
REMARK   11  A    between atoms: C_29  and  N_30
REMARK   12  A    between atoms: C_33  and  O_36
REMARK   13  A    between atoms: O_37  and  C_38
REMARK                            x       y       z     vdW  Elec       q    Type
REMARK                         _______ _______ _______ _____ _____    ______ ____
ROOT
ATOM      1  C   UNL     1       0.447  -5.302   1.693  0.00  0.00    +0.060 A 
ATOM      2  C   UNL     1       0.608  -6.712   1.638  0.00  0.00    +0.023 A 
ATOM      3  C   UNL     1       0.823  -7.360   0.426  0.00  0.00    +0.020 A 
ATOM      4  C   UNL     1       0.978  -8.746   0.406  0.00  0.00    -0.013 A 
ATOM      5  C   UNL     1       1.197  -9.436  -0.805  0.00  0.00    +0.058 A 
ATOM      6  C   UNL     1       1.345 -10.789  -0.791  0.00  0.00    +0.162 A 
ATOM      7  C   UNL     1       1.284 -11.521   0.406  0.00  0.00    +0.162 A 
ATOM      8  C   UNL     1       1.074 -10.911   1.605  0.00  0.00    +0.058 A 
ATOM      9  C   UNL     1       0.914  -9.511   1.656  0.00  0.00    -0.012 A 
ATOM     10  C   UNL     1       0.698  -8.855   2.869  0.00  0.00    +0.037 A 
ATOM     11  C   UNL     1       0.543  -7.472   2.889  0.00  0.00    +0.073 A 
ATOM     12  N   UNL     1       0.335  -6.823   4.049  0.00  0.00    -0.254 NA
ATOM     13  C   UNL     1       0.187  -5.527   4.098  0.00  0.00    +0.132 A 
ATOM     14  C   UNL     1       0.240  -4.719   2.950  0.00  0.00    +0.091 A 
ENDROOT
BRANCH   1  15
ATOM     15  N   UNL     1       0.497  -4.533   0.551  0.00  0.00    -0.312 N 
ATOM     16  H   UNL     1       0.307  -4.933  -0.312  0.00  0.00    +0.152 HD
BRANCH  15  21
ATOM     17  C   UNL     1       1.828   0.974   0.894  0.00  0.00    +0.047 C 
ATOM     18  C   UNL     1       1.474  -0.488   0.803  0.00  0.00    -0.007 A 
ATOM     19  C   UNL     1       2.434  -1.448   1.060  0.00  0.00    +0.028 A 
ATOM     20  C   UNL     1       2.114  -2.789   0.977  0.00  0.00    +0.063 A 
ATOM     21  C   UNL     1       0.823  -3.176   0.635  0.00  0.00    +0.053 A 
ATOM     22  C   UNL     1      -0.142  -2.213   0.377  0.00  0.00    +0.070 A 
ATOM     23  C   UNL     1       0.182  -0.868   0.466  0.00  0.00    +0.125 A 
ATOM     24 CL   UNL     1       3.323  -3.992   1.300  0.00  0.00    -0.082 Cl
BRANCH  23  25
ATOM     25  O   UNL     1      -0.762   0.077   0.220  0.00  0.00    -0.495 OA
ATOM     26  C   UNL     1      -2.094  -0.383  -0.017  0.00  0.00    +0.277 C 
ENDBRANCH  23  25
ENDBRANCH  15  21
ENDBRANCH   1  15
BRANCH  14  27
ATOM     27  C   UNL     1       0.078  -3.300   3.064  0.00  0.00    +0.103 C 
ATOM     28  N   UNL     1      -0.051  -2.175   3.155  0.00  0.00    -0.191 NA
ENDBRANCH  14  27
BRANCH   6  29
ATOM     29  O   UNL     1       1.556 -11.446  -1.962  0.00  0.00    -0.491 OA
ATOM     30  C   UNL     1       1.609 -10.654  -3.150  0.00  0.00    +0.277 C 
ENDBRANCH   6  29
BRANCH   7  31
ATOM     31  O   UNL     1       1.437 -12.871   0.366  0.00  0.00    -0.490 OA
BRANCH  31  32
ATOM     32  C   UNL     1       1.366 -13.568   1.611  0.00  0.00    +0.211 C 
BRANCH  32  33
ATOM     33  C   UNL     1       1.560 -15.066   1.368  0.00  0.00    -0.037 C 
BRANCH  33  34
ATOM     34  N   UNL     1       2.916 -15.309   0.857  0.00  0.00    +0.382 N 
ATOM     35  C   UNL     1       3.045 -16.717   0.466  0.00  0.00    -0.076 C 
ATOM     36  C   UNL     1       4.429 -16.956  -0.142  0.00  0.00    +0.013 C 
ATOM     37  C   UNL     1       5.502 -16.612   0.894  0.00  0.00    +0.111 C 
ATOM     38  C   UNL     1       5.311 -15.163   1.351  0.00  0.00    +0.013 C 
ATOM     39  C   UNL     1       3.895 -14.990   1.903  0.00  0.00    -0.076 C 
ATOM     40  H   UNL     1       3.081 -14.721   0.054  0.00  0.00    -0.082 HD
BRANCH  37  41
ATOM     41  O   UNL     1       6.797 -16.763   0.309  0.00  0.00    -0.392 OA
ATOM     42  H   UNL     1       7.527 -16.561   0.911  0.00  0.00    +0.210 HD
ENDBRANCH  37  41
ENDBRANCH  33  34
ENDBRANCH  32  33
ENDBRANCH  31  32
ENDBRANCH   7  31
TORSDOF 10
