REMARK  Name = CHEMBL171373
REMARK  8 active torsions:
REMARK  status: ('A' for Active; 'I' for Inactive)
REMARK    1  A    between atoms: C_1  and  O_2
REMARK    2  A    between atoms: O_2  and  C_3
REMARK    3  A    between atoms: C_8  and  O_9
REMARK    4  A    between atoms: O_9  and  C_10
REMARK    5  A    between atoms: C_10  and  C_11
REMARK    6  A    between atoms: C_11  and  C_12
REMARK    7  A    between atoms: C_12  and  N_13
REMARK    8  A    between atoms: N_23  and  C_24
REMARK                            x       y       z     vdW  Elec       q    Type
REMARK                         _______ _______ _______ _____ _____    ______ ____
ROOT
ATOM      1  C   UNL     1      -1.231  -0.570   0.755  0.00  0.00    +0.162 A 
ATOM      2  C   UNL     1      -2.372   0.144   0.521  0.00  0.00    +0.062 A 
ATOM      3  C   UNL     1      -3.609  -0.512   0.502  0.00  0.00    +0.044 A 
ATOM      4  C   UNL     1      -3.670  -1.910   0.726  0.00  0.00    +0.080 A 
ATOM      5  C   UNL     1      -2.488  -2.622   0.965  0.00  0.00    +0.078 A 
ATOM      6  C   UNL     1      -1.284  -1.954   0.972  0.00  0.00    +0.164 A 
ATOM      7  N   UNL     1      -4.868  -2.515   0.703  0.00  0.00    -0.235 NA
ATOM      8  C   UNL     1      -5.959  -1.822   0.476  0.00  0.00    +0.223 A 
ATOM      9  N   UNL     1      -5.950  -0.516   0.262  0.00  0.00    -0.220 NA
ATOM     10  C   UNL     1      -4.820   0.179   0.264  0.00  0.00    +0.134 A 
ATOM     11  N   UNL     1      -4.826   1.541   0.039  0.00  0.00    -0.296 N 
ATOM     12  H   UNL     1      -3.988   2.021  -0.052  0.00  0.00    +0.154 HD
ENDROOT
BRANCH  11  13
ATOM     13  C   UNL     1      -6.042   2.229  -0.057  0.00  0.00    +0.075 A 
ATOM     14  C   UNL     1      -7.179   1.711   0.541  0.00  0.00    +0.027 A 
ATOM     15  C   UNL     1      -8.383   2.385   0.449  0.00  0.00    +0.002 A 
ATOM     16  C   UNL     1      -8.451   3.579  -0.246  0.00  0.00    +0.007 A 
ATOM     17  C   UNL     1      -7.323   4.098  -0.844  0.00  0.00    -0.001 A 
ATOM     18  C   UNL     1      -6.104   3.441  -0.752  0.00  0.00    +0.145 A 
ATOM     19  O   UNL     1      -5.120   4.136  -1.387  0.00  0.00    -0.490 OA
ATOM     20  C   UNL     1      -5.715   5.069  -2.305  0.00  0.00    +0.234 C 
ATOM     21  C   UNL     1      -7.091   5.352  -1.664  0.00  0.00    +0.080 C 
ENDBRANCH  11  13
BRANCH   1  23
ATOM     22  C   UNL     1      -0.043   1.480   0.545  0.00  0.00    +0.277 C 
ATOM     23  O   UNL     1      -0.031   0.069   0.773  0.00  0.00    -0.491 OA
ENDBRANCH   1  23
BRANCH   6  24
ATOM     24  O   UNL     1      -0.135  -2.642   1.197  0.00  0.00    -0.488 OA
BRANCH  24  25
ATOM     25  C   UNL     1      -0.253  -4.050   1.411  0.00  0.00    +0.230 C 
BRANCH  25  26
ATOM     26  C   UNL     1       1.135  -4.649   1.646  0.00  0.00    +0.056 C 
BRANCH  26  27
ATOM     27  C   UNL     1       1.008  -6.157   1.875  0.00  0.00    +0.088 C 
BRANCH  27  28
ATOM     28  N   UNL     1       2.340  -6.732   2.101  0.00  0.00    -0.298 NA
ATOM     29  C   UNL     1       3.167  -6.637   0.889  0.00  0.00    +0.112 C 
ATOM     30  C   UNL     1       4.563  -7.192   1.185  0.00  0.00    +0.175 C 
ATOM     31  O   UNL     1       4.445  -8.537   1.657  0.00  0.00    -0.377 OA
ATOM     32  C   UNL     1       3.647  -8.666   2.837  0.00  0.00    +0.175 C 
ATOM     33  C   UNL     1       2.242  -8.126   2.557  0.00  0.00    +0.112 C 
ENDBRANCH  27  28
ENDBRANCH  26  27
ENDBRANCH  25  26
ENDBRANCH  24  25
ENDBRANCH   6  24
TORSDOF 7
