REMARK  Name = CHEMBL389422
REMARK  8 active torsions:
REMARK  status: ('A' for Active; 'I' for Inactive)
REMARK    1  A    between atoms: C_1  and  C_2
REMARK    2  A    between atoms: C_6  and  C_33
REMARK    3  A    between atoms: C_7  and  N_8
REMARK    4  A    between atoms: C_15  and  C_18
REMARK    5  A    between atoms: C_22  and  O_24
REMARK    6  A    between atoms: O_24  and  C_25
REMARK    7  A    between atoms: C_25  and  C_26
REMARK    8  A    between atoms: N_30  and  C_32
REMARK                            x       y       z     vdW  Elec       q    Type
REMARK                         _______ _______ _______ _____ _____    ______ ____
ROOT
ATOM      1  N   UNL     1       0.347  -0.776   2.601  0.00  0.00    -0.297 N 
ATOM      2  C   UNL     1       0.144  -1.589   3.702  0.00  0.00    +0.149 A 
ATOM      3  C   UNL     1       0.033  -1.023   4.993  0.00  0.00    +0.106 A 
ATOM      4  C   UNL     1       0.079   0.258   5.493  0.00  0.00    +0.142 A 
ATOM      5  N   UNL     1      -0.090   0.178   6.814  0.00  0.00    -0.243 NA
ATOM      6  C   UNL     1      -0.238  -1.076   7.168  0.00  0.00    +0.204 A 
ATOM      7  N   UNL     1      -0.170  -1.857   6.078  0.00  0.00    -0.294 N 
ATOM      8  C   UNL     1      -0.257  -3.222   5.860  0.00  0.00    +0.073 A 
ATOM      9  C   UNL     1      -0.142  -3.708   4.595  0.00  0.00    +0.139 A 
ATOM     10  N   UNL     1       0.047  -2.898   3.551  0.00  0.00    -0.236 NA
ATOM     11  H   UNL     1       0.340   0.189   2.703  0.00  0.00    +0.154 HD
ENDROOT
BRANCH   1  18
ATOM     12  C   UNL     1       2.956  -0.603   1.479  0.00  0.00    +0.045 C 
ATOM     13  C   UNL     1       1.821  -1.283   0.757  0.00  0.00    -0.029 A 
ATOM     14  C   UNL     1       2.031  -1.850  -0.484  0.00  0.00    +0.005 A 
ATOM     15  C   UNL     1       0.990  -2.474  -1.146  0.00  0.00    +0.001 A 
ATOM     16  C   UNL     1      -0.265  -2.533  -0.569  0.00  0.00    +0.005 A 
ATOM     17  C   UNL     1      -0.483  -1.967   0.672  0.00  0.00    -0.029 A 
ATOM     18  C   UNL     1       0.562  -1.344   1.343  0.00  0.00    +0.038 A 
ATOM     19  C   UNL     1      -1.851  -2.030   1.300  0.00  0.00    +0.045 C 
ENDBRANCH   1  18
BRANCH   8  20
ATOM     20  C   UNL     1      -0.473  -4.143   6.994  0.00  0.00    +0.004 A 
ATOM     21  C   UNL     1      -1.667  -4.098   7.717  0.00  0.00    +0.010 A 
ATOM     22  C   UNL     1      -1.865  -4.960   8.775  0.00  0.00    +0.004 A 
ATOM     23  C   UNL     1      -0.884  -5.871   9.124  0.00  0.00    +0.045 A 
ATOM     24  C   UNL     1       0.307  -5.924   8.411  0.00  0.00    +0.121 A 
ATOM     25  C   UNL     1       0.514  -5.067   7.343  0.00  0.00    +0.055 A 
BRANCH  24  26
ATOM     26  O   UNL     1       1.267  -6.821   8.758  0.00  0.00    -0.492 OA
BRANCH  26  27
ATOM     27  C   UNL     1       0.984  -7.678   9.866  0.00  0.00    +0.230 C 
BRANCH  27  28
ATOM     28  C   UNL     1       2.172  -8.612  10.105  0.00  0.00    +0.010 C 
ATOM     29  C   UNL     1       3.390  -7.790  10.536  0.00  0.00    +0.003 C 
ATOM     30  C   UNL     1       4.550  -8.740  10.848  0.00  0.00    -0.018 C 
ATOM     31  C   UNL     1       4.111  -9.735  11.924  0.00  0.00    -0.079 C 
ATOM     32  N   UNL     1       2.961 -10.508  11.441  0.00  0.00    +0.378 N 
ATOM     33  C   UNL     1       1.821  -9.612  11.208  0.00  0.00    -0.072 C 
ATOM     34  C   UNL     1       2.593 -11.515  12.446  0.00  0.00    -0.096 C 
ATOM     35  H   UNL     1       3.205 -10.971  10.579  0.00  0.00    -0.082 HD
ENDBRANCH  27  28
ENDBRANCH  26  27
ENDBRANCH  24  26
ENDBRANCH   8  20
TORSDOF 5
