REMARK  Name = CHEMBL124333
REMARK  12 active torsions:
REMARK  status: ('A' for Active; 'I' for Inactive)
REMARK    1  A    between atoms: C_1  and  O_2
REMARK    2  A    between atoms: O_2  and  C_3
REMARK    3  A    between atoms: C_3  and  C_4
REMARK    4  A    between atoms: C_4  and  O_5
REMARK    5  A    between atoms: O_5  and  C_6
REMARK    6  A    between atoms: C_11  and  O_12
REMARK    7  A    between atoms: O_12  and  C_13
REMARK    8  A    between atoms: C_14  and  N_20
REMARK    9  A    between atoms: C_15  and  C_18
REMARK   10  A    between atoms: N_20  and  C_21
REMARK   11  A    between atoms: C_23  and  O_29
REMARK   12  A    between atoms: O_29  and  C_30
REMARK                            x       y       z     vdW  Elec       q    Type
REMARK                         _______ _______ _______ _____ _____    ______ ____
ROOT
ATOM      1  C   UNL     1       0.109  -6.712   2.556  0.00  0.00    +0.164 A 
ATOM      2  C   UNL     1       0.852  -6.643   1.399  0.00  0.00    +0.077 A 
ATOM      3  C   UNL     1       0.302  -7.095   0.191  0.00  0.00    +0.077 A 
ATOM      4  C   UNL     1      -1.014  -7.618   0.184  0.00  0.00    +0.026 A 
ATOM      5  C   UNL     1      -1.750  -7.678   1.377  0.00  0.00    +0.061 A 
ATOM      6  C   UNL     1      -1.191  -7.236   2.542  0.00  0.00    +0.162 A 
ATOM      7  C   UNL     1      -1.565  -8.074  -1.036  0.00  0.00    +0.060 A 
ATOM      8  C   UNL     1      -0.770  -7.983  -2.188  0.00  0.00    +0.091 A 
ATOM      9  C   UNL     1       0.525  -7.450  -2.089  0.00  0.00    +0.132 A 
ATOM     10  N   UNL     1       1.011  -7.036  -0.947  0.00  0.00    -0.253 NA
ENDROOT
BRANCH   6  11
ATOM     11  O   UNL     1      -1.905  -7.300   3.697  0.00  0.00    -0.491 OA
ATOM     12  C   UNL     1      -3.224  -7.844   3.616  0.00  0.00    +0.277 C 
ENDBRANCH   6  11
BRANCH   8  13
ATOM     13  C   UNL     1      -1.274  -8.429  -3.452  0.00  0.00    +0.103 C 
ATOM     14  N   UNL     1      -1.674  -8.783  -4.455  0.00  0.00    -0.191 NA
ENDBRANCH   8  13
BRANCH   7  15
ATOM     15  N   UNL     1      -2.844  -8.591  -1.091  0.00  0.00    -0.312 N 
ATOM     16  H   UNL     1      -3.585  -8.027  -1.363  0.00  0.00    +0.152 HD
BRANCH  15  17
ATOM     17  C   UNL     1      -3.072  -9.930  -0.756  0.00  0.00    +0.053 A 
ATOM     18  C   UNL     1      -2.036 -10.706  -0.253  0.00  0.00    +0.071 A 
ATOM     19  C   UNL     1      -2.265 -12.032   0.078  0.00  0.00    +0.140 A 
ATOM     20  C   UNL     1      -3.529 -12.581  -0.092  0.00  0.00    +0.084 A 
ATOM     21  C   UNL     1      -4.560 -11.807  -0.592  0.00  0.00    +0.045 A 
ATOM     22  C   UNL     1      -4.337 -10.483  -0.919  0.00  0.00    +0.064 A 
ATOM     23 CL   UNL     1      -5.635  -9.511  -1.540  0.00  0.00    -0.082 Cl
ATOM     24 CL   UNL     1      -3.815 -14.242   0.323  0.00  0.00    -0.080 Cl
BRANCH  19  25
ATOM     25  O   UNL     1      -1.252 -12.794   0.570  0.00  0.00    -0.494 OA
ATOM     26  C   UNL     1      -0.012 -12.134   0.833  0.00  0.00    +0.277 C 
ENDBRANCH  19  25
ENDBRANCH  15  17
ENDBRANCH   7  15
BRANCH   1  27
ATOM     27  O   UNL     1       0.643  -6.273   3.725  0.00  0.00    -0.486 OA
BRANCH  27  28
ATOM     28  C   UNL     1       1.972  -5.749   3.675  0.00  0.00    +0.257 C 
BRANCH  28  29
ATOM     29  C   UNL     1       2.400  -5.309   5.076  0.00  0.00    +0.200 C 
BRANCH  29  31
ATOM     30  C   UNL     1       2.868  -6.146   7.273  0.00  0.00    +0.194 C 
ATOM     31  O   UNL     1       2.475  -6.450   5.933  0.00  0.00    -0.380 OA
ENDBRANCH  29  31
ENDBRANCH  28  29
ENDBRANCH  27  28
ENDBRANCH   1  27
TORSDOF 9
