REMARK  Name = CHEMBL1087978
REMARK  13 active torsions:
REMARK  status: ('A' for Active; 'I' for Inactive)
REMARK    1  A    between atoms: C_1  and  C_2
REMARK    2  A    between atoms: C_2  and  N_3
REMARK    3  A    between atoms: N_6  and  C_9
REMARK    4  A    between atoms: C_9  and  C_10
REMARK    5  A    between atoms: C_10  and  C_11
REMARK    6  A    between atoms: C_12  and  C_13
REMARK    7  A    between atoms: C_18  and  O_19
REMARK    8  A    between atoms: O_19  and  C_20
REMARK    9  A    between atoms: C_21  and  N_27
REMARK   10  A    between atoms: C_22  and  C_25
REMARK   11  A    between atoms: N_27  and  C_28
REMARK   12  A    between atoms: C_30  and  O_36
REMARK   13  A    between atoms: O_36  and  C_37
REMARK                            x       y       z     vdW  Elec       q    Type
REMARK                         _______ _______ _______ _____ _____    ______ ____
ROOT
ATOM      1  C   UNL     1     -11.970  -3.737  -0.042  0.00  0.00    +0.018 A 
ATOM      2  C   UNL     1     -11.478  -4.167   1.180  0.00  0.00    +0.040 A 
ATOM      3  C   UNL     1     -11.424  -5.539   1.463  0.00  0.00    +0.074 A 
ATOM      4  C   UNL     1     -11.874  -6.464   0.490  0.00  0.00    +0.026 A 
ATOM      5  C   UNL     1     -12.368  -6.007  -0.740  0.00  0.00    +0.058 A 
ATOM      6  C   UNL     1     -12.419  -4.668  -0.999  0.00  0.00    +0.128 A 
ATOM      7  C   UNL     1     -11.817  -7.848   0.781  0.00  0.00    +0.060 A 
ATOM      8  C   UNL     1     -11.311  -8.233   2.032  0.00  0.00    +0.091 A 
ATOM      9  C   UNL     1     -10.887  -7.246   2.936  0.00  0.00    +0.132 A 
ATOM     10  N   UNL     1     -10.951  -5.973   2.641  0.00  0.00    -0.254 NA
ENDROOT
BRANCH   1  12
ATOM     11  C   UNL     1     -11.606  -1.411   0.556  0.00  0.00    -0.025 C 
ATOM     12  C   UNL     1     -12.028  -2.292  -0.341  0.00  0.00    +0.007 C 
BRANCH  11  13
ATOM     13  C   UNL     1     -11.665   0.063   0.251  0.00  0.00    +0.042 C 
BRANCH  13  14
ATOM     14  C   UNL     1     -12.449   0.780   1.351  0.00  0.00    +0.088 C 
BRANCH  14  18
ATOM     15  N   UNL     1     -13.848   4.712   0.673  0.00  0.00    +0.381 N 
ATOM     16  C   UNL     1     -13.030   4.466   1.869  0.00  0.00    -0.063 C 
ATOM     17  C   UNL     1     -13.042   2.971   2.197  0.00  0.00    +0.066 C 
ATOM     18  N   UNL     1     -12.508   2.218   1.054  0.00  0.00    -0.306 NA
ATOM     19  C   UNL     1     -13.301   2.473  -0.157  0.00  0.00    +0.066 C 
ATOM     20  C   UNL     1     -13.287   3.972  -0.465  0.00  0.00    -0.063 C 
ATOM     21  H   UNL     1     -14.793   4.402   0.843  0.00  0.00    -0.082 HD
BRANCH  15  23
ATOM     22  C   UNL     1     -14.547   6.908   1.501  0.00  0.00    -0.017 C 
ATOM     23  C   UNL     1     -13.851   6.149   0.370  0.00  0.00    -0.082 C 
ENDBRANCH  15  23
ENDBRANCH  14  18
ENDBRANCH  13  14
ENDBRANCH  11  13
ENDBRANCH   1  12
BRANCH   6  24
ATOM     24  O   UNL     1     -12.903  -4.230  -2.191  0.00  0.00    -0.495 OA
ATOM     25  C   UNL     1     -13.343  -5.224  -3.118  0.00  0.00    +0.277 C 
ENDBRANCH   6  24
BRANCH   8  26
ATOM     26  C   UNL     1     -11.229  -9.619   2.383  0.00  0.00    +0.103 C 
ATOM     27  N   UNL     1     -11.165 -10.719   2.662  0.00  0.00    -0.191 NA
ENDBRANCH   8  26
BRANCH   7  28
ATOM     28  N   UNL     1     -12.244  -8.788  -0.135  0.00  0.00    -0.312 N 
ATOM     29  H   UNL     1     -11.602  -9.232  -0.710  0.00  0.00    +0.152 HD
BRANCH  28  30
ATOM     30  C   UNL     1     -13.604  -9.099  -0.234  0.00  0.00    +0.053 A 
ATOM     31  C   UNL     1     -14.537  -8.383   0.503  0.00  0.00    +0.071 A 
ATOM     32  C   UNL     1     -15.883  -8.694   0.403  0.00  0.00    +0.140 A 
ATOM     33  C   UNL     1     -16.297  -9.722  -0.434  0.00  0.00    +0.084 A 
ATOM     34  C   UNL     1     -15.367 -10.435  -1.168  0.00  0.00    +0.045 A 
ATOM     35  C   UNL     1     -14.024 -10.123  -1.075  0.00  0.00    +0.064 A 
ATOM     36 CL   UNL     1     -12.859 -11.016  -2.003  0.00  0.00    -0.082 Cl
ATOM     37 CL   UNL     1     -17.984 -10.112  -0.559  0.00  0.00    -0.080 Cl
BRANCH  32  38
ATOM     38  O   UNL     1     -16.798  -7.994   1.124  0.00  0.00    -0.494 OA
ATOM     39  C   UNL     1     -16.317  -6.875   1.872  0.00  0.00    +0.277 C 
ENDBRANCH  32  38
ENDBRANCH  28  30
ENDBRANCH   7  28
TORSDOF 10
