REMARK  Name = CHEMBL193392
REMARK  9 active torsions:
REMARK  status: ('A' for Active; 'I' for Inactive)
REMARK    1  A    between atoms: C_1  and  N_2
REMARK    2  A    between atoms: N_5  and  C_8
REMARK    3  A    between atoms: C_8  and  C_9
REMARK    4  A    between atoms: C_13  and  C_15
REMARK    5  A    between atoms: C_20  and  N_26
REMARK    6  A    between atoms: C_21  and  C_24
REMARK    7  A    between atoms: N_26  and  C_27
REMARK    8  A    between atoms: C_29  and  O_35
REMARK    9  A    between atoms: O_35  and  C_36
REMARK                            x       y       z     vdW  Elec       q    Type
REMARK                         _______ _______ _______ _____ _____    ______ ____
ROOT
ATOM      1  C   UNL     1      -1.912  -2.587   9.468  0.00  0.00    +0.022 A 
ATOM      2  C   UNL     1      -1.436  -3.852   9.613  0.00  0.00    +0.044 A 
ATOM      3  C   UNL     1      -2.259  -4.952   9.317  0.00  0.00    +0.080 A 
ATOM      4  C   UNL     1      -3.561  -4.629   8.876  0.00  0.00    +0.060 A 
ATOM      5  S   UNL     1      -3.582  -2.855   8.900  0.00  0.00    -0.085 S 
ATOM      6  C   UNL     1      -4.486  -5.604   8.547  0.00  0.00    +0.066 A 
ATOM      7  C   UNL     1      -4.089  -6.954   8.664  0.00  0.00    +0.092 A 
ATOM      8  C   UNL     1      -2.786  -7.220   9.106  0.00  0.00    +0.132 A 
ATOM      9  N   UNL     1      -1.946  -6.268   9.406  0.00  0.00    -0.253 NA
ENDROOT
BRANCH   1  14
ATOM     10  C   UNL     1      -1.191   1.095   9.651  0.00  0.00    -0.033 A 
ATOM     11  C   UNL     1       0.079   1.093  10.200  0.00  0.00    +0.005 A 
ATOM     12  C   UNL     1       0.704  -0.101  10.511  0.00  0.00    +0.001 A 
ATOM     13  C   UNL     1       0.062  -1.300  10.275  0.00  0.00    +0.009 A 
ATOM     14  C   UNL     1      -1.219  -1.306   9.723  0.00  0.00    -0.011 A 
ATOM     15  C   UNL     1      -1.845  -0.097   9.416  0.00  0.00    +0.014 A 
BRANCH  10  16
ATOM     16  C   UNL     1      -1.864   2.401   9.316  0.00  0.00    +0.119 C 
BRANCH  16  21
ATOM     17  C   UNL     1      -4.181   5.227  13.604  0.00  0.00    -0.096 C 
ATOM     18  N   UNL     1      -3.394   4.805  12.437  0.00  0.00    +0.379 N 
ATOM     19  C   UNL     1      -4.302   4.433  11.344  0.00  0.00    -0.064 C 
ATOM     20  C   UNL     1      -3.483   4.011  10.122  0.00  0.00    +0.066 C 
ATOM     21  N   UNL     1      -2.626   2.872  10.480  0.00  0.00    -0.302 NA
ATOM     22  C   UNL     1      -1.729   3.222  11.590  0.00  0.00    +0.066 C 
ATOM     23  C   UNL     1      -2.562   3.650  12.800  0.00  0.00    -0.064 C 
ATOM     24  H   UNL     1      -2.802   5.566  12.138  0.00  0.00    -0.082 HD
ENDBRANCH  16  21
ENDBRANCH  10  16
ENDBRANCH   1  14
BRANCH   7  25
ATOM     25  C   UNL     1      -4.991  -8.018   8.342  0.00  0.00    +0.103 C 
ATOM     26  N   UNL     1      -5.706  -8.863   8.086  0.00  0.00    -0.191 NA
ENDBRANCH   7  25
BRANCH   6  27
ATOM     27  N   UNL     1      -5.760  -5.267   8.117  0.00  0.00    -0.311 N 
ATOM     28  H   UNL     1      -6.459  -5.085   8.764  0.00  0.00    +0.152 HD
BRANCH  27  29
ATOM     29  C   UNL     1      -6.038  -5.187   6.748  0.00  0.00    +0.054 A 
ATOM     30  C   UNL     1      -5.074  -5.558   5.821  0.00  0.00    +0.071 A 
ATOM     31  C   UNL     1      -5.352  -5.479   4.466  0.00  0.00    +0.140 A 
ATOM     32  C   UNL     1      -6.594  -5.028   4.038  0.00  0.00    +0.084 A 
ATOM     33  C   UNL     1      -7.554  -4.659   4.963  0.00  0.00    +0.045 A 
ATOM     34  C   UNL     1      -7.282  -4.743   6.315  0.00  0.00    +0.064 A 
ATOM     35 CL   UNL     1      -8.491  -4.286   7.474  0.00  0.00    -0.082 Cl
ATOM     36 CL   UNL     1      -6.942  -4.928   2.340  0.00  0.00    -0.080 Cl
BRANCH  31  37
ATOM     37  O   UNL     1      -4.410  -5.840   3.556  0.00  0.00    -0.494 OA
ATOM     38  C   UNL     1      -3.142  -6.260   4.066  0.00  0.00    +0.277 C 
ENDBRANCH  31  37
ENDBRANCH  27  29
ENDBRANCH   6  27
TORSDOF 7
