REMARK  Name = CHEMBL100825
REMARK  10 active torsions:
REMARK  status: ('A' for Active; 'I' for Inactive)
REMARK    1  A    between atoms: C_1  and  C_2
REMARK    2  A    between atoms: C_2  and  N_3
REMARK    3  A    between atoms: N_6  and  C_9
REMARK    4  A    between atoms: C_9  and  C_10
REMARK    5  A    between atoms: C_13  and  C_16
REMARK    6  A    between atoms: C_24  and  C_37
REMARK    7  A    between atoms: C_25  and  N_26
REMARK    8  A    between atoms: N_26  and  C_27
REMARK    9  A    between atoms: C_29  and  O_35
REMARK   10  A    between atoms: O_35  and  C_36
REMARK                            x       y       z     vdW  Elec       q    Type
REMARK                         _______ _______ _______ _____ _____    ______ ____
ROOT
ATOM      1  C   UNL     1      -5.560  -8.487   1.289  0.00  0.00    -0.016 A 
ATOM      2  C   UNL     1      -5.388  -9.276   0.141  0.00  0.00    +0.009 A 
ATOM      3  C   UNL     1      -5.085 -10.598   0.247  0.00  0.00    +0.012 A 
ATOM      4  C   UNL     1      -4.941 -11.184   1.513  0.00  0.00    +0.023 A 
ATOM      5  C   UNL     1      -5.111 -10.401   2.681  0.00  0.00    +0.073 A 
ATOM      6  C   UNL     1      -5.418  -9.039   2.550  0.00  0.00    +0.037 A 
ATOM      7  N   UNL     1      -4.974 -10.956   3.893  0.00  0.00    -0.254 NA
ATOM      8  C   UNL     1      -4.682 -12.222   4.047  0.00  0.00    +0.132 A 
ATOM      9  C   UNL     1      -4.495 -13.074   2.947  0.00  0.00    +0.091 A 
ATOM     10  C   UNL     1      -4.625 -12.557   1.649  0.00  0.00    +0.060 A 
ENDROOT
BRANCH   1  14
ATOM     11  C   UNL     1      -6.506  -4.362   0.887  0.00  0.00    -0.033 A 
ATOM     12  C   UNL     1      -6.341  -5.144  -0.242  0.00  0.00    +0.005 A 
ATOM     13  C   UNL     1      -6.034  -6.484  -0.118  0.00  0.00    +0.009 A 
ATOM     14  C   UNL     1      -5.890  -7.048   1.148  0.00  0.00    -0.018 A 
ATOM     15  C   UNL     1      -6.057  -6.255   2.282  0.00  0.00    +0.009 A 
ATOM     16  C   UNL     1      -6.359  -4.915   2.146  0.00  0.00    +0.005 A 
BRANCH  11  17
ATOM     17  C   UNL     1      -6.841  -2.899   0.744  0.00  0.00    +0.119 C 
BRANCH  17  21
ATOM     18  N   UNL     1      -3.835  -0.194  -0.486  0.00  0.00    +0.381 N 
ATOM     19  C   UNL     1      -4.559   0.097   0.759  0.00  0.00    -0.063 C 
ATOM     20  C   UNL     1      -5.879  -0.677   0.775  0.00  0.00    +0.066 C 
ATOM     21  N   UNL     1      -5.600  -2.117   0.675  0.00  0.00    -0.302 NA
ATOM     22  C   UNL     1      -4.854  -2.421  -0.554  0.00  0.00    +0.066 C 
ATOM     23  C   UNL     1      -3.543  -1.632  -0.559  0.00  0.00    -0.063 C 
ATOM     24  H   UNL     1      -4.403   0.074  -1.275  0.00  0.00    -0.082 HD
BRANCH  18  26
ATOM     25  C   UNL     1      -2.884   2.061  -0.558  0.00  0.00    -0.017 C 
ATOM     26  C   UNL     1      -2.577   0.563  -0.509  0.00  0.00    -0.082 C 
ENDBRANCH  18  26
ENDBRANCH  17  21
ENDBRANCH  11  17
ENDBRANCH   1  14
BRANCH  10  27
ATOM     27  N   UNL     1      -4.450 -13.360   0.541  0.00  0.00    -0.312 N 
ATOM     28  H   UNL     1      -4.218 -12.964  -0.314  0.00  0.00    +0.152 HD
BRANCH  27  29
ATOM     29  C   UNL     1      -4.607 -14.745   0.650  0.00  0.00    +0.053 A 
ATOM     30  C   UNL     1      -3.510 -15.583   0.495  0.00  0.00    +0.071 A 
ATOM     31  C   UNL     1      -3.669 -16.955   0.605  0.00  0.00    +0.140 A 
ATOM     32  C   UNL     1      -4.923 -17.490   0.868  0.00  0.00    +0.084 A 
ATOM     33  C   UNL     1      -6.015 -16.655   1.021  0.00  0.00    +0.045 A 
ATOM     34  C   UNL     1      -5.859 -15.285   0.918  0.00  0.00    +0.064 A 
ATOM     35 CL   UNL     1      -7.230 -14.239   1.118  0.00  0.00    -0.082 Cl
ATOM     36 CL   UNL     1      -5.122 -19.209   1.004  0.00  0.00    -0.080 Cl
BRANCH  31  37
ATOM     37  O   UNL     1      -2.597 -17.778   0.454  0.00  0.00    -0.494 OA
ATOM     38  C   UNL     1      -1.319 -17.157   0.300  0.00  0.00    +0.277 C 
ENDBRANCH  31  37
ENDBRANCH  27  29
ENDBRANCH  10  27
BRANCH   9  39
ATOM     39  C   UNL     1      -4.176 -14.455   3.147  0.00  0.00    +0.103 C 
ATOM     40  N   UNL     1      -3.922 -15.551   3.305  0.00  0.00    -0.191 NA
ENDBRANCH   9  39
TORSDOF 8
