REMARK  Name = CHEMBL47203
REMARK  7 active torsions:
REMARK  status: ('A' for Active; 'I' for Inactive)
REMARK    1  A    between atoms: C_1  and  N_2
REMARK    2  A    between atoms: N_5  and  C_8
REMARK    3  A    between atoms: C_11  and  N_14
REMARK    4  A    between atoms: C_16  and  C_24
REMARK    5  A    between atoms: C_22  and  N_23
REMARK    6  A    between atoms: C_27  and  O_30
REMARK    7  A    between atoms: O_30  and  C_31
REMARK                            x       y       z     vdW  Elec       q    Type
REMARK                         _______ _______ _______ _____ _____    ______ ____
ROOT
ATOM      1  N   UNL     1      -1.301  -8.120   1.969  0.00  0.00    -0.328 N 
ATOM      2  C   UNL     1      -0.689  -8.852   0.987  0.00  0.00    +0.097 A 
ATOM      3  C   UNL     1      -0.775 -10.172   1.282  0.00  0.00    +0.012 A 
ATOM      4  C   UNL     1      -1.502 -10.269   2.555  0.00  0.00    +0.066 A 
ATOM      5  C   UNL     1      -1.800  -8.949   2.937  0.00  0.00    +0.147 A 
ATOM      6  N   UNL     1      -2.463  -8.751   4.076  0.00  0.00    -0.218 NA
ATOM      7  C   UNL     1      -2.827  -9.768   4.827  0.00  0.00    +0.225 A 
ATOM      8  N   UNL     1      -2.565 -11.022   4.506  0.00  0.00    -0.220 NA
ATOM      9  C   UNL     1      -1.914 -11.320   3.384  0.00  0.00    +0.129 A 
ENDROOT
BRANCH   1  13
ATOM     10  C   UNL     1      -0.866  -4.052   0.759  0.00  0.00    -0.068 C 
ATOM     11  C   UNL     1      -2.270  -4.660   0.763  0.00  0.00    -0.013 C 
ATOM     12  C   UNL     1      -2.165  -6.186   0.746  0.00  0.00    +0.023 C 
ATOM     13  C   UNL     1      -1.401  -6.659   1.985  0.00  0.00    +0.089 C 
ATOM     14  C   UNL     1       0.003  -6.051   1.981  0.00  0.00    +0.023 C 
ATOM     15  C   UNL     1      -0.102  -4.524   1.997  0.00  0.00    -0.013 C 
BRANCH  10  20
ATOM     16  C   UNL     1      -0.552   1.454  -0.397  0.00  0.00    +0.104 C 
ATOM     17  N   UNL     1      -0.478  -0.013  -0.365  0.00  0.00    -0.309 NA
ATOM     18  C   UNL     1      -1.822  -0.609  -0.390  0.00  0.00    +0.065 C 
ATOM     19  C   UNL     1      -1.700  -2.134  -0.415  0.00  0.00    -0.063 C 
ATOM     20  N   UNL     1      -0.967  -2.587   0.774  0.00  0.00    +0.383 N 
ATOM     21  C   UNL     1       0.381  -2.003   0.772  0.00  0.00    -0.063 C 
ATOM     22  C   UNL     1       0.277  -0.477   0.808  0.00  0.00    +0.065 C 
ATOM     23  H   UNL     1      -1.459  -2.293   1.605  0.00  0.00    -0.081 HD
ENDBRANCH  10  20
ENDBRANCH   1  13
BRANCH   3  24
ATOM     24  C   UNL     1      -0.241 -11.297   0.478  0.00  0.00    -0.015 A 
ATOM     25  C   UNL     1       0.535 -12.284   1.086  0.00  0.00    +0.012 A 
ATOM     26  C   UNL     1       1.030 -13.329   0.335  0.00  0.00    +0.047 A 
ATOM     27  C   UNL     1       0.756 -13.400  -1.024  0.00  0.00    +0.128 A 
ATOM     28  C   UNL     1      -0.016 -12.420  -1.632  0.00  0.00    +0.047 A 
ATOM     29  C   UNL     1      -0.518 -11.374  -0.886  0.00  0.00    +0.012 A 
BRANCH  27  30
ATOM     30  O   UNL     1       1.246 -14.432  -1.761  0.00  0.00    -0.456 OA
BRANCH  30  31
ATOM     31  C   UNL     1       2.189 -14.155  -2.699  0.00  0.00    +0.128 A 
ATOM     32  C   UNL     1       2.721 -12.877  -2.793  0.00  0.00    +0.046 A 
ATOM     33  C   UNL     1       3.681 -12.598  -3.747  0.00  0.00    +0.004 A 
ATOM     34  C   UNL     1       4.111 -13.590  -4.608  0.00  0.00    +0.000 A 
ATOM     35  C   UNL     1       3.581 -14.864  -4.517  0.00  0.00    +0.004 A 
ATOM     36  C   UNL     1       2.626 -15.150  -3.561  0.00  0.00    +0.046 A 
ENDBRANCH  30  31
ENDBRANCH  27  30
ENDBRANCH   3  24
BRANCH   9  37
ATOM     37  N   UNL     1      -1.640 -12.634   3.051  0.00  0.00    -0.343 N 
ATOM     38  H   UNL     1      -1.157 -12.838   2.235  0.00  0.00    +0.144 HD
ATOM     39  H   UNL     1      -1.931 -13.353   3.635  0.00  0.00    +0.144 HD
ENDBRANCH   9  37
TORSDOF 6
