REMARK  Name = CHEMBL589630
REMARK  7 active torsions:
REMARK  status: ('A' for Active; 'I' for Inactive)
REMARK    1  A    between atoms: C_4  and  O_7
REMARK    2  A    between atoms: O_7  and  C_8
REMARK    3  A    between atoms: C_11  and  C_14
REMARK    4  A    between atoms: C_15  and  C_31
REMARK    5  A    between atoms: C_16  and  N_30
REMARK    6  A    between atoms: C_17  and  C_20
REMARK    7  A    between atoms: C_20  and  C_22
REMARK                            x       y       z     vdW  Elec       q    Type
REMARK                         _______ _______ _______ _____ _____    ______ ____
ROOT
ATOM      1  C   UNL     1       3.129  -6.226  -0.230  0.00  0.00    +0.061 A 
ATOM      2  C   UNL     1       3.695  -7.128   0.674  0.00  0.00    +0.083 A 
ATOM      3  C   UNL     1       3.227  -8.418   0.327  0.00  0.00    +0.066 A 
ATOM      4  C   UNL     1       2.394  -8.266  -0.774  0.00  0.00    +0.109 A 
ATOM      5  N   UNL     1       2.343  -6.918  -1.094  0.00  0.00    -0.350 N 
ATOM      6  H   UNL     1       1.830  -6.532  -1.821  0.00  0.00    +0.166 HD
ENDROOT
BRANCH   1  10
ATOM      7  C   UNL     1       3.750  -2.026  -0.257  0.00  0.00    +0.128 A 
ATOM      8  C   UNL     1       2.466  -2.538  -0.404  0.00  0.00    +0.047 A 
ATOM      9  C   UNL     1       2.260  -3.900  -0.395  0.00  0.00    +0.013 A 
ATOM     10  C   UNL     1       3.345  -4.768  -0.240  0.00  0.00    -0.001 A 
ATOM     11  C   UNL     1       4.635  -4.248  -0.093  0.00  0.00    +0.013 A 
ATOM     12  C   UNL     1       4.832  -2.886  -0.108  0.00  0.00    +0.047 A 
BRANCH   7  13
ATOM     13  O   UNL     1       3.948  -0.683  -0.266  0.00  0.00    -0.456 OA
BRANCH  13  17
ATOM     14  C   UNL     1       5.474   1.026  -3.696  0.00  0.00    +0.000 A 
ATOM     15  C   UNL     1       5.342  -0.347  -3.610  0.00  0.00    +0.004 A 
ATOM     16  C   UNL     1       4.831  -0.922  -2.462  0.00  0.00    +0.046 A 
ATOM     17  C   UNL     1       4.451  -0.120  -1.396  0.00  0.00    +0.128 A 
ATOM     18  C   UNL     1       4.585   1.258  -1.485  0.00  0.00    +0.046 A 
ATOM     19  C   UNL     1       5.096   1.828  -2.635  0.00  0.00    +0.004 A 
ENDBRANCH  13  17
ENDBRANCH   7  13
ENDBRANCH   1  10
BRANCH   2  20
ATOM     20  C   UNL     1       4.605  -6.800   1.779  0.00  0.00    +0.245 C 
ATOM     21  O   UNL     1       4.157  -6.538   2.879  0.00  0.00    -0.270 OA
ATOM     22  N   UNL     1       5.937  -6.790   1.574  0.00  0.00    -0.325 N 
ATOM     23  H   UNL     1       6.294  -6.999   0.697  0.00  0.00    +0.145 HD
ATOM     24  H   UNL     1       6.538  -6.573   2.304  0.00  0.00    +0.145 HD
ENDBRANCH   2  20
BRANCH   3  25
ATOM     25  N   UNL     1       3.541  -9.608   0.964  0.00  0.00    -0.356 N 
ATOM     26  H   UNL     1       4.137  -9.606   1.728  0.00  0.00    +0.142 HD
ATOM     27  H   UNL     1       3.164 -10.443   0.644  0.00  0.00    +0.142 HD
ENDBRANCH   3  25
BRANCH   4  28
ATOM     28  C   UNL     1       1.711  -9.304  -1.447  0.00  0.00    +0.217 C 
ATOM     29  O   UNL     1       0.515  -9.461  -1.272  0.00  0.00    -0.285 OA
BRANCH  28  30
ATOM     30  C   UNL     1       2.447 -10.199  -2.364  0.00  0.00    +0.094 A 
ATOM     31  C   UNL     1       3.795  -9.957  -2.651  0.00  0.00    +0.137 A 
ATOM     32  C   UNL     1       4.476 -10.800  -3.509  0.00  0.00    +0.039 A 
ATOM     33  C   UNL     1       3.830 -11.880  -4.082  0.00  0.00    +0.006 A 
ATOM     34  C   UNL     1       2.498 -12.126  -3.803  0.00  0.00    +0.039 A 
ATOM     35  C   UNL     1       1.803 -11.297  -2.943  0.00  0.00    +0.137 A 
ATOM     36  F   UNL     1       0.503 -11.542  -2.667  0.00  0.00    -0.205 F 
ATOM     37  F   UNL     1       4.428  -8.902  -2.093  0.00  0.00    -0.205 F 
ENDBRANCH  28  30
ENDBRANCH   4  28
TORSDOF 7
