REMARK  Name = CHEMBL259200
REMARK  14 active torsions:
REMARK  status: ('A' for Active; 'I' for Inactive)
REMARK    1  A    between atoms: CG1_1  and  CB_2
REMARK    2  A    between atoms: CB_2  and  CG2_3
REMARK    3  A    between atoms: CB_2  and  CA_4
REMARK    4  A    between atoms: CA_4  and  C_6
REMARK    5  A    between atoms: CA_4  and  N_8
REMARK    6  A    between atoms: C_6  and  O_7
REMARK    7  A    between atoms: N_8  and  C_9
REMARK    8  A    between atoms: C_11  and  C_32
REMARK    9  A    between atoms: C_17  and  C_18
REMARK   10  A    between atoms: N_21  and  C_22
REMARK   11  A    between atoms: C_24  and  O_30
REMARK   12  A    between atoms: C_26  and  O_28
REMARK   13  A    between atoms: O_28  and  C_29
REMARK   14  A    between atoms: O_30  and  C_31
REMARK                            x       y       z     vdW  Elec       q    Type
REMARK                         _______ _______ _______ _____ _____    ______ ____
ROOT
ATOM      1  C   UNK A   0      -2.311  -2.682  -0.159  0.00  0.00    +0.125 A 
ATOM      2  C   UNK A   0      -3.447  -2.083  -0.661  0.00  0.00    +0.072 A 
ATOM      3  C   UNK A   0      -4.538  -2.887  -1.021  0.00  0.00    +0.077 A 
ATOM      4  N   UNK A   0      -4.466  -4.204  -0.877  0.00  0.00    -0.227 NA
ATOM      5  C   UNK A   0      -3.371  -4.785  -0.393  0.00  0.00    +0.172 A 
ATOM      6  N   UNK A   0      -2.280  -4.045  -0.033  0.00  0.00    -0.198 N 
ATOM      7  N   UNK A   0      -1.290  -4.918   0.429  0.00  0.00    -0.147 NA
ATOM      8  C   UNK A   0      -1.726  -6.153   0.361  0.00  0.00    +0.160 A 
ATOM      9  C   UNK A   0      -3.047  -6.135  -0.146  0.00  0.00    +0.122 A 
ATOM     10  N   UNK A   0      -1.014  -7.290   0.736  0.00  0.00    -0.297 N 
ATOM     11  H   UNK A   0      -1.390  -8.170   0.582  0.00  0.00    +0.154 HD
ENDROOT
BRANCH  10  12
ATOM     12  C   UNK A   0       0.242  -7.161   1.335  0.00  0.00    +0.039 A 
ATOM     13  C   UNK A   0       0.544  -6.029   2.079  0.00  0.00    +0.069 A 
ATOM     14  C   UNK A   0       1.791  -5.902   2.673  0.00  0.00    +0.125 A 
ATOM     15  C   UNK A   0       2.736  -6.906   2.522  0.00  0.00    +0.091 A 
ATOM     16  C   UNK A   0       2.435  -8.037   1.778  0.00  0.00    +0.125 A 
ATOM     17  C   UNK A   0       1.187  -8.168   1.189  0.00  0.00    +0.069 A 
BRANCH  16  18
ATOM     18  O   UNK A   0       3.362  -9.020   1.632  0.00  0.00    -0.495 OA
ATOM     19  C   UNK A   0       4.624  -8.822   2.271  0.00  0.00    +0.277 C 
ENDBRANCH  16  18
BRANCH  14  20
ATOM     20  O   UNK A   0       2.087  -4.794   3.401  0.00  0.00    -0.495 OA
ATOM     21  C   UNK A   0       3.390  -4.730   3.984  0.00  0.00    +0.277 C 
ENDBRANCH  14  20
ENDBRANCH  10  12
BRANCH   3  22
ATOM     22  C   UNK A   0      -5.770  -2.266  -1.562  0.00  0.00    +0.001 A 
ATOM     23  C   UNK A   0      -5.845  -0.882  -1.719  0.00  0.00    +0.010 A 
ATOM     24  C   UNK A   0      -6.995  -0.310  -2.224  0.00  0.00    +0.001 A 
ATOM     25  C   UNK A   0      -8.071  -1.105  -2.573  0.00  0.00    +0.000 A 
ATOM     26  C   UNK A   0      -8.002  -2.478  -2.419  0.00  0.00    +0.001 A 
ATOM     27  C   UNK A   0      -6.856  -3.063  -1.921  0.00  0.00    +0.010 A 
ENDBRANCH   3  22
BRANCH   9  28
ATOM     28  C   UNK A   0      -3.905  -7.295  -0.383  0.00  0.00    +0.249 C 
ATOM     29  O   UNK A   0      -3.876  -7.864  -1.459  0.00  0.00    -0.270 OA
ATOM     30  N   UNK A   0      -4.727  -7.734   0.590  0.00  0.00    -0.325 N 
ATOM     31  H   UNK A   0      -4.750  -7.281   1.447  0.00  0.00    +0.145 HD
ATOM     32  H   UNK A   0      -5.297  -8.504   0.433  0.00  0.00    +0.145 HD
ENDBRANCH   9  28
BRANCH   1  33
ATOM     33  N   VAL A   1      -1.221  -1.922   0.204  0.00  0.00    -0.324 N 
ATOM     34  H   VAL A   1      -0.424  -2.351   0.552  0.00  0.00    +0.148 HD
BRANCH  33  35
ATOM     35  CA  VAL A   1      -1.265  -0.464   0.064  0.00  0.00    +0.100 C 
BRANCH  35  37
ATOM     36  CG1 VAL A   1       0.849  -0.610  -1.260  0.00  0.00    +0.009 C 
ATOM     37  CB  VAL A   1       0.158   0.078  -0.080  0.00  0.00    +0.005 C 
ATOM     38  CG2 VAL A   1       0.107   1.587  -0.329  0.00  0.00    +0.009 C 
ENDBRANCH  35  37
BRANCH  35  39
ATOM     39  C   VAL A   1      -1.920   0.147   1.304  0.00  0.00    +0.178 C 
BRANCH  39  40
ATOM     40  O   VAL A   1      -1.101  -0.103   2.448  0.00  0.00    -0.393 OA
ATOM     41  H   VAL A   1      -1.456   0.257   3.272  0.00  0.00    +0.209 HD
ENDBRANCH  39  40
ENDBRANCH  35  39
ENDBRANCH  33  35
ENDBRANCH   1  33
TORSDOF 10
