REMARK  Name = CHEMBL213988
REMARK  13 active torsions:
REMARK  status: ('A' for Active; 'I' for Inactive)
REMARK    1  A    between atoms: C_1  and  N_2
REMARK    2  A    between atoms: N_2  and  C_3
REMARK    3  A    between atoms: N_2  and  C_4
REMARK    4  A    between atoms: C_4  and  C_5
REMARK    5  A    between atoms: C_8  and  C_10
REMARK    6  A    between atoms: C_11  and  C_12
REMARK    7  A    between atoms: C_17  and  O_18
REMARK    8  A    between atoms: O_18  and  C_19
REMARK    9  A    between atoms: C_20  and  N_26
REMARK   10  A    between atoms: C_21  and  C_24
REMARK   11  A    between atoms: N_26  and  C_27
REMARK   12  A    between atoms: C_29  and  O_35
REMARK   13  A    between atoms: O_35  and  C_36
REMARK                            x       y       z     vdW  Elec       q    Type
REMARK                         _______ _______ _______ _____ _____    ______ ____
ROOT
ATOM      1  C   UNL     1      -4.419 -11.555  -2.847  0.00  0.00    +0.069 A 
ATOM      2  C   UNL     1      -3.161 -11.592  -2.258  0.00  0.00    +0.049 A 
ATOM      3  C   UNL     1      -2.019 -11.651  -3.067  0.00  0.00    +0.074 A 
ATOM      4  C   UNL     1      -2.168 -11.672  -4.476  0.00  0.00    +0.026 A 
ATOM      5  C   UNL     1      -3.448 -11.633  -5.050  0.00  0.00    +0.058 A 
ATOM      6  C   UNL     1      -4.552 -11.581  -4.252  0.00  0.00    +0.136 A 
ATOM      7  C   UNL     1      -1.011 -11.732  -5.286  0.00  0.00    +0.060 A 
ATOM      8  C   UNL     1       0.237 -11.768  -4.646  0.00  0.00    +0.091 A 
ATOM      9  C   UNL     1       0.291 -11.744  -3.242  0.00  0.00    +0.132 A 
ATOM     10  N   UNL     1      -0.796 -11.689  -2.516  0.00  0.00    -0.254 NA
ENDROOT
BRANCH   1  12
ATOM     11  C   UNL     1      -6.547 -11.446  -1.347  0.00  0.00    -0.054 C 
ATOM     12  C   UNL     1      -5.588 -11.495  -2.022  0.00  0.00    -0.057 C 
BRANCH  11  16
ATOM     13  C   UNL     1     -10.156 -11.273   0.624  0.00  0.00    +0.005 A 
ATOM     14  C   UNL     1      -9.061 -11.294   1.428  0.00  0.00    +0.014 A 
ATOM     15  C   UNL     1      -7.810 -11.352   0.860  0.00  0.00    +0.025 A 
ATOM     16  C   UNL     1      -7.716 -11.386  -0.522  0.00  0.00    +0.063 A 
ATOM     17  S   UNL     1      -9.434 -11.341  -1.007  0.00  0.00    -0.084 S 
BRANCH  13  18
ATOM     18  C   UNL     1     -11.612 -11.212   1.011  0.00  0.00    +0.126 C 
BRANCH  18  20
ATOM     19  C   UNL     1     -13.496  -9.709   1.241  0.00  0.00    +0.104 C 
ATOM     20  N   UNL     1     -12.037  -9.809   1.100  0.00  0.00    -0.304 NA
ATOM     21  C   UNL     1     -11.353  -9.120   2.203  0.00  0.00    +0.104 C 
ENDBRANCH  18  20
ENDBRANCH  13  18
ENDBRANCH  11  16
ENDBRANCH   1  12
BRANCH   6  22
ATOM     22  O   UNL     1      -5.789 -11.549  -4.812  0.00  0.00    -0.494 OA
ATOM     23  C   UNL     1      -5.855 -11.579  -6.240  0.00  0.00    +0.277 C 
ENDBRANCH   6  22
BRANCH   8  24
ATOM     24  C   UNL     1       1.444 -11.829  -5.415  0.00  0.00    +0.103 C 
ATOM     25  N   UNL     1       2.401 -11.878  -6.024  0.00  0.00    -0.191 NA
ENDBRANCH   8  24
BRANCH   7  26
ATOM     26  N   UNL     1      -1.105 -11.754  -6.664  0.00  0.00    -0.312 N 
ATOM     27  H   UNL     1      -1.001 -10.933  -7.171  0.00  0.00    +0.152 HD
BRANCH  26  28
ATOM     28  C   UNL     1      -1.352 -12.959  -7.328  0.00  0.00    +0.053 A 
ATOM     29  C   UNL     1      -1.619 -14.112  -6.601  0.00  0.00    +0.071 A 
ATOM     30  C   UNL     1      -1.863 -15.304  -7.263  0.00  0.00    +0.140 A 
ATOM     31  C   UNL     1      -1.841 -15.345  -8.650  0.00  0.00    +0.084 A 
ATOM     32  C   UNL     1      -1.575 -14.197  -9.374  0.00  0.00    +0.045 A 
ATOM     33  C   UNL     1      -1.336 -13.004  -8.717  0.00  0.00    +0.064 A 
ATOM     34 CL   UNL     1      -1.009 -11.563  -9.628  0.00  0.00    -0.082 Cl
ATOM     35 CL   UNL     1      -2.147 -16.840  -9.479  0.00  0.00    -0.080 Cl
BRANCH  30  36
ATOM     36  O   UNL     1      -2.125 -16.434  -6.553  0.00  0.00    -0.494 OA
ATOM     37  C   UNL     1      -2.251 -16.296  -5.136  0.00  0.00    +0.277 C 
ENDBRANCH  30  36
ENDBRANCH  26  28
ENDBRANCH   7  26
TORSDOF 9
