REMARK  Name = CHEMBL194664
REMARK  9 active torsions:
REMARK  status: ('A' for Active; 'I' for Inactive)
REMARK    1  A    between atoms: C_1  and  N_2
REMARK    2  A    between atoms: N_5  and  C_8
REMARK    3  A    between atoms: C_8  and  C_9
REMARK    4  A    between atoms: C_11  and  C_14
REMARK    5  A    between atoms: C_19  and  N_25
REMARK    6  A    between atoms: C_20  and  C_23
REMARK    7  A    between atoms: N_25  and  C_26
REMARK    8  A    between atoms: C_28  and  O_34
REMARK    9  A    between atoms: O_34  and  C_35
REMARK                            x       y       z     vdW  Elec       q    Type
REMARK                         _______ _______ _______ _____ _____    ______ ____
ROOT
ATOM      1  C   UNL     1      -0.807  -3.012   9.805  0.00  0.00    +0.023 A 
ATOM      2  C   UNL     1      -0.272  -4.263   9.803  0.00  0.00    +0.044 A 
ATOM      3  C   UNL     1      -1.096  -5.379   9.584  0.00  0.00    +0.080 A 
ATOM      4  C   UNL     1      -2.462  -5.090   9.376  0.00  0.00    +0.060 A 
ATOM      5  S   UNL     1      -2.538  -3.321   9.500  0.00  0.00    -0.085 S 
ATOM      6  C   UNL     1      -3.395  -6.084   9.148  0.00  0.00    +0.066 A 
ATOM      7  C   UNL     1      -2.941  -7.421   9.127  0.00  0.00    +0.092 A 
ATOM      8  C   UNL     1      -1.576  -7.655   9.338  0.00  0.00    +0.132 A 
ATOM      9  N   UNL     1      -0.730  -6.685   9.550  0.00  0.00    -0.253 NA
ENDROOT
BRANCH   1  12
ATOM     10  C   UNL     1      -0.168   0.645  10.123  0.00  0.00    +0.004 A 
ATOM     11  C   UNL     1      -0.827  -0.518   9.925  0.00  0.00    +0.021 A 
ATOM     12  C   UNL     1      -0.124  -1.718  10.013  0.00  0.00    -0.004 A 
ATOM     13  C   UNL     1       1.214  -1.669  10.299  0.00  0.00    +0.054 A 
ATOM     14  S   UNL     1       1.498   0.088  10.438  0.00  0.00    -0.100 S 
BRANCH  10  15
ATOM     15  C   UNL     1      -0.702   2.053  10.081  0.00  0.00    +0.126 C 
BRANCH  15  20
ATOM     16  C   UNL     1      -1.740   4.514  15.042  0.00  0.00    -0.096 C 
ATOM     17  N   UNL     1      -1.257   4.168  13.699  0.00  0.00    +0.379 N 
ATOM     18  C   UNL     1      -2.399   4.056  12.782  0.00  0.00    -0.064 C 
ATOM     19  C   UNL     1      -1.895   3.714  11.378  0.00  0.00    +0.066 C 
ATOM     20  N   UNL     1      -1.155   2.445  11.422  0.00  0.00    -0.301 NA
ATOM     21  C   UNL     1      -0.022   2.534  12.355  0.00  0.00    +0.066 C 
ATOM     22  C   UNL     1      -0.542   2.886  13.751  0.00  0.00    -0.064 C 
ATOM     23  H   UNL     1      -0.632   4.888  13.370  0.00  0.00    -0.082 HD
ENDBRANCH  15  20
ENDBRANCH  10  15
ENDBRANCH   1  12
BRANCH   7  24
ATOM     24  C   UNL     1      -3.848  -8.505   8.897  0.00  0.00    +0.103 C 
ATOM     25  N   UNL     1      -4.568  -9.364   8.714  0.00  0.00    -0.191 NA
ENDBRANCH   7  24
BRANCH   6  26
ATOM     26  N   UNL     1      -4.733  -5.778   8.947  0.00  0.00    -0.311 N 
ATOM     27  H   UNL     1      -5.322  -5.655   9.708  0.00  0.00    +0.152 HD
BRANCH  26  28
ATOM     28  C   UNL     1      -5.233  -5.647   7.648  0.00  0.00    +0.054 A 
ATOM     29  C   UNL     1      -4.420  -5.931   6.559  0.00  0.00    +0.071 A 
ATOM     30  C   UNL     1      -4.918  -5.800   5.272  0.00  0.00    +0.140 A 
ATOM     31  C   UNL     1      -6.229  -5.386   5.075  0.00  0.00    +0.084 A 
ATOM     32  C   UNL     1      -7.038  -5.104   6.160  0.00  0.00    +0.045 A 
ATOM     33  C   UNL     1      -6.546  -5.239   7.445  0.00  0.00    +0.064 A 
ATOM     34 CL   UNL     1      -7.567  -4.892   8.806  0.00  0.00    -0.082 Cl
ATOM     35 CL   UNL     1      -6.853  -5.222   3.463  0.00  0.00    -0.080 Cl
BRANCH  30  36
ATOM     36  O   UNL     1      -4.124  -6.076   4.204  0.00  0.00    -0.494 OA
ATOM     37  C   UNL     1      -2.769  -6.436   4.479  0.00  0.00    +0.277 C 
ENDBRANCH  30  36
ENDBRANCH  26  28
ENDBRANCH   6  26
TORSDOF 7
