REMARK  Name = CHEMBL368189
REMARK  9 active torsions:
REMARK  status: ('A' for Active; 'I' for Inactive)
REMARK    1  A    between atoms: C_1  and  N_2
REMARK    2  A    between atoms: N_5  and  C_8
REMARK    3  A    between atoms: C_8  and  C_9
REMARK    4  A    between atoms: C_9  and  C_10
REMARK    5  A    between atoms: C_10  and  N_11
REMARK    6  A    between atoms: C_17  and  C_32
REMARK    7  A    between atoms: C_18  and  N_22
REMARK    8  A    between atoms: N_22  and  S_23
REMARK    9  A    between atoms: S_23  and  C_26
REMARK                            x       y       z     vdW  Elec       q    Type
REMARK                         _______ _______ _______ _____ _____    ______ ____
ROOT
ATOM      1  N   UNL     1       0.659  -6.640   3.486  0.00  0.00    -0.313 N 
ATOM      2  C   UNL     1       0.806  -8.003   3.666  0.00  0.00    +0.217 A 
ATOM      3  N   UNL     1       0.423  -8.821   2.688  0.00  0.00    -0.222 NA
ATOM      4  C   UNL     1       0.538 -10.129   2.803  0.00  0.00    +0.126 A 
ATOM      5  C   UNL     1       1.079 -10.653   3.989  0.00  0.00    +0.038 A 
ATOM      6  C   UNL     1       1.235 -12.035   4.186  0.00  0.00    +0.025 A 
ATOM      7  C   UNL     1       1.778 -12.463   5.386  0.00  0.00    +0.029 A 
ATOM      8  C   UNL     1       2.151 -11.509   6.358  0.00  0.00    +0.173 A 
ATOM      9  N   UNL     1       1.995 -10.217   6.150  0.00  0.00    -0.209 NA
ATOM     10  C   UNL     1       1.478  -9.752   5.011  0.00  0.00    +0.167 A 
ATOM     11  N   UNL     1       1.325  -8.439   4.798  0.00  0.00    -0.195 NA
ATOM     12  H   UNL     1       0.936  -6.026   4.185  0.00  0.00    +0.149 HD
ENDROOT
BRANCH   7  13
ATOM     13  C   UNL     1       1.965 -13.910   5.648  0.00  0.00    +0.022 A 
ATOM     14  C   UNL     1       0.945 -14.651   6.247  0.00  0.00    +0.050 A 
ATOM     15  C   UNL     1       1.125 -15.999   6.488  0.00  0.00    +0.021 A 
ATOM     16  C   UNL     1       2.313 -16.615   6.137  0.00  0.00    +0.003 A 
ATOM     17  C   UNL     1       3.328 -15.886   5.544  0.00  0.00    +0.021 A 
ATOM     18  C   UNL     1       3.158 -14.538   5.292  0.00  0.00    +0.050 A 
ATOM     19 CL   UNL     1       4.430 -13.627   4.540  0.00  0.00    -0.083 Cl
ATOM     20 CL   UNL     1      -0.546 -13.880   6.688  0.00  0.00    -0.083 Cl
ENDBRANCH   7  13
BRANCH   1  21
ATOM     21  C   UNL     1       0.087  -6.124   2.241  0.00  0.00    +0.102 C 
BRANCH  21  22
ATOM     22  C   UNL     1       0.036  -4.596   2.298  0.00  0.00    +0.000 C 
BRANCH  22  23
ATOM     23  C   UNL     1      -0.562  -4.056   0.998  0.00  0.00    -0.077 C 
BRANCH  23  28
ATOM     24  C   UNL     1      -0.018   1.465   0.010  0.00  0.00    +0.104 C 
ATOM     25  N   UNL     1       0.002  -0.004   0.002  0.00  0.00    -0.309 NA
ATOM     26  C   UNL     1      -1.361  -0.549  -0.076  0.00  0.00    +0.065 C 
ATOM     27  C   UNL     1      -1.293  -2.076  -0.143  0.00  0.00    -0.063 C 
ATOM     28  N   UNL     1      -0.611  -2.589   1.053  0.00  0.00    +0.381 N 
ATOM     29  C   UNL     1       0.757  -2.055   1.104  0.00  0.00    -0.063 C 
ATOM     30  C   UNL     1       0.707  -0.528   1.181  0.00  0.00    +0.065 C 
ATOM     31  H   UNL     1      -1.115  -2.300   1.878  0.00  0.00    -0.082 HD
ENDBRANCH  23  28
ENDBRANCH  22  23
ENDBRANCH  21  22
ENDBRANCH   1  21
BRANCH   8  32
ATOM     32  N   UNL     1       2.692 -11.940   7.555  0.00  0.00    -0.077 NA
BRANCH  32  33
ATOM     33  S   UNL     1       3.137 -10.837   8.708  0.00  0.00    +0.093 S 
ATOM     34  O   UNL     1       4.223 -10.099   8.166  0.00  0.00    -0.148 OA
ATOM     35  O   UNL     1       1.941 -10.214   9.156  0.00  0.00    -0.148 OA
BRANCH  33  36
ATOM     36  C   UNL     1       3.776 -11.744  10.077  0.00  0.00    +0.110 A 
ATOM     37  C   UNL     1       2.929 -12.159  11.087  0.00  0.00    +0.029 A 
ATOM     38  C   UNL     1       3.430 -12.870  12.161  0.00  0.00    +0.002 A 
ATOM     39  C   UNL     1       4.779 -13.166  12.225  0.00  0.00    +0.000 A 
ATOM     40  C   UNL     1       5.627 -12.751  11.214  0.00  0.00    +0.002 A 
ATOM     41  C   UNL     1       5.124 -12.044  10.138  0.00  0.00    +0.029 A 
ENDBRANCH  33  36
ENDBRANCH  32  33
ENDBRANCH   8  32
TORSDOF 8
