REMARK  Name = CHEMBL128241
REMARK  12 active torsions:
REMARK  status: ('A' for Active; 'I' for Inactive)
REMARK    1  A    between atoms: C_1  and  O_2
REMARK    2  A    between atoms: O_2  and  C_3
REMARK    3  A    between atoms: C_8  and  O_9
REMARK    4  A    between atoms: O_9  and  C_10
REMARK    5  A    between atoms: C_10  and  C_11
REMARK    6  A    between atoms: C_11  and  C_12
REMARK    7  A    between atoms: C_12  and  N_13
REMARK    8  A    between atoms: C_19  and  N_25
REMARK    9  A    between atoms: C_20  and  C_23
REMARK   10  A    between atoms: N_25  and  C_26
REMARK   11  A    between atoms: C_28  and  O_34
REMARK   12  A    between atoms: O_34  and  C_35
REMARK                            x       y       z     vdW  Elec       q    Type
REMARK                         _______ _______ _______ _____ _____    ______ ____
ROOT
ATOM      1  C   UNL     1       5.149  -0.232  -2.303  0.00  0.00    +0.164 A 
ATOM      2  C   UNL     1       4.120   0.423  -2.941  0.00  0.00    +0.077 A 
ATOM      3  C   UNL     1       3.167  -0.314  -3.661  0.00  0.00    +0.077 A 
ATOM      4  C   UNL     1       3.283  -1.724  -3.717  0.00  0.00    +0.026 A 
ATOM      5  C   UNL     1       4.341  -2.366  -3.059  0.00  0.00    +0.061 A 
ATOM      6  C   UNL     1       5.260  -1.628  -2.369  0.00  0.00    +0.163 A 
ATOM      7  C   UNL     1       2.321  -2.463  -4.444  0.00  0.00    +0.060 A 
ATOM      8  C   UNL     1       1.290  -1.752  -5.077  0.00  0.00    +0.091 A 
ATOM      9  C   UNL     1       1.253  -0.352  -4.968  0.00  0.00    +0.132 A 
ATOM     10  N   UNL     1       2.157   0.307  -4.289  0.00  0.00    -0.253 NA
ENDROOT
BRANCH   1  12
ATOM     11  C   UNL     1       5.903   1.902  -1.576  0.00  0.00    +0.277 C 
ATOM     12  O   UNL     1       6.071   0.483  -1.606  0.00  0.00    -0.491 OA
ENDBRANCH   1  12
BRANCH   8  13
ATOM     13  C   UNL     1       0.287  -2.445  -5.828  0.00  0.00    +0.103 C 
ATOM     14  N   UNL     1      -0.508  -2.996  -6.424  0.00  0.00    -0.191 NA
ENDBRANCH   8  13
BRANCH   7  15
ATOM     15  N   UNL     1       2.393  -3.839  -4.528  0.00  0.00    -0.312 N 
ATOM     16  H   UNL     1       1.864  -4.390  -3.930  0.00  0.00    +0.152 HD
BRANCH  15  17
ATOM     17  C   UNL     1       3.230  -4.439  -5.474  0.00  0.00    +0.053 A 
ATOM     18  C   UNL     1       4.077  -3.656  -6.248  0.00  0.00    +0.071 A 
ATOM     19  C   UNL     1       4.904  -4.254  -7.185  0.00  0.00    +0.140 A 
ATOM     20  C   UNL     1       4.886  -5.633  -7.348  0.00  0.00    +0.084 A 
ATOM     21  C   UNL     1       4.043  -6.411  -6.577  0.00  0.00    +0.045 A 
ATOM     22  C   UNL     1       3.220  -5.819  -5.637  0.00  0.00    +0.064 A 
ATOM     23 CL   UNL     1       2.168  -6.799  -4.664  0.00  0.00    -0.082 Cl
ATOM     24 CL   UNL     1       5.923  -6.381  -8.522  0.00  0.00    -0.080 Cl
BRANCH  19  25
ATOM     25  O   UNL     1       5.734  -3.490  -7.945  0.00  0.00    -0.494 OA
ATOM     26  C   UNL     1       5.788  -2.094  -7.643  0.00  0.00    +0.277 C 
ENDBRANCH  19  25
ENDBRANCH  15  17
ENDBRANCH   7  15
BRANCH   6  27
ATOM     27  O   UNL     1       6.288  -2.253  -1.735  0.00  0.00    -0.488 OA
BRANCH  27  28
ATOM     28  C   UNL     1       6.345  -3.677  -1.841  0.00  0.00    +0.230 C 
BRANCH  28  29
ATOM     29  C   UNL     1       7.560  -4.197  -1.070  0.00  0.00    +0.056 C 
BRANCH  29  30
ATOM     30  C   UNL     1       7.621  -5.721  -1.182  0.00  0.00    +0.088 C 
BRANCH  30  31
ATOM     31  N   UNL     1       8.788  -6.221  -0.442  0.00  0.00    -0.298 NA
ATOM     32  C   UNL     1      10.040  -5.779  -1.073  0.00  0.00    +0.112 C 
ATOM     33  C   UNL     1      11.226  -6.270  -0.239  0.00  0.00    +0.175 C 
ATOM     34  O   UNL     1      11.157  -7.693  -0.111  0.00  0.00    -0.377 OA
ATOM     35  C   UNL     1       9.950  -8.157   0.500  0.00  0.00    +0.175 C 
ATOM     36  C   UNL     1       8.751  -7.686  -0.327  0.00  0.00    +0.112 C 
ENDBRANCH  30  31
ENDBRANCH  29  30
ENDBRANCH  28  29
ENDBRANCH  27  28
ENDBRANCH   6  27
TORSDOF 10
