REMARK  Name = CHEMBL178787
REMARK  9 active torsions:
REMARK  status: ('A' for Active; 'I' for Inactive)
REMARK    1  A    between atoms: C_1  and  O_2
REMARK    2  A    between atoms: O_2  and  C_3
REMARK    3  A    between atoms: C_8  and  C_9
REMARK    4  A    between atoms: C_10  and  C_11
REMARK    5  A    between atoms: C_20  and  C_33
REMARK    6  A    between atoms: C_21  and  N_22
REMARK    7  A    between atoms: N_22  and  C_23
REMARK    8  A    between atoms: C_25  and  O_31
REMARK    9  A    between atoms: O_31  and  C_32
REMARK                            x       y       z     vdW  Elec       q    Type
REMARK                         _______ _______ _______ _____ _____    ______ ____
ROOT
ATOM      1  C   UNL     1      -1.155  -0.427   0.798  0.00  0.00    +0.128 A 
ATOM      2  C   UNL     1      -2.316   0.245   0.553  0.00  0.00    +0.058 A 
ATOM      3  C   UNL     1      -3.526  -0.459   0.452  0.00  0.00    +0.026 A 
ATOM      4  C   UNL     1      -3.544  -1.867   0.605  0.00  0.00    +0.074 A 
ATOM      5  C   UNL     1      -2.344  -2.544   0.857  0.00  0.00    +0.040 A 
ATOM      6  C   UNL     1      -1.157  -1.830   0.947  0.00  0.00    +0.019 A 
ATOM      7  N   UNL     1      -4.700  -2.542   0.509  0.00  0.00    -0.254 NA
ATOM      8  C   UNL     1      -5.837  -1.940   0.274  0.00  0.00    +0.132 A 
ATOM      9  C   UNL     1      -5.912  -0.547   0.108  0.00  0.00    +0.091 A 
ATOM     10  C   UNL     1      -4.741   0.220   0.198  0.00  0.00    +0.060 A 
ENDROOT
BRANCH   1  12
ATOM     11  C   UNL     1      -0.051   1.677   0.734  0.00  0.00    +0.277 C 
ATOM     12  O   UNL     1       0.014   0.259   0.894  0.00  0.00    -0.495 OA
ENDBRANCH   1  12
BRANCH   6  13
ATOM     13  C   UNL     1       0.106  -2.540   1.206  0.00  0.00    +0.012 C 
ATOM     14  C   UNL     1       0.108  -3.876   1.349  0.00  0.00    +0.009 C 
BRANCH  14  15
ATOM     15  C   UNL     1       1.372  -4.587   1.608  0.00  0.00    -0.022 A 
ATOM     16  C   UNL     1       2.583  -3.889   1.715  0.00  0.00    +0.029 A 
ATOM     17  C   UNL     1       3.742  -4.594   1.958  0.00  0.00    +0.134 A 
ATOM     18  N   UNL     1       3.722  -5.908   2.089  0.00  0.00    -0.147 N 
ATOM     19  O   UNL     1       4.937  -6.591   2.339  0.00  0.00    -0.164 OA
ATOM     20  C   UNL     1       2.604  -6.605   1.996  0.00  0.00    +0.134 A 
ATOM     21  C   UNL     1       1.398  -5.981   1.760  0.00  0.00    +0.029 A 
ENDBRANCH  14  15
ENDBRANCH   6  13
BRANCH  10  22
ATOM     22  N   UNL     1      -4.773   1.591   0.042  0.00  0.00    -0.312 N 
ATOM     23  H   UNL     1      -3.970   2.068  -0.218  0.00  0.00    +0.152 HD
BRANCH  22  24
ATOM     24  C   UNL     1      -5.963   2.292   0.260  0.00  0.00    +0.053 A 
ATOM     25  C   UNL     1      -6.609   2.913  -0.801  0.00  0.00    +0.071 A 
ATOM     26  C   UNL     1      -7.788   3.606  -0.581  0.00  0.00    +0.140 A 
ATOM     27  C   UNL     1      -8.322   3.679   0.698  0.00  0.00    +0.084 A 
ATOM     28  C   UNL     1      -7.678   3.061   1.754  0.00  0.00    +0.045 A 
ATOM     29  C   UNL     1      -6.505   2.363   1.538  0.00  0.00    +0.064 A 
ATOM     30 CL   UNL     1      -5.704   1.581   2.865  0.00  0.00    -0.082 Cl
ATOM     31 CL   UNL     1      -9.800   4.548   0.973  0.00  0.00    -0.080 Cl
BRANCH  26  32
ATOM     32  O   UNL     1      -8.421   4.215  -1.619  0.00  0.00    -0.494 OA
ATOM     33  C   UNL     1      -7.880   4.003  -2.924  0.00  0.00    +0.277 C 
ENDBRANCH  26  32
ENDBRANCH  22  24
ENDBRANCH  10  22
BRANCH   9  34
ATOM     34  C   UNL     1      -7.172   0.084  -0.149  0.00  0.00    +0.103 C 
ATOM     35  N   UNL     1      -8.171   0.584  -0.353  0.00  0.00    -0.191 NA
ENDBRANCH   9  34
TORSDOF 7
