REMARK  Name = CHEMBL105084
REMARK  6 active torsions:
REMARK  status: ('A' for Active; 'I' for Inactive)
REMARK    1  A    between atoms: C_5  and  C_23
REMARK    2  A    between atoms: N_7  and  C_10
REMARK    3  A    between atoms: C_14  and  P_16
REMARK    4  A    between atoms: P_16  and  C_18
REMARK    5  A    between atoms: C_18  and  C_19
REMARK    6  A    between atoms: C_25  and  O_29
REMARK                            x       y       z     vdW  Elec       q    Type
REMARK                         _______ _______ _______ _____ _____    ______ ____
ROOT
ATOM      1  C   UNL     1      -0.040   1.305   0.472  0.00  0.00    +0.225 A 
ATOM      2  N   UNL     1       1.057   2.039   0.539  0.00  0.00    -0.220 NA
ATOM      3  C   UNL     1       2.259   1.494   0.375  0.00  0.00    +0.131 A 
ATOM      4  C   UNL     1       2.337   0.114   0.126  0.00  0.00    +0.086 A 
ATOM      5  C   UNL     1       3.425  -0.836  -0.104  0.00  0.00    +0.105 A 
ATOM      6  N   UNL     1       2.884  -2.019  -0.282  0.00  0.00    -0.164 NA
ATOM      7  N   UNL     1       1.491  -1.924  -0.186  0.00  0.00    -0.214 N 
ATOM      8  C   UNL     1       1.141  -0.627   0.064  0.00  0.00    +0.169 A 
ATOM      9  N   UNL     1      -0.015   0.011   0.242  0.00  0.00    -0.216 NA
ATOM     10  N   UNL     1       3.402   2.266   0.446  0.00  0.00    -0.342 N 
ATOM     11  H   UNL     1       3.332   3.231   0.521  0.00  0.00    +0.144 HD
ATOM     12  H   UNL     1       4.275   1.844   0.420  0.00  0.00    +0.144 HD
ENDROOT
BRANCH   7  13
ATOM     13  C   UNL     1       0.596  -2.991  -0.323  0.00  0.00    +0.064 C 
ATOM     14  C   UNL     1      -0.718  -2.780  -0.217  0.00  0.00    +0.001 C 
ATOM     15  C   UNL     1      -1.680  -3.933  -0.338  0.00  0.00    +0.034 C 
ATOM     16  C   UNL     1      -1.156  -4.947  -1.354  0.00  0.00    +0.045 C 
ATOM     17  C   UNL     1       0.283  -5.281  -1.058  0.00  0.00    +0.019 C 
ATOM     18  C   UNL     1       1.101  -4.350  -0.591  0.00  0.00    +0.036 C 
BRANCH  17  19
ATOM     19  P   UNL     1       0.898  -6.962  -1.348  0.00  0.00    +0.272 P 
ATOM     20  O   UNL     1       0.729  -7.322  -2.841  0.00  0.00    -0.283 OA
ATOM     21  O   UNL     1       0.096  -7.960  -0.483  0.00  0.00    -0.164 OA
BRANCH  19  22
ATOM     22  C   UNL     1       2.662  -7.050  -0.898  0.00  0.00    +0.229 C 
BRANCH  22  23
ATOM     23  C   UNL     1       3.204  -8.410  -1.253  0.00  0.00    +0.366 C 
ATOM     24  O   UNL     1       3.686  -8.606  -2.356  0.00  0.00    -0.246 OA
ATOM     25  O   UNL     1       3.162  -9.316  -0.438  0.00  0.00    -0.246 OA
ENDBRANCH  22  23
ENDBRANCH  19  22
ENDBRANCH  17  19
ENDBRANCH   7  13
BRANCH   5  26
ATOM     26  C   UNL     1       4.873  -0.521  -0.131  0.00  0.00    +0.001 C 
ATOM     27  C   UNL     1       5.699  -1.055   0.783  0.00  0.00    +0.014 C 
ATOM     28  C   UNL     1       7.168  -0.729   0.751  0.00  0.00    +0.142 C 
ATOM     29  C   UNL     1       7.635  -0.572  -0.696  0.00  0.00    +0.062 C 
ATOM     30  C   UNL     1       6.717   0.365  -1.435  0.00  0.00    -0.023 C 
ATOM     31  C   UNL     1       5.420   0.378  -1.169  0.00  0.00    +0.006 C 
BRANCH  28  32
ATOM     32  O   UNL     1       7.400   0.490   1.460  0.00  0.00    -0.387 OA
ATOM     33  H   UNL     1       7.134   0.461   2.389  0.00  0.00    +0.210 HD
ENDBRANCH  28  32
ENDBRANCH   5  26
TORSDOF 6
