REMARK  Name = CHEMBL354145
REMARK  7 active torsions:
REMARK  status: ('A' for Active; 'I' for Inactive)
REMARK    1  A    between atoms: C_1  and  O_2
REMARK    2  A    between atoms: O_2  and  C_3
REMARK    3  A    between atoms: C_8  and  O_9
REMARK    4  A    between atoms: O_9  and  C_10
REMARK    5  A    between atoms: C_10  and  C_11
REMARK    6  A    between atoms: C_15  and  C_17
REMARK    7  A    between atoms: N_23  and  C_24
REMARK                            x       y       z     vdW  Elec       q    Type
REMARK                         _______ _______ _______ _____ _____    ______ ____
ROOT
ATOM      1  C   UNL     1       0.407  -0.528  -1.118  0.00  0.00    +0.162 A 
ATOM      2  C   UNL     1       1.004   0.192  -2.115  0.00  0.00    +0.062 A 
ATOM      3  C   UNL     1       2.397   0.165  -2.250  0.00  0.00    +0.044 A 
ATOM      4  C   UNL     1       3.179  -0.606  -1.355  0.00  0.00    +0.080 A 
ATOM      5  C   UNL     1       2.547  -1.336  -0.341  0.00  0.00    +0.078 A 
ATOM      6  C   UNL     1       1.175  -1.289  -0.226  0.00  0.00    +0.164 A 
ATOM      7  N   UNL     1       4.513  -0.614  -1.507  0.00  0.00    -0.235 NA
ATOM      8  C   UNL     1       5.077   0.080  -2.466  0.00  0.00    +0.223 A 
ATOM      9  N   UNL     1       4.388   0.814  -3.325  0.00  0.00    -0.220 NA
ATOM     10  C   UNL     1       3.065   0.892  -3.264  0.00  0.00    +0.134 A 
ATOM     11  N   UNL     1       2.359   1.661  -4.166  0.00  0.00    -0.295 N 
ATOM     12  H   UNL     1       1.391   1.704  -4.114  0.00  0.00    +0.154 HD
ENDROOT
BRANCH  11  13
ATOM     13  C   UNL     1       3.039   2.381  -5.157  0.00  0.00    +0.097 A 
ATOM     14  C   UNL     1       3.388   3.708  -4.938  0.00  0.00    +0.066 A 
ATOM     15  C   UNL     1       4.060   4.417  -5.916  0.00  0.00    +0.025 A 
ATOM     16  C   UNL     1       4.387   3.810  -7.114  0.00  0.00    +0.051 A 
ATOM     17  C   UNL     1       4.043   2.487  -7.342  0.00  0.00    +0.168 A 
ATOM     18  C   UNL     1       3.372   1.766  -6.360  0.00  0.00    +0.189 A 
ATOM     19  O   UNL     1       3.155   0.498  -6.819  0.00  0.00    -0.451 OA
ATOM     20  C   UNL     1       3.343   0.568  -8.244  0.00  0.00    +0.466 C 
ATOM     21  O   UNL     1       4.246   1.672  -8.419  0.00  0.00    -0.453 OA
ATOM     22 CL   UNL     1       2.979   4.475  -3.435  0.00  0.00    -0.081 Cl
ENDBRANCH  11  13
BRANCH   1  24
ATOM     23  C   UNL     1      -1.673   0.292  -1.927  0.00  0.00    +0.277 C 
ATOM     24  O   UNL     1      -0.946  -0.501  -0.987  0.00  0.00    -0.491 OA
ENDBRANCH   1  24
BRANCH   6  25
ATOM     25  O   UNL     1       0.559  -1.991   0.761  0.00  0.00    -0.484 OA
BRANCH  25  26
ATOM     26  C   UNL     1       1.396  -2.747   1.638  0.00  0.00    +0.264 C 
BRANCH  26  27
ATOM     27  C   UNL     1       0.544  -3.454   2.660  0.00  0.00    -0.006 A 
ATOM     28  C   UNL     1       0.227  -2.843   3.864  0.00  0.00    +0.027 A 
ATOM     29  C   UNL     1      -0.559  -3.519   4.783  0.00  0.00    +0.112 A 
ATOM     30  N   UNL     1      -1.007  -4.730   4.528  0.00  0.00    -0.245 NA
ATOM     31  C   UNL     1      -0.727  -5.350   3.388  0.00  0.00    +0.140 A 
ATOM     32  C   UNL     1       0.054  -4.726   2.415  0.00  0.00    +0.046 A 
BRANCH  31  33
ATOM     33  C   UNL     1      -1.236  -6.668   3.152  0.00  0.00    +0.119 C 
ATOM     34  N   UNL     1      -1.640  -7.713   2.966  0.00  0.00    -0.189 NA
ENDBRANCH  31  33
ENDBRANCH  26  27
ENDBRANCH  25  26
ENDBRANCH   6  25
TORSDOF 6
