REMARK  Name = CHEMBL360499
REMARK  9 active torsions:
REMARK  status: ('A' for Active; 'I' for Inactive)
REMARK    1  A    between atoms: C_1  and  O_2
REMARK    2  A    between atoms: O_2  and  C_3
REMARK    3  A    between atoms: C_5  and  N_11
REMARK    4  A    between atoms: N_11  and  C_12
REMARK    5  A    between atoms: C_15  and  O_32
REMARK    6  A    between atoms: C_16  and  C_24
REMARK    7  A    between atoms: C_21  and  C_22
REMARK    8  A    between atoms: C_25  and  C_26
REMARK    9  A    between atoms: O_32  and  C_33
REMARK                            x       y       z     vdW  Elec       q    Type
REMARK                         _______ _______ _______ _____ _____    ______ ____
ROOT
ATOM      1  C   UNL     1      -1.380  -4.803  -0.098  0.00  0.00    +0.060 A 
ATOM      2  C   UNL     1      -1.411  -6.152  -0.524  0.00  0.00    +0.026 A 
ATOM      3  C   UNL     1      -2.626  -6.778  -0.843  0.00  0.00    +0.058 A 
ATOM      4  C   UNL     1      -2.635  -8.079  -1.252  0.00  0.00    +0.128 A 
ATOM      5  C   UNL     1      -1.430  -8.805  -1.358  0.00  0.00    +0.019 A 
ATOM      6  C   UNL     1      -0.218  -8.204  -1.047  0.00  0.00    +0.040 A 
ATOM      7  C   UNL     1      -0.194  -6.868  -0.626  0.00  0.00    +0.074 A 
ATOM      8  N   UNL     1       0.969  -6.271  -0.323  0.00  0.00    -0.254 NA
ATOM      9  C   UNL     1       1.027  -5.026   0.073  0.00  0.00    +0.132 A 
ATOM     10  C   UNL     1      -0.130  -4.239   0.198  0.00  0.00    +0.091 A 
ENDROOT
BRANCH   1  11
ATOM     11  N   UNL     1      -2.541  -4.064   0.016  0.00  0.00    -0.312 N 
ATOM     12  H   UNL     1      -3.062  -4.104   0.833  0.00  0.00    +0.152 HD
BRANCH  11  15
ATOM     13  C   UNL     1      -2.586  -2.312  -3.219  0.00  0.00    +0.123 A 
ATOM     14  C   UNL     1      -2.162  -3.111  -2.168  0.00  0.00    +0.070 A 
ATOM     15  C   UNL     1      -2.964  -3.259  -1.045  0.00  0.00    +0.055 A 
ATOM     16  C   UNL     1      -4.190  -2.606  -0.977  0.00  0.00    +0.081 A 
ATOM     17  C   UNL     1      -4.609  -1.810  -2.028  0.00  0.00    +0.065 A 
ATOM     18  C   UNL     1      -3.807  -1.658  -3.145  0.00  0.00    +0.067 A 
ATOM     19 CL   UNL     1      -6.139  -0.996  -1.942  0.00  0.00    -0.082 Cl
ATOM     20 CL   UNL     1      -5.195  -2.791   0.426  0.00  0.00    -0.080 Cl
BRANCH  13  22
ATOM     21  C   UNL     1      -2.297  -1.323  -5.362  0.00  0.00    +0.277 C 
ATOM     22  O   UNL     1      -1.801  -2.166  -4.320  0.00  0.00    -0.495 OA
ENDBRANCH  13  22
ENDBRANCH  11  15
ENDBRANCH   1  11
BRANCH  10  23
ATOM     23  C   UNL     1      -0.036  -2.876   0.628  0.00  0.00    +0.103 C 
ATOM     24  N   UNL     1       0.040  -1.795   0.970  0.00  0.00    -0.191 NA
ENDBRANCH  10  23
BRANCH   5  25
ATOM     25  C   UNL     1      -1.458 -10.209  -1.800  0.00  0.00    +0.014 C 
ATOM     26  C   UNL     1      -0.312 -10.904  -1.902  0.00  0.00    +0.030 C 
BRANCH  26  27
ATOM     27  C   UNL     1      -0.341 -12.309  -2.344  0.00  0.00    +0.082 A 
ATOM     28  C   UNL     1       0.849 -13.037  -2.446  0.00  0.00    +0.138 A 
ATOM     29  N   UNL     1       0.817 -14.295  -2.842  0.00  0.00    -0.260 NA
ATOM     30  C   UNL     1      -0.338 -14.867  -3.143  0.00  0.00    +0.130 A 
ATOM     31  C   UNL     1      -1.519 -14.151  -3.044  0.00  0.00    +0.131 A 
ATOM     32  N   UNL     1      -1.500 -12.893  -2.643  0.00  0.00    -0.253 NA
ENDBRANCH  26  27
ENDBRANCH   5  25
BRANCH   4  33
ATOM     33  O   UNL     1      -3.814  -8.681  -1.559  0.00  0.00    -0.495 OA
ATOM     34  C   UNL     1      -4.998  -7.892  -1.431  0.00  0.00    +0.277 C 
ENDBRANCH   4  33
TORSDOF 7
