REMARK  Name = CHEMBL418693
REMARK  8 active torsions:
REMARK  status: ('A' for Active; 'I' for Inactive)
REMARK    1  A    between atoms: C_1  and  O_2
REMARK    2  A    between atoms: O_2  and  C_3
REMARK    3  A    between atoms: C_5  and  N_11
REMARK    4  A    between atoms: N_11  and  C_12
REMARK    5  A    between atoms: C_16  and  C_24
REMARK    6  A    between atoms: C_21  and  C_22
REMARK    7  A    between atoms: C_26  and  C_29
REMARK    8  A    between atoms: C_29  and  N_30
REMARK                            x       y       z     vdW  Elec       q    Type
REMARK                         _______ _______ _______ _____ _____    ______ ____
ROOT
ATOM      1  C   UNL     1       2.499   1.837  -3.861  0.00  0.00    +0.060 A 
ATOM      2  C   UNL     1       2.865   2.668  -4.945  0.00  0.00    +0.023 A 
ATOM      3  C   UNL     1       3.097   2.130  -6.221  0.00  0.00    +0.012 A 
ATOM      4  C   UNL     1       3.447   2.946  -7.249  0.00  0.00    +0.010 A 
ATOM      5  C   UNL     1       3.581   4.331  -7.051  0.00  0.00    -0.009 A 
ATOM      6  C   UNL     1       3.358   4.888  -5.801  0.00  0.00    +0.037 A 
ATOM      7  C   UNL     1       2.996   4.062  -4.729  0.00  0.00    +0.073 A 
ATOM      8  N   UNL     1       2.774   4.581  -3.511  0.00  0.00    -0.254 NA
ATOM      9  C   UNL     1       2.434   3.835  -2.491  0.00  0.00    +0.132 A 
ATOM     10  C   UNL     1       2.276   2.445  -2.616  0.00  0.00    +0.091 A 
ENDROOT
BRANCH   5  11
ATOM     11  C   UNL     1       3.963   5.200  -8.182  0.00  0.00    +0.020 A 
ATOM     12  C   UNL     1       4.222   4.859  -9.484  0.00  0.00    +0.018 A 
ATOM     13  C   UNL     1       4.564   5.853 -10.373  0.00  0.00    -0.056 A 
ATOM     14  C   UNL     1       4.635   7.137  -9.935  0.00  0.00    +0.047 A 
ATOM     15  S   UNL     1       4.201   6.969  -8.212  0.00  0.00    -0.096 S 
BRANCH  13  16
ATOM     16  C   UNL     1       4.856   5.520 -11.813  0.00  0.00    -0.042 C 
BRANCH  16  17
ATOM     17  N   UNL     1       3.614   5.593 -12.595  0.00  0.00    +0.385 N 
ATOM     18  C   UNL     1       2.686   4.550 -12.137  0.00  0.00    -0.050 C 
ATOM     19  C   UNL     1       1.393   4.627 -12.952  0.00  0.00    +0.141 C 
ATOM     20  O   UNL     1       1.702   4.483 -14.341  0.00  0.00    -0.383 OA
ATOM     21  C   UNL     1       2.622   5.463 -14.829  0.00  0.00    +0.141 C 
ATOM     22  C   UNL     1       3.918   5.386 -14.017  0.00  0.00    -0.050 C 
ATOM     23  H   UNL     1       3.190   6.499 -12.469  0.00  0.00    -0.081 HD
ENDBRANCH  16  17
ENDBRANCH  13  16
ENDBRANCH   5  11
BRANCH   1  24
ATOM     24  N   UNL     1       2.359   0.474  -4.024  0.00  0.00    -0.312 N 
ATOM     25  H   UNL     1       2.813   0.024  -4.753  0.00  0.00    +0.152 HD
BRANCH  24  28
ATOM     26  C   UNL     1       1.358  -1.905  -1.401  0.00  0.00    +0.140 A 
ATOM     27  C   UNL     1       2.148  -1.182  -2.280  0.00  0.00    +0.071 A 
ATOM     28  C   UNL     1       1.565  -0.258  -3.136  0.00  0.00    +0.053 A 
ATOM     29  C   UNL     1       0.188  -0.061  -3.110  0.00  0.00    +0.064 A 
ATOM     30  C   UNL     1      -0.597  -0.784  -2.232  0.00  0.00    +0.045 A 
ATOM     31  C   UNL     1      -0.017  -1.709  -1.382  0.00  0.00    +0.084 A 
ATOM     32 CL   UNL     1      -1.007  -2.621  -0.286  0.00  0.00    -0.080 Cl
ATOM     33 CL   UNL     1      -0.544   1.094  -4.179  0.00  0.00    -0.082 Cl
BRANCH  26  35
ATOM     34  C   UNL     1       3.354  -2.879  -0.553  0.00  0.00    +0.277 C 
ATOM     35  O   UNL     1       1.927  -2.811  -0.563  0.00  0.00    -0.494 OA
ENDBRANCH  26  35
ENDBRANCH  24  28
ENDBRANCH   1  24
BRANCH  10  36
ATOM     36  C   UNL     1       1.898   1.656  -1.483  0.00  0.00    +0.103 C 
ATOM     37  N   UNL     1       1.597   1.030  -0.584  0.00  0.00    -0.191 NA
ENDBRANCH  10  36
TORSDOF 7
