REMARK  Name = CHEMBL140242
REMARK  7 active torsions:
REMARK  status: ('A' for Active; 'I' for Inactive)
REMARK    1  A    between atoms: C_1  and  N_2
REMARK    2  A    between atoms: N_2  and  C_3
REMARK    3  A    between atoms: N_2  and  C_4
REMARK    4  A    between atoms: C_4  and  C_5
REMARK    5  A    between atoms: C_5  and  C_6
REMARK    6  A    between atoms: C_6  and  N_7
REMARK    7  A    between atoms: C_11  and  C_14
REMARK                            x       y       z     vdW  Elec       q    Type
REMARK                         _______ _______ _______ _____ _____    ______ ____
ROOT
ATOM      1  N   UNL     1      -2.777  -4.025  -0.239  0.00  0.00    -0.292 N 
ATOM      2  C   UNL     1      -2.811  -4.598  -1.486  0.00  0.00    +0.148 A 
ATOM      3  C   UNL     1      -2.795  -6.002  -1.627  0.00  0.00    +0.037 A 
ATOM      4  C   UNL     1      -2.744  -6.832  -0.483  0.00  0.00    +0.027 A 
ATOM      5  C   UNL     1      -2.711  -6.252   0.756  0.00  0.00    +0.050 A 
ATOM      6  C   UNL     1      -2.723  -4.791   0.867  0.00  0.00    +0.261 A 
ATOM      7  O   UNL     1      -2.688  -4.267   1.966  0.00  0.00    -0.267 OA
ATOM      8  C   UNL     1      -2.830  -6.547  -2.919  0.00  0.00    +0.126 A 
ATOM      9  N   UNL     1      -2.877  -5.725  -3.950  0.00  0.00    -0.222 NA
ATOM     10  C   UNL     1      -2.890  -4.407  -3.780  0.00  0.00    +0.214 A 
ATOM     11  N   UNL     1      -2.858  -3.847  -2.580  0.00  0.00    -0.197 NA
ATOM     12  N   UNL     1      -2.939  -3.593  -4.893  0.00  0.00    -0.327 N 
ATOM     13  H   UNL     1      -2.962  -3.985  -5.780  0.00  0.00    +0.145 HD
ATOM     14  H   UNL     1      -2.949  -2.629  -4.789  0.00  0.00    +0.145 HD
ENDROOT
BRANCH   5  15
ATOM     15  C   UNL     1      -2.658  -7.093   1.974  0.00  0.00    +0.024 A 
ATOM     16  C   UNL     1      -3.839  -7.513   2.588  0.00  0.00    +0.050 A 
ATOM     17  C   UNL     1      -3.783  -8.298   3.723  0.00  0.00    +0.021 A 
ATOM     18  C   UNL     1      -2.559  -8.668   4.252  0.00  0.00    +0.003 A 
ATOM     19  C   UNL     1      -1.385  -8.255   3.649  0.00  0.00    +0.021 A 
ATOM     20  C   UNL     1      -1.427  -7.474   2.510  0.00  0.00    +0.050 A 
ATOM     21 CL   UNL     1       0.048  -6.964   1.750  0.00  0.00    -0.083 Cl
ATOM     22 CL   UNL     1      -5.375  -7.050   1.926  0.00  0.00    -0.083 Cl
ENDBRANCH   5  15
BRANCH   1  23
ATOM     23  C   UNL     1      -2.794  -2.566  -0.111  0.00  0.00    +0.125 C 
BRANCH  23  24
ATOM     24  C   UNL     1      -1.358  -2.037  -0.122  0.00  0.00    +0.003 C 
BRANCH  24  25
ATOM     25  C   UNL     1      -1.376  -0.512   0.012  0.00  0.00    -0.078 C 
BRANCH  25  27
ATOM     26  C   UNL     1      -0.018   1.465   0.010  0.00  0.00    -0.097 C 
ATOM     27  N   UNL     1       0.002  -0.004   0.002  0.00  0.00    +0.376 N 
ATOM     28  C   UNL     1       0.713  -0.491   1.192  0.00  0.00    -0.097 C 
ATOM     29  H   UNL     1       0.474  -0.330  -0.828  0.00  0.00    -0.083 HD
ENDBRANCH  25  27
ENDBRANCH  24  25
ENDBRANCH  23  24
ENDBRANCH   1  23
TORSDOF 5
