REMARK  Name = CHEMBL397936
REMARK  11 active torsions:
REMARK  status: ('A' for Active; 'I' for Inactive)
REMARK    1  A    between atoms: C_1  and  C_2
REMARK    2  A    between atoms: C_6  and  C_37
REMARK    3  A    between atoms: C_7  and  C_8
REMARK    4  A    between atoms: C_10  and  C_36
REMARK    5  A    between atoms: N_18  and  C_19
REMARK    6  A    between atoms: C_23  and  O_25
REMARK    7  A    between atoms: O_25  and  C_26
REMARK    8  A    between atoms: C_26  and  C_27
REMARK    9  A    between atoms: C_27  and  C_28
REMARK   10  A    between atoms: C_27  and  N_29
REMARK   11  A    between atoms: N_32  and  C_35
REMARK                            x       y       z     vdW  Elec       q    Type
REMARK                         _______ _______ _______ _____ _____    ______ ____
ROOT
ATOM      1  C   UNL     1       1.359   2.187   1.974  0.00  0.00    -0.015 A 
ATOM      2  C   UNL     1       1.963   1.349   2.926  0.00  0.00    +0.014 A 
ATOM      3  C   UNL     1       1.619   1.423   4.239  0.00  0.00    -0.022 A 
ATOM      4  C   UNL     1       0.648   2.347   4.657  0.00  0.00    +0.097 A 
ATOM      5  C   UNL     1       0.030   3.200   3.704  0.00  0.00    +0.112 A 
ATOM      6  C   UNL     1       0.403   3.111   2.355  0.00  0.00    +0.040 A 
ATOM      7  N   UNL     1      -0.893   4.074   4.120  0.00  0.00    -0.144 NA
ATOM      8  N   UNL     1      -1.206   4.131   5.369  0.00  0.00    -0.112 NA
ATOM      9  C   UNL     1      -0.635   3.338   6.278  0.00  0.00    +0.240 A 
ATOM     10  N   UNL     1       0.284   2.450   5.941  0.00  0.00    -0.211 NA
ATOM     11  N   UNL     1      -1.015   3.448   7.605  0.00  0.00    -0.282 N 
ATOM     12  C   UNL     1       2.280   0.515   5.244  0.00  0.00    +0.046 C 
ATOM     13  H   UNL     1      -0.552   2.935   8.286  0.00  0.00    +0.155 HD
ENDROOT
BRANCH   1  20
ATOM     14  C   UNL     1       2.691   4.412   0.692  0.00  0.00    +0.044 C 
ATOM     15  C   UNL     1       2.397   3.150  -0.078  0.00  0.00    -0.042 A 
ATOM     16  C   UNL     1       2.767   3.047  -1.403  0.00  0.00    +0.004 A 
ATOM     17  C   UNL     1       2.497   1.889  -2.111  0.00  0.00    +0.001 A 
ATOM     18  C   UNL     1       1.855   0.830  -1.496  0.00  0.00    +0.004 A 
ATOM     19  C   UNL     1       1.480   0.922  -0.171  0.00  0.00    -0.042 A 
ATOM     20  C   UNL     1       1.754   2.084   0.549  0.00  0.00    -0.012 A 
ATOM     21  C   UNL     1       0.780  -0.233   0.498  0.00  0.00    +0.044 C 
ENDBRANCH   1  20
BRANCH  11  22
ATOM     22  C   UNL     1      -2.065   4.298   7.963  0.00  0.00    +0.037 A 
ATOM     23  C   UNL     1      -3.190   4.393   7.153  0.00  0.00    +0.023 A 
ATOM     24  C   UNL     1      -4.228   5.233   7.507  0.00  0.00    +0.005 A 
ATOM     25  C   UNL     1      -4.151   5.979   8.668  0.00  0.00    +0.046 A 
ATOM     26  C   UNL     1      -3.030   5.888   9.481  0.00  0.00    +0.122 A 
ATOM     27  C   UNL     1      -1.988   5.043   9.132  0.00  0.00    +0.069 A 
BRANCH  26  28
ATOM     28  O   UNL     1      -2.956   6.623  10.622  0.00  0.00    -0.490 OA
BRANCH  28  29
ATOM     29  C   UNL     1      -4.068   7.469  10.922  0.00  0.00    +0.247 C 
BRANCH  29  30
ATOM     30  C   UNL     1      -3.804   8.211  12.234  0.00  0.00    +0.091 C 
ATOM     31  C   UNL     1      -2.475   8.962  12.136  0.00  0.00    +0.027 C 
BRANCH  30  32
ATOM     32  N   UNL     1      -3.741   7.246  13.339  0.00  0.00    -0.300 NA
ATOM     33  C   UNL     1      -4.970   6.443  13.408  0.00  0.00    +0.066 C 
ATOM     34  C   UNL     1      -4.841   5.412  14.531  0.00  0.00    -0.064 C 
ATOM     35  N   UNL     1      -4.615   6.104  15.807  0.00  0.00    +0.379 N 
ATOM     36  C   UNL     1      -3.371   6.881  15.731  0.00  0.00    -0.064 C 
ATOM     37  C   UNL     1      -3.489   7.925  14.618  0.00  0.00    +0.066 C 
ATOM     38  C   UNL     1      -4.508   5.114  16.888  0.00  0.00    -0.096 C 
ATOM     39  H   UNL     1      -5.388   6.724  15.995  0.00  0.00    -0.082 HD
ENDBRANCH  30  32
ENDBRANCH  29  30
ENDBRANCH  28  29
ENDBRANCH  26  28
ENDBRANCH  11  22
TORSDOF 6
