REMARK  Name = CHEMBL562157
REMARK  4 active torsions:
REMARK  status: ('A' for Active; 'I' for Inactive)
REMARK    1  A    between atoms: C_1  and  C_2
REMARK    2  A    between atoms: C_4  and  N_8
REMARK    3  A    between atoms: C_17  and  S_19
REMARK    4  A    between atoms: S_19  and  C_20
REMARK                            x       y       z     vdW  Elec       q    Type
REMARK                         _______ _______ _______ _____ _____    ______ ____
ROOT
ATOM      1  N   UNL     1       0.061  -3.255   1.514  0.00  0.00    -0.284 N 
ATOM      2  C   UNL     1       0.074  -3.122   2.887  0.00  0.00    +0.136 A 
ATOM      3  C   UNL     1       0.108  -4.264   3.728  0.00  0.00    +0.041 A 
ATOM      4  C   UNL     1       0.129  -5.564   3.212  0.00  0.00    +0.013 A 
ATOM      5  C   UNL     1       0.161  -6.626   4.067  0.00  0.00    +0.001 A 
ATOM      6  C   UNL     1       0.173  -6.434   5.446  0.00  0.00    +0.002 A 
ATOM      7  C   UNL     1       0.153  -5.179   5.980  0.00  0.00    +0.028 A 
ATOM      8  C   UNL     1       0.120  -4.065   5.130  0.00  0.00    +0.077 A 
ATOM      9  N   UNL     1       0.100  -2.811   5.605  0.00  0.00    -0.221 NA
ATOM     10  C   UNL     1       0.069  -1.784   4.777  0.00  0.00    +0.195 A 
ATOM     11  N   UNL     1       0.062  -1.925   3.454  0.00  0.00    -0.206 NA
ATOM     12  H   UNL     1       0.071  -4.137   1.112  0.00  0.00    +0.155 HD
ENDROOT
BRANCH   1  16
ATOM     13  C   UNL     1      -0.031   1.502   0.010  0.00  0.00    +0.067 C 
ATOM     14  C   UNL     1      -0.007  -0.005   0.002  0.00  0.00    +0.062 A 
ATOM     15  C   UNL     1       0.019  -0.828   1.131  0.00  0.00    +0.068 A 
ATOM     16  C   UNL     1       0.034  -2.121   0.705  0.00  0.00    +0.120 A 
ATOM     17  N   UNL     1       0.019  -2.103  -0.653  0.00  0.00    -0.264 N 
ATOM     18  N   UNL     1      -0.012  -0.764  -1.063  0.00  0.00    -0.178 NA
ATOM     19  H   UNL     1       0.025  -2.879  -1.234  0.00  0.00    +0.190 HD
ENDBRANCH   1  16
BRANCH  10  20
ATOM     20  S   UNL     1       0.043  -0.157   5.453  0.00  0.00    -0.050 S 
BRANCH  20  21
ATOM     21  C   UNL     1      -0.083  -0.418   7.191  0.00  0.00    +0.016 A 
ATOM     22  C   UNL     1       1.061  -0.430   7.978  0.00  0.00    +0.016 A 
ATOM     23  C   UNL     1       0.959  -0.635   9.340  0.00  0.00    +0.021 A 
ATOM     24  C   UNL     1      -0.283  -0.828   9.920  0.00  0.00    +0.041 A 
ATOM     25  C   UNL     1      -1.425  -0.817   9.138  0.00  0.00    +0.021 A 
ATOM     26  C   UNL     1      -1.329  -0.607   7.777  0.00  0.00    +0.016 A 
ATOM     27 CL   UNL     1      -0.408  -1.086  11.633  0.00  0.00    -0.084 Cl
ENDBRANCH  20  21
ENDBRANCH  10  20
TORSDOF 3
