REMARK  Name = CHEMBL300321
REMARK  10 active torsions:
REMARK  status: ('A' for Active; 'I' for Inactive)
REMARK    1  A    between atoms: C_1  and  N_2
REMARK    2  A    between atoms: N_2  and  S_3
REMARK    3  A    between atoms: S_3  and  C_6
REMARK    4  A    between atoms: C_13  and  C_14
REMARK    5  A    between atoms: C_15  and  C_24
REMARK    6  A    between atoms: C_24  and  C_25
REMARK    7  A    between atoms: C_25  and  C_26
REMARK    8  A    between atoms: C_26  and  N_27
REMARK    9  A    between atoms: N_27  and  C_28
REMARK   10  A    between atoms: N_27  and  C_29
REMARK                            x       y       z     vdW  Elec       q    Type
REMARK                         _______ _______ _______ _____ _____    ______ ____
ROOT
ATOM      1  C   UNL     1      -1.778  -0.239  -1.652  0.00  0.00    +0.106 A 
ATOM      2  C   UNL     1      -1.774   1.119  -1.922  0.00  0.00    +0.030 A 
ATOM      3  C   UNL     1      -1.817   1.578  -3.223  0.00  0.00    +0.026 A 
ATOM      4  C   UNL     1      -1.865   0.676  -4.280  0.00  0.00    +0.042 A 
ATOM      5  C   UNL     1      -1.868  -0.698  -4.003  0.00  0.00    +0.010 A 
ATOM      6  C   UNL     1      -1.819  -1.150  -2.688  0.00  0.00    +0.039 A 
ATOM      7  C   UNL     1      -1.922  -1.387  -5.311  0.00  0.00    +0.048 C 
ATOM      8  C   UNL     1      -1.944  -2.746  -5.543  0.00  0.00    +0.039 C 
ATOM      9  C   UNL     1      -1.948  -0.308  -6.311  0.00  0.00    +0.249 C 
ATOM     10  O   UNL     1      -1.994  -0.452  -7.519  0.00  0.00    -0.270 OA
ATOM     11  N   UNL     1      -1.913   0.865  -5.656  0.00  0.00    -0.281 N 
ATOM     12  H   UNL     1      -1.920   1.733  -6.089  0.00  0.00    +0.155 HD
ENDROOT
BRANCH   8  13
ATOM     13  C   UNL     1      -2.157  -3.237  -6.853  0.00  0.00    +0.044 A 
ATOM     14  C   UNL     1      -1.599  -4.369  -7.376  0.00  0.00    -0.015 A 
ATOM     15  C   UNL     1      -2.065  -4.503  -8.704  0.00  0.00    +0.003 A 
ATOM     16  C   UNL     1      -1.837  -5.451  -9.712  0.00  0.00    +0.010 A 
ATOM     17  C   UNL     1      -2.443  -5.310 -10.926  0.00  0.00    +0.001 A 
ATOM     18  C   UNL     1      -3.286  -4.233 -11.175  0.00  0.00    +0.002 A 
ATOM     19  C   UNL     1      -3.525  -3.289 -10.201  0.00  0.00    +0.026 A 
ATOM     20  C   UNL     1      -2.920  -3.411  -8.955  0.00  0.00    +0.047 A 
ATOM     21  N   UNL     1      -2.967  -2.651  -7.808  0.00  0.00    -0.354 N 
ATOM     22  H   UNL     1      -3.481  -1.837  -7.690  0.00  0.00    +0.166 HD
BRANCH  14  23
ATOM     23  C   UNL     1      -0.657  -5.306  -6.665  0.00  0.00    +0.036 C 
BRANCH  23  24
ATOM     24  C   UNL     1      -1.462  -6.395  -5.953  0.00  0.00    -0.014 C 
BRANCH  24  25
ATOM     25  C   UNL     1      -0.505  -7.346  -5.231  0.00  0.00    -0.079 C 
BRANCH  25  26
ATOM     26  N   UNL     1      -1.278  -8.392  -4.547  0.00  0.00    +0.376 N 
ATOM     27  C   UNL     1      -0.358  -9.372  -3.955  0.00  0.00    -0.097 C 
ATOM     28  C   UNL     1      -2.093  -7.784  -3.487  0.00  0.00    -0.097 C 
ATOM     29  H   UNL     1      -1.880  -8.854  -5.211  0.00  0.00    -0.083 HD
ENDBRANCH  25  26
ENDBRANCH  24  25
ENDBRANCH  23  24
ENDBRANCH  14  23
ENDBRANCH   8  13
BRANCH   1  30
ATOM     30  S   UNL     1      -1.722  -0.805   0.015  0.00  0.00    +0.058 S 
ATOM     31  O   UNL     1      -2.280  -2.112   0.019  0.00  0.00    -0.153 OA
ATOM     32  O   UNL     1      -2.240   0.247   0.819  0.00  0.00    -0.153 OA
BRANCH  30  34
ATOM     33  C   UNL     1       0.741   0.208   0.482  0.00  0.00    +0.127 C 
ATOM     34  N   UNL     1      -0.126  -0.971   0.423  0.00  0.00    -0.193 NA
ATOM     35  H   UNL     1       0.235  -1.849   0.623  0.00  0.00    +0.148 HD
ENDBRANCH  30  34
ENDBRANCH   1  30
TORSDOF 7
