REMARK  Name = CHEMBL339893
REMARK  11 active torsions:
REMARK  status: ('A' for Active; 'I' for Inactive)
REMARK    1  A    between atoms: C_1  and  O_2
REMARK    2  A    between atoms: O_2  and  C_3
REMARK    3  A    between atoms: C_8  and  O_9
REMARK    4  A    between atoms: O_9  and  C_10
REMARK    5  A    between atoms: C_10  and  C_11
REMARK    6  A    between atoms: C_11  and  N_12
REMARK    7  A    between atoms: C_20  and  C_33
REMARK    8  A    between atoms: C_21  and  N_22
REMARK    9  A    between atoms: N_22  and  C_23
REMARK   10  A    between atoms: C_25  and  O_31
REMARK   11  A    between atoms: O_31  and  C_32
REMARK                            x       y       z     vdW  Elec       q    Type
REMARK                         _______ _______ _______ _____ _____    ______ ____
ROOT
ATOM      1  C   UNL     1       0.828  -0.647  -1.612  0.00  0.00    +0.162 A 
ATOM      2  C   UNL     1       1.610   0.003  -2.523  0.00  0.00    +0.061 A 
ATOM      3  C   UNL     1       2.302  -0.731  -3.498  0.00  0.00    +0.026 A 
ATOM      4  C   UNL     1       2.187  -2.142  -3.534  0.00  0.00    +0.077 A 
ATOM      5  C   UNL     1       1.377  -2.787  -2.588  0.00  0.00    +0.077 A 
ATOM      6  C   UNL     1       0.713  -2.044  -1.638  0.00  0.00    +0.164 A 
ATOM      7  N   UNL     1       2.847  -2.849  -4.463  0.00  0.00    -0.253 NA
ATOM      8  C   UNL     1       3.611  -2.276  -5.359  0.00  0.00    +0.132 A 
ATOM      9  C   UNL     1       3.783  -0.883  -5.397  0.00  0.00    +0.091 A 
ATOM     10  C   UNL     1       3.120  -0.084  -4.453  0.00  0.00    +0.060 A 
ENDROOT
BRANCH   1  12
ATOM     11  C   UNL     1       0.316   1.486  -0.695  0.00  0.00    +0.277 C 
ATOM     12  O   UNL     1       0.158   0.067  -0.668  0.00  0.00    -0.491 OA
ENDBRANCH   1  12
BRANCH  10  13
ATOM     13  N   UNL     1       3.263   1.289  -4.456  0.00  0.00    -0.312 N 
ATOM     14  H   UNL     1       3.140   1.792  -3.635  0.00  0.00    +0.152 HD
BRANCH  13  15
ATOM     15  C   UNL     1       3.584   1.956  -5.643  0.00  0.00    +0.053 A 
ATOM     16  C   UNL     1       4.817   2.581  -5.776  0.00  0.00    +0.071 A 
ATOM     17  C   UNL     1       5.132   3.240  -6.953  0.00  0.00    +0.140 A 
ATOM     18  C   UNL     1       4.216   3.275  -7.997  0.00  0.00    +0.084 A 
ATOM     19  C   UNL     1       2.989   2.653  -7.862  0.00  0.00    +0.045 A 
ATOM     20  C   UNL     1       2.673   1.989  -6.691  0.00  0.00    +0.064 A 
ATOM     21 CL   UNL     1       1.134   1.202  -6.529  0.00  0.00    -0.082 Cl
ATOM     22 CL   UNL     1       4.612   4.101  -9.471  0.00  0.00    -0.080 Cl
BRANCH  17  23
ATOM     23  O   UNL     1       6.338   3.853  -7.087  0.00  0.00    -0.494 OA
ATOM     24  C   UNL     1       7.273   3.686  -6.019  0.00  0.00    +0.277 C 
ENDBRANCH  17  23
ENDBRANCH  13  15
ENDBRANCH  10  13
BRANCH   9  25
ATOM     25  C   UNL     1       4.625  -0.285  -6.388  0.00  0.00    +0.103 C 
ATOM     26  N   UNL     1       5.293   0.190  -7.175  0.00  0.00    -0.191 NA
ENDBRANCH   9  25
BRANCH   6  27
ATOM     27  O   UNL     1      -0.066  -2.671  -0.719  0.00  0.00    -0.487 OA
BRANCH  27  28
ATOM     28  C   UNL     1      -0.143  -4.096  -0.797  0.00  0.00    +0.244 C 
BRANCH  28  29
ATOM     29  C   UNL     1      -1.060  -4.619   0.311  0.00  0.00    +0.125 C 
BRANCH  29  30
ATOM     30  N   UNL     1      -2.431  -4.148   0.075  0.00  0.00    -0.295 NA
ATOM     31  C   UNL     1      -3.232  -4.220   1.306  0.00  0.00    +0.112 C 
ATOM     32  C   UNL     1      -4.632  -3.665   1.031  0.00  0.00    +0.175 C 
ATOM     33  O   UNL     1      -5.226  -4.396  -0.045  0.00  0.00    -0.377 OA
ATOM     34  C   UNL     1      -4.472  -4.348  -1.260  0.00  0.00    +0.175 C 
ATOM     35  C   UNL     1      -3.071  -4.909  -1.008  0.00  0.00    +0.112 C 
ENDBRANCH  29  30
ENDBRANCH  28  29
ENDBRANCH  27  28
ENDBRANCH   6  27
TORSDOF 9
