REMARK  Name = CHEMBL375012
REMARK  8 active torsions:
REMARK  status: ('A' for Active; 'I' for Inactive)
REMARK    1  A    between atoms: C_1  and  O_2
REMARK    2  A    between atoms: O_2  and  C_3
REMARK    3  A    between atoms: C_5  and  N_11
REMARK    4  A    between atoms: N_11  and  C_12
REMARK    5  A    between atoms: C_15  and  C_23
REMARK    6  A    between atoms: C_20  and  C_21
REMARK    7  A    between atoms: C_26  and  C_29
REMARK    8  A    between atoms: C_29  and  N_30
REMARK                            x       y       z     vdW  Elec       q    Type
REMARK                         _______ _______ _______ _____ _____    ______ ____
ROOT
ATOM      1  C   UNL     1       2.115   1.849  -4.297  0.00  0.00    +0.060 A 
ATOM      2  C   UNL     1       2.290   2.595  -5.497  0.00  0.00    +0.031 A 
ATOM      3  C   UNL     1       2.707   2.123  -6.805  0.00  0.00    +0.028 A 
ATOM      4  C   UNL     1       2.809   3.012  -7.821  0.00  0.00    +0.022 A 
ATOM      5  S   UNL     1       2.343   4.558  -7.067  0.00  0.00    -0.069 S 
ATOM      6  C   UNL     1       2.024   3.979  -5.418  0.00  0.00    +0.111 A 
ATOM      7  N   UNL     1       1.636   4.571  -4.306  0.00  0.00    -0.246 NA
ATOM      8  C   UNL     1       1.468   3.904  -3.184  0.00  0.00    +0.132 A 
ATOM      9  C   UNL     1       1.694   2.523  -3.143  0.00  0.00    +0.092 A 
ENDROOT
BRANCH   4  10
ATOM     10  C   UNL     1       3.212   2.760  -9.221  0.00  0.00    -0.011 A 
ATOM     11  C   UNL     1       3.541   1.468  -9.634  0.00  0.00    +0.009 A 
ATOM     12  C   UNL     1       3.916   1.240 -10.942  0.00  0.00    +0.005 A 
ATOM     13  C   UNL     1       3.966   2.289 -11.843  0.00  0.00    -0.033 A 
ATOM     14  C   UNL     1       3.642   3.572 -11.440  0.00  0.00    +0.005 A 
ATOM     15  C   UNL     1       3.259   3.812 -10.137  0.00  0.00    +0.009 A 
BRANCH  13  16
ATOM     16  C   UNL     1       4.378   2.032 -13.271  0.00  0.00    +0.119 C 
BRANCH  16  17
ATOM     17  N   UNL     1       3.188   1.721 -14.074  0.00  0.00    -0.294 NA
ATOM     18  C   UNL     1       2.588   0.446 -13.655  0.00  0.00    +0.113 C 
ATOM     19  C   UNL     1       1.321   0.190 -14.476  0.00  0.00    +0.175 C 
ATOM     20  O   UNL     1       1.650   0.203 -15.868  0.00  0.00    -0.377 OA
ATOM     21  C   UNL     1       2.236   1.430 -16.310  0.00  0.00    +0.175 C 
ATOM     22  C   UNL     1       3.512   1.698 -15.508  0.00  0.00    +0.113 C 
ENDBRANCH  16  17
ENDBRANCH  13  16
ENDBRANCH   4  10
BRANCH   1  23
ATOM     23  N   UNL     1       2.350   0.486  -4.272  0.00  0.00    -0.312 N 
ATOM     24  H   UNL     1       1.950  -0.062  -3.580  0.00  0.00    +0.152 HD
BRANCH  23  27
ATOM     25  C   UNL     1       3.429  -1.567  -7.129  0.00  0.00    +0.140 A 
ATOM     26  C   UNL     1       2.619  -0.987  -6.165  0.00  0.00    +0.071 A 
ATOM     27  C   UNL     1       3.164  -0.101  -5.246  0.00  0.00    +0.053 A 
ATOM     28  C   UNL     1       4.519   0.204  -5.296  0.00  0.00    +0.064 A 
ATOM     29  C   UNL     1       5.324  -0.376  -6.259  0.00  0.00    +0.045 A 
ATOM     30  C   UNL     1       4.783  -1.264  -7.171  0.00  0.00    +0.084 A 
ATOM     31 CL   UNL     1       5.798  -1.996  -8.374  0.00  0.00    -0.080 Cl
ATOM     32 CL   UNL     1       5.202   1.314  -4.149  0.00  0.00    -0.082 Cl
BRANCH  25  34
ATOM     33  C   UNL     1       1.480  -2.615  -8.001  0.00  0.00    +0.277 C 
ATOM     34  O   UNL     1       2.898  -2.436  -8.030  0.00  0.00    -0.494 OA
ENDBRANCH  25  34
ENDBRANCH  23  27
ENDBRANCH   1  23
BRANCH   9  35
ATOM     35  C   UNL     1       1.503   1.801  -1.921  0.00  0.00    +0.103 C 
ATOM     36  N   UNL     1       1.352   1.228  -0.952  0.00  0.00    -0.191 NA
ENDBRANCH   9  35
TORSDOF 7
