REMARK  Name = CHEMBL549536
REMARK  3 active torsions:
REMARK  status: ('A' for Active; 'I' for Inactive)
REMARK    1  A    between atoms: C_1  and  C_2
REMARK    2  A    between atoms: C_4  and  N_8
REMARK    3  A    between atoms: C_17  and  C_19
REMARK                            x       y       z     vdW  Elec       q    Type
REMARK                         _______ _______ _______ _____ _____    ______ ____
ROOT
ATOM      1  N   UNL     1       0.060  -3.254   1.514  0.00  0.00    -0.284 N 
ATOM      2  C   UNL     1       0.072  -3.122   2.887  0.00  0.00    +0.136 A 
ATOM      3  C   UNL     1       0.102  -4.263   3.727  0.00  0.00    +0.041 A 
ATOM      4  C   UNL     1       0.121  -5.563   3.212  0.00  0.00    +0.013 A 
ATOM      5  C   UNL     1       0.149  -6.626   4.068  0.00  0.00    +0.001 A 
ATOM      6  C   UNL     1       0.160  -6.433   5.446  0.00  0.00    +0.002 A 
ATOM      7  C   UNL     1       0.143  -5.179   5.981  0.00  0.00    +0.028 A 
ATOM      8  C   UNL     1       0.114  -4.065   5.130  0.00  0.00    +0.077 A 
ATOM      9  N   UNL     1       0.096  -2.812   5.605  0.00  0.00    -0.227 NA
ATOM     10  C   UNL     1       0.069  -1.784   4.778  0.00  0.00    +0.162 A 
ATOM     11  N   UNL     1       0.062  -1.925   3.454  0.00  0.00    -0.212 NA
ATOM     12  H   UNL     1       0.068  -4.137   1.112  0.00  0.00    +0.155 HD
ENDROOT
BRANCH   1  16
ATOM     13  C   UNL     1      -0.018   1.503   0.010  0.00  0.00    +0.067 C 
ATOM     14  C   UNL     1       0.002  -0.004   0.002  0.00  0.00    +0.062 A 
ATOM     15  C   UNL     1       0.024  -0.827   1.131  0.00  0.00    +0.068 A 
ATOM     16  C   UNL     1       0.037  -2.120   0.705  0.00  0.00    +0.120 A 
ATOM     17  N   UNL     1       0.024  -2.102  -0.653  0.00  0.00    -0.264 N 
ATOM     18  N   UNL     1      -0.003  -0.763  -1.063  0.00  0.00    -0.178 NA
ATOM     19  H   UNL     1       0.028  -2.878  -1.235  0.00  0.00    +0.190 HD
ENDBRANCH   1  16
BRANCH  10  20
ATOM     20  C   UNL     1       0.050  -0.414   5.348  0.00  0.00    +0.022 A 
ATOM     21  C   UNL     1       0.015   0.708   4.516  0.00  0.00    +0.031 A 
ATOM     22  C   UNL     1      -0.003   1.965   5.088  0.00  0.00    +0.111 A 
ATOM     23  N   UNL     1       0.014   2.113   6.398  0.00  0.00    -0.263 NA
ATOM     24  C   UNL     1       0.047   1.080   7.218  0.00  0.00    +0.111 A 
ATOM     25  C   UNL     1       0.061  -0.211   6.730  0.00  0.00    +0.031 A 
ENDBRANCH  10  20
TORSDOF 2
