REMARK  Name = CHEMBL221236
REMARK  10 active torsions:
REMARK  status: ('A' for Active; 'I' for Inactive)
REMARK    1  A    between atoms: C_1  and  C_2
REMARK    2  A    between atoms: C_2  and  O_3
REMARK    3  A    between atoms: O_3  and  C_4
REMARK    4  A    between atoms: N_6  and  C_36
REMARK    5  A    between atoms: N_9  and  C_10
REMARK    6  A    between atoms: C_13  and  N_16
REMARK    7  A    between atoms: C_20  and  C_35
REMARK    8  A    between atoms: C_22  and  C_27
REMARK    9  A    between atoms: C_28  and  C_34
REMARK   10  A    between atoms: C_32  and  C_33
REMARK                            x       y       z     vdW  Elec       q    Type
REMARK                         _______ _______ _______ _____ _____    ______ ____
ROOT
ATOM      1  N   UNL     1      -5.135   0.957   0.843  0.00  0.00    -0.282 N 
ATOM      2  C   UNL     1      -6.409   0.460   1.053  0.00  0.00    +0.240 A 
ATOM      3  N   UNL     1      -7.452   1.224   0.784  0.00  0.00    -0.211 NA
ATOM      4  C   UNL     1      -8.683   0.740   0.988  0.00  0.00    +0.097 A 
ATOM      5  C   UNL     1      -9.830   1.505   0.720  0.00  0.00    -0.022 A 
ATOM      6  C   UNL     1     -11.063   0.977   0.940  0.00  0.00    +0.014 A 
ATOM      7  C   UNL     1     -11.210  -0.329   1.435  0.00  0.00    -0.015 A 
ATOM      8  C   UNL     1     -10.101  -1.107   1.709  0.00  0.00    +0.040 A 
ATOM      9  C   UNL     1      -8.819  -0.583   1.488  0.00  0.00    +0.112 A 
ATOM     10  N   UNL     1      -7.716  -1.298   1.738  0.00  0.00    -0.144 NA
ATOM     11  N   UNL     1      -6.556  -0.783   1.518  0.00  0.00    -0.112 NA
ATOM     12  C   UNL     1      -9.694   2.909   0.190  0.00  0.00    +0.046 C 
ATOM     13  H   UNL     1      -5.012   1.883   0.580  0.00  0.00    +0.155 HD
ENDROOT
BRANCH   7  14
ATOM     14  C   UNL     1     -12.569  -0.878   1.665  0.00  0.00    -0.012 A 
ATOM     15  C   UNL     1     -13.398  -0.311   2.631  0.00  0.00    -0.042 A 
ATOM     16  C   UNL     1     -14.661  -0.826   2.841  0.00  0.00    +0.004 A 
ATOM     17  C   UNL     1     -15.104  -1.903   2.096  0.00  0.00    +0.001 A 
ATOM     18  C   UNL     1     -14.286  -2.471   1.136  0.00  0.00    +0.004 A 
ATOM     19  C   UNL     1     -13.023  -1.960   0.913  0.00  0.00    -0.042 A 
ATOM     20  C   UNL     1     -12.134  -2.576  -0.137  0.00  0.00    +0.044 C 
ATOM     21  C   UNL     1     -12.916   0.863   3.445  0.00  0.00    +0.044 C 
ENDBRANCH   7  14
BRANCH   1  25
ATOM     22  C   UNL     1      -1.820  -1.524   1.339  0.00  0.00    +0.032 A 
ATOM     23  C   UNL     1      -3.016  -2.049   0.866  0.00  0.00    +0.025 A 
ATOM     24  C   UNL     1      -4.113  -1.227   0.702  0.00  0.00    +0.025 A 
ATOM     25  C   UNL     1      -4.021   0.124   1.010  0.00  0.00    +0.034 A 
ATOM     26  C   UNL     1      -2.826   0.649   1.482  0.00  0.00    +0.025 A 
ATOM     27  C   UNL     1      -1.730  -0.174   1.651  0.00  0.00    +0.025 A 
BRANCH  22  33
ATOM     28  C   UNL     1       0.494  -2.187   0.674  0.00  0.00    +0.220 C 
ATOM     29  C   UNL     1       1.716  -2.105   1.596  0.00  0.00    +0.135 C 
ATOM     30  N   UNL     1       1.735  -3.275   2.484  0.00  0.00    -0.300 NA
ATOM     31  C   UNL     1       0.560  -3.295   3.365  0.00  0.00    +0.103 C 
ATOM     32  C   UNL     1      -0.709  -3.425   2.516  0.00  0.00    +0.123 C 
ATOM     33  N   UNL     1      -0.708  -2.357   1.505  0.00  0.00    -0.302 N 
ATOM     34  C   UNL     1       2.979  -3.324   3.264  0.00  0.00    +0.105 C 
BRANCH  28  35
ATOM     35  O   UNL     1       0.385  -0.982  -0.086  0.00  0.00    -0.358 OA
BRANCH  35  37
ATOM     36  C   UNL     1      -0.632   0.292  -1.871  0.00  0.00    +0.034 C 
ATOM     37  C   UNL     1      -0.496  -1.080  -1.208  0.00  0.00    +0.159 C 
ENDBRANCH  35  37
ENDBRANCH  28  35
ENDBRANCH  22  33
ENDBRANCH   1  25
TORSDOF 5
