REMARK  Name = CHEMBL231568
REMARK  9 active torsions:
REMARK  status: ('A' for Active; 'I' for Inactive)
REMARK    1  A    between atoms: C_1  and  N_2
REMARK    2  A    between atoms: C_3  and  C_5
REMARK    3  A    between atoms: C_7  and  O_11
REMARK    4  A    between atoms: O_11  and  C_12
REMARK    5  A    between atoms: N_21  and  C_22
REMARK    6  A    between atoms: C_26  and  O_28
REMARK    7  A    between atoms: O_28  and  C_29
REMARK    8  A    between atoms: C_29  and  C_30
REMARK    9  A    between atoms: N_35  and  C_36
REMARK                            x       y       z     vdW  Elec       q    Type
REMARK                         _______ _______ _______ _____ _____    ______ ____
ROOT
ATOM      1  C   UNL     1      -3.171  -6.436  -0.176  0.00  0.00    +0.131 A 
ATOM      2  C   UNL     1      -1.998  -7.175  -0.066  0.00  0.00    +0.050 A 
ATOM      3  C   UNL     1      -2.040  -8.554  -0.066  0.00  0.00    +0.052 A 
ATOM      4  C   UNL     1      -3.255  -9.210  -0.176  0.00  0.00    +0.157 A 
ATOM      5  C   UNL     1      -4.442  -8.471  -0.287  0.00  0.00    +0.115 A 
ATOM      6  C   UNL     1      -4.392  -7.076  -0.281  0.00  0.00    +0.078 A 
ATOM      7  N   UNL     1      -5.457  -9.373  -0.378  0.00  0.00    -0.195 NA
ATOM      8  C   UNL     1      -4.952 -10.579  -0.329  0.00  0.00    +0.293 A 
ATOM      9  O   UNL     1      -3.615 -10.515  -0.206  0.00  0.00    -0.424 OA
ATOM     10  N   UNL     1      -5.684 -11.745  -0.393  0.00  0.00    -0.269 N 
ATOM     11  H   UNL     1      -6.635 -11.711  -0.577  0.00  0.00    +0.157 HD
ENDROOT
BRANCH  10  12
ATOM     12  C   UNL     1      -5.055 -12.978  -0.191  0.00  0.00    +0.038 A 
ATOM     13  C   UNL     1      -3.905 -13.053   0.587  0.00  0.00    +0.025 A 
ATOM     14  C   UNL     1      -3.284 -14.270   0.786  0.00  0.00    +0.025 A 
ATOM     15  C   UNL     1      -3.803 -15.417   0.213  0.00  0.00    +0.083 A 
ATOM     16  C   UNL     1      -4.951 -15.347  -0.565  0.00  0.00    +0.140 A 
ATOM     17  C   UNL     1      -5.581 -14.128  -0.762  0.00  0.00    +0.070 A 
ATOM     18 CL   UNL     1      -3.018 -16.944   0.465  0.00  0.00    -0.080 Cl
BRANCH  16  19
ATOM     19  O   UNL     1      -5.460 -16.474  -1.128  0.00  0.00    -0.492 OA
BRANCH  19  20
ATOM     20  C   UNL     1      -6.644 -16.329  -1.915  0.00  0.00    +0.214 C 
BRANCH  20  21
ATOM     21  C   UNL     1      -7.064 -17.694  -2.462  0.00  0.00    -0.031 C 
ATOM     22  C   UNL     1      -5.923 -18.293  -3.311  0.00  0.00    -0.014 C 
ATOM     23  C   UNL     1      -6.679 -18.974  -4.482  0.00  0.00    -0.020 C 
ATOM     24  C   UNL     1      -7.859 -17.996  -4.704  0.00  0.00    -0.079 C 
ATOM     25  N   UNL     1      -8.236 -17.542  -3.344  0.00  0.00    +0.382 N 
ATOM     26  C   UNL     1      -8.643 -16.131  -3.387  0.00  0.00    -0.096 C 
ATOM     27  H   UNL     1      -8.998 -18.104  -2.996  0.00  0.00    -0.082 HD
ENDBRANCH  20  21
ENDBRANCH  19  20
ENDBRANCH  16  19
ENDBRANCH  10  12
BRANCH   1  28
ATOM     28  O   UNL     1      -3.118  -5.077  -0.175  0.00  0.00    -0.456 OA
BRANCH  28  31
ATOM     29  C   UNL     1      -1.843  -4.513  -3.546  0.00  0.00    +0.129 A 
ATOM     30  C   UNL     1      -2.257  -5.190  -2.403  0.00  0.00    +0.079 A 
ATOM     31  C   UNL     1      -2.705  -4.455  -1.308  0.00  0.00    +0.132 A 
ATOM     32  C   UNL     1      -2.719  -3.066  -1.405  0.00  0.00    +0.066 A 
ATOM     33  C   UNL     1      -2.292  -2.465  -2.575  0.00  0.00    +0.115 A 
ATOM     34  N   UNL     1      -1.869  -3.186  -3.591  0.00  0.00    -0.250 NA
BRANCH  29  37
ATOM     35  C   UNL     1      -0.482  -5.387  -6.989  0.00  0.00    +0.128 C 
ATOM     36  N   UNL     1      -0.956  -4.629  -5.828  0.00  0.00    -0.313 N 
ATOM     37  C   UNL     1      -1.364  -5.279  -4.720  0.00  0.00    +0.262 C 
ATOM     38  O   UNL     1      -1.339  -6.493  -4.684  0.00  0.00    -0.269 OA
ATOM     39  H   UNL     1      -0.977  -3.660  -5.857  0.00  0.00    +0.149 HD
ENDBRANCH  29  37
ENDBRANCH  28  31
ENDBRANCH   1  28
TORSDOF 7
