REMARK  Name = CHEMBL289125
REMARK  8 active torsions:
REMARK  status: ('A' for Active; 'I' for Inactive)
REMARK    1  A    between atoms: C_1  and  S_2
REMARK    2  A    between atoms: S_2  and  C_3
REMARK    3  A    between atoms: N_9  and  C_12
REMARK    4  A    between atoms: C_12  and  C_13
REMARK    5  A    between atoms: C_13  and  C_14
REMARK    6  A    between atoms: N_21  and  C_22
REMARK    7  A    between atoms: C_22  and  C_23
REMARK    8  A    between atoms: C_23  and  C_24
REMARK                            x       y       z     vdW  Elec       q    Type
REMARK                         _______ _______ _______ _____ _____    ______ ____
ROOT
ATOM      1  C   UNL     1      -1.702  -0.454   0.016  0.00  0.00    +0.192 A 
ATOM      2  N   UNL     1      -2.617   0.509   0.024  0.00  0.00    -0.206 NA
ATOM      3  C   UNL     1      -3.913   0.223   0.035  0.00  0.00    +0.134 A 
ATOM      4  C   UNL     1      -4.303  -1.131   0.037  0.00  0.00    +0.078 A 
ATOM      5  C   UNL     1      -5.543  -1.805   0.047  0.00  0.00    +0.148 A 
ATOM      6  N   UNL     1      -5.317  -3.088   0.044  0.00  0.00    -0.177 NA
ATOM      7  N   UNL     1      -3.936  -3.322   0.032  0.00  0.00    -0.245 N 
ATOM      8  C   UNL     1      -3.298  -2.118   0.028  0.00  0.00    +0.164 A 
ATOM      9  N   UNL     1      -2.022  -1.737   0.012  0.00  0.00    -0.202 NA
ATOM     10  N   UNL     1      -4.858   1.230   0.044  0.00  0.00    -0.328 N 
ATOM     11  H   UNL     1      -5.803   1.009   0.052  0.00  0.00    +0.147 HD
ENDROOT
BRANCH   1  13
ATOM     12  C   UNL     1      -0.022   1.810   0.012  0.00  0.00    +0.093 C 
ATOM     13  S   UNL     1       0.002  -0.004   0.002  0.00  0.00    -0.089 S 
ENDBRANCH   1  13
BRANCH   7  14
ATOM     14  C   UNL     1      -3.289  -4.637   0.026  0.00  0.00    +0.169 C 
BRANCH  14  15
ATOM     15  C   UNL     1      -3.075  -5.093  -1.419  0.00  0.00    +0.132 C 
ATOM     16 CL   UNL     1      -1.910  -3.983  -2.233  0.00  0.00    -0.115 Cl
BRANCH  15  17
ATOM     17  C   UNL     1      -2.522  -6.495  -1.427  0.00  0.00    -0.028 A 
ATOM     18  C   UNL     1      -1.272  -6.748  -0.895  0.00  0.00    +0.005 A 
ATOM     19  C   UNL     1      -0.765  -8.034  -0.902  0.00  0.00    +0.000 A 
ATOM     20  C   UNL     1      -1.509  -9.067  -1.440  0.00  0.00    +0.000 A 
ATOM     21  C   UNL     1      -2.760  -8.814  -1.971  0.00  0.00    +0.000 A 
ATOM     22  C   UNL     1      -3.269  -7.529  -1.960  0.00  0.00    +0.005 A 
ENDBRANCH  15  17
ENDBRANCH  14  15
ENDBRANCH   7  14
BRANCH  10  23
ATOM     23  C   UNL     1      -4.435   2.632   0.042  0.00  0.00    +0.107 C 
BRANCH  23  24
ATOM     24  C   UNL     1      -5.668   3.538   0.054  0.00  0.00    +0.054 C 
BRANCH  24  25
ATOM     25  C   UNL     1      -5.232   4.980   0.052  0.00  0.00    -0.046 A 
ATOM     26  C   UNL     1      -5.017   5.639   1.248  0.00  0.00    +0.004 A 
ATOM     27  C   UNL     1      -4.617   6.962   1.246  0.00  0.00    +0.000 A 
ATOM     28  C   UNL     1      -4.432   7.627   0.049  0.00  0.00    +0.000 A 
ATOM     29  C   UNL     1      -4.647   6.968  -1.148  0.00  0.00    +0.000 A 
ATOM     30  C   UNL     1      -5.042   5.644  -1.146  0.00  0.00    +0.004 A 
ENDBRANCH  24  25
ENDBRANCH  23  24
ENDBRANCH  10  23
TORSDOF 7
