REMARK  Name = CHEMBL377481
REMARK  8 active torsions:
REMARK  status: ('A' for Active; 'I' for Inactive)
REMARK    1  A    between atoms: C_1  and  C_2
REMARK    2  A    between atoms: C_6  and  C_42
REMARK    3  A    between atoms: C_7  and  O_8
REMARK    4  A    between atoms: O_8  and  C_9
REMARK    5  A    between atoms: N_11  and  C_12
REMARK    6  A    between atoms: N_28  and  C_29
REMARK    7  A    between atoms: C_32  and  N_35
REMARK    8  A    between atoms: N_38  and  C_41
REMARK                            x       y       z     vdW  Elec       q    Type
REMARK                         _______ _______ _______ _____ _____    ______ ____
ROOT
ATOM      1  C   UNL     1      -1.881   1.673   3.272  0.00  0.00    +0.418 C 
ATOM      2  O   UNL     1      -2.936   1.264   2.831  0.00  0.00    -0.225 OA
ATOM      3  N   UNL     1      -1.187   0.930   4.156  0.00  0.00    -0.189 N 
ATOM      4  C   UNL     1       0.070   1.349   4.582  0.00  0.00    +0.140 A 
ATOM      5  C   UNL     1       1.209   1.042   3.836  0.00  0.00    +0.064 A 
ATOM      6  C   UNL     1       2.437   1.478   4.298  0.00  0.00    +0.118 A 
ATOM      7  N   UNL     1       2.496   2.170   5.426  0.00  0.00    -0.223 NA
ATOM      8  C   UNL     1       1.398   2.447   6.113  0.00  0.00    +0.221 A 
ATOM      9  N   UNL     1       0.202   2.051   5.702  0.00  0.00    -0.198 NA
ATOM     10  N   UNL     1       1.502   3.173   7.288  0.00  0.00    -0.284 N 
ATOM     11  H   UNL     1       0.702   3.421   7.777  0.00  0.00    +0.155 HD
ENDROOT
BRANCH   3  12
ATOM     12  C   UNL     1      -1.730  -0.264   4.646  0.00  0.00    +0.047 A 
ATOM     13  C   UNL     1      -2.068  -0.366   6.000  0.00  0.00    +0.024 A 
ATOM     14  C   UNL     1      -2.597  -1.513   6.504  0.00  0.00    +0.010 A 
ATOM     15  C   UNL     1      -2.811  -2.616   5.659  0.00  0.00    -0.018 A 
ATOM     16  C   UNL     1      -3.356  -3.814   6.151  0.00  0.00    +0.008 A 
ATOM     17  C   UNL     1      -3.551  -4.863   5.306  0.00  0.00    +0.001 A 
ATOM     18  C   UNL     1      -3.217  -4.770   3.956  0.00  0.00    +0.001 A 
ATOM     19  C   UNL     1      -2.687  -3.626   3.444  0.00  0.00    +0.008 A 
ATOM     20  C   UNL     1      -2.472  -2.521   4.286  0.00  0.00    -0.016 A 
ATOM     21  C   UNL     1      -1.931  -1.323   3.790  0.00  0.00    +0.032 A 
ENDBRANCH   3  12
BRANCH  10  22
ATOM     22  C   UNL     1       2.762   3.548   7.770  0.00  0.00    +0.034 A 
ATOM     23  C   UNL     1       3.770   3.898   6.881  0.00  0.00    +0.025 A 
ATOM     24  C   UNL     1       5.012   4.268   7.357  0.00  0.00    +0.025 A 
ATOM     25  C   UNL     1       5.254   4.290   8.724  0.00  0.00    +0.030 A 
ATOM     26  C   UNL     1       4.246   3.940   9.613  0.00  0.00    +0.025 A 
ATOM     27  C   UNL     1       3.002   3.575   9.138  0.00  0.00    +0.025 A 
BRANCH  25  28
ATOM     28  N   UNL     1       6.513   4.665   9.206  0.00  0.00    -0.333 N 
ATOM     29  C   UNL     1       6.838   4.559  10.637  0.00  0.00    +0.086 C 
ATOM     30  C   UNL     1       8.166   3.808  10.780  0.00  0.00    -0.060 C 
ATOM     31  N   UNL     1       9.194   4.479   9.973  0.00  0.00    +0.380 N 
ATOM     32  C   UNL     1       8.845   4.397   8.549  0.00  0.00    -0.060 C 
ATOM     33  C   UNL     1       7.552   5.171   8.296  0.00  0.00    +0.086 C 
ATOM     34  C   UNL     1      10.491   3.825  10.195  0.00  0.00    -0.096 C 
ATOM     35  H   UNL     1       9.257   5.447  10.248  0.00  0.00    -0.082 HD
ENDBRANCH  25  28
ENDBRANCH  10  22
BRANCH   1  36
ATOM     36  O   UNL     1      -1.404   2.869   2.877  0.00  0.00    -0.410 OA
BRANCH  36  43
ATOM     37  C   UNL     1      -3.326   4.664   3.910  0.00  0.00    +0.047 C 
ATOM     38  C   UNL     1      -3.096   4.482   2.432  0.00  0.00    -0.008 A 
ATOM     39  C   UNL     1      -3.835   5.213   1.522  0.00  0.00    +0.007 A 
ATOM     40  C   UNL     1      -3.625   5.046   0.165  0.00  0.00    +0.001 A 
ATOM     41  C   UNL     1      -2.674   4.149  -0.284  0.00  0.00    +0.007 A 
ATOM     42  C   UNL     1      -1.932   3.416   0.622  0.00  0.00    -0.008 A 
ATOM     43  C   UNL     1      -2.137   3.585   1.983  0.00  0.00    +0.139 A 
ATOM     44  C   UNL     1      -0.896   2.438   0.131  0.00  0.00    +0.047 C 
ENDBRANCH  36  43
ENDBRANCH   1  36
TORSDOF 5
