REMARK  Name = CHEMBL230613
REMARK  9 active torsions:
REMARK  status: ('A' for Active; 'I' for Inactive)
REMARK    1  A    between atoms: C_1  and  C_2
REMARK    2  A    between atoms: C_6  and  C_35
REMARK    3  A    between atoms: C_7  and  C_8
REMARK    4  A    between atoms: C_10  and  C_34
REMARK    5  A    between atoms: N_18  and  C_19
REMARK    6  A    between atoms: C_23  and  O_25
REMARK    7  A    between atoms: O_25  and  C_26
REMARK    8  A    between atoms: C_26  and  C_27
REMARK    9  A    between atoms: C_27  and  N_28
REMARK                            x       y       z     vdW  Elec       q    Type
REMARK                         _______ _______ _______ _____ _____    ______ ____
ROOT
ATOM      1  C   UNL     1       0.967   0.156   2.776  0.00  0.00    -0.015 A 
ATOM      2  C   UNL     1       2.001   0.026   3.718  0.00  0.00    +0.014 A 
ATOM      3  C   UNL     1       1.955   0.695   4.900  0.00  0.00    -0.022 A 
ATOM      4  C   UNL     1       0.862   1.528   5.191  0.00  0.00    +0.097 A 
ATOM      5  C   UNL     1      -0.189   1.667   4.246  0.00  0.00    +0.112 A 
ATOM      6  C   UNL     1      -0.119   0.972   3.030  0.00  0.00    +0.040 A 
ATOM      7  N   UNL     1      -1.222   2.465   4.539  0.00  0.00    -0.144 NA
ATOM      8  N   UNL     1      -1.248   3.091   5.665  0.00  0.00    -0.112 NA
ATOM      9  C   UNL     1      -0.269   2.972   6.565  0.00  0.00    +0.240 A 
ATOM     10  N   UNL     1       0.781   2.203   6.344  0.00  0.00    -0.211 NA
ATOM     11  N   UNL     1      -0.357   3.672   7.756  0.00  0.00    -0.282 N 
ATOM     12  C   UNL     1       3.074   0.542   5.898  0.00  0.00    +0.046 C 
ATOM     13  H   UNL     1       0.385   3.660   8.381  0.00  0.00    +0.155 HD
ENDROOT
BRANCH   1  20
ATOM     14  C   UNL     1       1.212   1.614   0.289  0.00  0.00    +0.044 C 
ATOM     15  C   UNL     1       1.163   0.108   0.290  0.00  0.00    -0.042 A 
ATOM     16  C   UNL     1       1.240  -0.587  -0.899  0.00  0.00    +0.004 A 
ATOM     17  C   UNL     1       1.195  -1.970  -0.900  0.00  0.00    +0.001 A 
ATOM     18  C   UNL     1       1.073  -2.663   0.291  0.00  0.00    +0.004 A 
ATOM     19  C   UNL     1       0.995  -1.978   1.486  0.00  0.00    -0.042 A 
ATOM     20  C   UNL     1       1.045  -0.586   1.493  0.00  0.00    -0.012 A 
ATOM     21  C   UNL     1       0.861  -2.736   2.783  0.00  0.00    +0.044 C 
ENDBRANCH   1  20
BRANCH  11  22
ATOM     22  C   UNL     1      -1.513   4.397   8.058  0.00  0.00    +0.037 A 
ATOM     23  C   UNL     1      -2.760   3.903   7.691  0.00  0.00    +0.023 A 
ATOM     24  C   UNL     1      -3.902   4.619   7.989  0.00  0.00    +0.005 A 
ATOM     25  C   UNL     1      -3.810   5.828   8.653  0.00  0.00    +0.046 A 
ATOM     26  C   UNL     1      -2.568   6.326   9.022  0.00  0.00    +0.122 A 
ATOM     27  C   UNL     1      -1.419   5.608   8.729  0.00  0.00    +0.069 A 
BRANCH  26  28
ATOM     28  O   UNL     1      -2.479   7.515   9.675  0.00  0.00    -0.494 OA
BRANCH  28  29
ATOM     29  C   UNL     1      -3.704   8.198   9.948  0.00  0.00    +0.210 C 
BRANCH  29  30
ATOM     30  C   UNL     1      -3.405   9.507  10.682  0.00  0.00    -0.037 C 
BRANCH  30  31
ATOM     31  N   UNL     1      -2.627  10.393   9.806  0.00  0.00    +0.385 N 
ATOM     32  C   UNL     1      -2.208  11.582  10.560  0.00  0.00    -0.050 C 
ATOM     33  C   UNL     1      -1.397  12.504   9.645  0.00  0.00    +0.141 C 
ATOM     34  O   UNL     1      -2.190  12.855   8.508  0.00  0.00    -0.383 OA
ATOM     35  C   UNL     1      -2.643  11.727   7.753  0.00  0.00    +0.141 C 
ATOM     36  C   UNL     1      -3.456  10.805   8.665  0.00  0.00    -0.050 C 
ATOM     37  H   UNL     1      -1.812   9.902   9.470  0.00  0.00    -0.081 HD
ENDBRANCH  30  31
ENDBRANCH  29  30
ENDBRANCH  28  29
ENDBRANCH  26  28
ENDBRANCH  11  22
TORSDOF 6
