REMARK  Name = CHEMBL436968
REMARK  9 active torsions:
REMARK  status: ('A' for Active; 'I' for Inactive)
REMARK    1  A    between atoms: C_1  and  C_2
REMARK    2  A    between atoms: C_2  and  C_3
REMARK    3  A    between atoms: C_2  and  O_4
REMARK    4  A    between atoms: O_4  and  C_5
REMARK    5  A    between atoms: C_7  and  O_26
REMARK    6  A    between atoms: N_15  and  C_16
REMARK    7  A    between atoms: O_26  and  C_27
REMARK    8  A    between atoms: C_27  and  C_28
REMARK    9  A    between atoms: C_28  and  N_29
REMARK                            x       y       z     vdW  Elec       q    Type
REMARK                         _______ _______ _______ _____ _____    ______ ____
ROOT
ATOM      1  C   UNL     1       0.065  -1.184   1.948  0.00  0.00    +0.137 A 
ATOM      2  C   UNL     1      -1.266  -0.858   1.791  0.00  0.00    +0.092 A 
ATOM      3  C   UNL     1      -2.244  -1.466   2.578  0.00  0.00    +0.126 A 
ATOM      4  C   UNL     1      -1.903  -2.407   3.529  0.00  0.00    +0.074 A 
ATOM      5  C   UNL     1      -0.561  -2.756   3.708  0.00  0.00    +0.083 A 
ATOM      6  C   UNL     1       0.433  -2.143   2.906  0.00  0.00    +0.082 A 
ATOM      7  C   UNL     1       1.780  -2.520   3.107  0.00  0.00    +0.138 A 
ATOM      8  N   UNL     1       2.046  -3.434   4.033  0.00  0.00    -0.220 NA
ATOM      9  C   UNL     1       1.084  -3.985   4.755  0.00  0.00    +0.223 A 
ATOM     10  N   UNL     1      -0.182  -3.665   4.621  0.00  0.00    -0.235 NA
ATOM     11  N   UNL     1       2.793  -1.954   2.360  0.00  0.00    -0.295 N 
ATOM     12  H   UNL     1       2.597  -1.225   1.751  0.00  0.00    +0.154 HD
ENDROOT
BRANCH  11  13
ATOM     13  C   UNL     1       4.104  -2.433   2.480  0.00  0.00    +0.097 A 
ATOM     14  C   UNL     1       4.743  -2.407   3.713  0.00  0.00    +0.066 A 
ATOM     15  C   UNL     1       6.037  -2.880   3.832  0.00  0.00    +0.025 A 
ATOM     16  C   UNL     1       6.699  -3.380   2.726  0.00  0.00    +0.051 A 
ATOM     17  C   UNL     1       6.068  -3.411   1.492  0.00  0.00    +0.168 A 
ATOM     18  C   UNL     1       4.765  -2.941   1.367  0.00  0.00    +0.189 A 
ATOM     19  O   UNL     1       4.371  -3.084   0.067  0.00  0.00    -0.451 OA
ATOM     20  C   UNL     1       5.585  -3.272  -0.683  0.00  0.00    +0.466 C 
ATOM     21  O   UNL     1       6.494  -3.847   0.270  0.00  0.00    -0.453 OA
ATOM     22 CL   UNL     1       3.918  -1.779   5.106  0.00  0.00    -0.081 Cl
ENDBRANCH  11  13
BRANCH   1  23
ATOM     23  O   UNL     1       1.010  -0.587   1.178  0.00  0.00    -0.488 OA
BRANCH  23  25
ATOM     24  C   UNL     1       0.454   1.760   1.028  0.00  0.00    +0.051 C 
ATOM     25  C   UNL     1       0.567   0.431   0.279  0.00  0.00    +0.167 C 
ATOM     26  C   UNL     1       1.572   0.574  -0.866  0.00  0.00    +0.051 C 
ENDBRANCH  23  25
ENDBRANCH   1  23
BRANCH   3  27
ATOM     27  O   UNL     1      -3.548  -1.129   2.407  0.00  0.00    -0.494 OA
BRANCH  27  28
ATOM     28  C   UNL     1      -4.503  -1.786   3.242  0.00  0.00    +0.210 C 
BRANCH  28  29
ATOM     29  C   UNL     1      -5.908  -1.280   2.906  0.00  0.00    -0.037 C 
BRANCH  29  30
ATOM     30  N   UNL     1      -6.254  -1.672   1.533  0.00  0.00    +0.385 N 
ATOM     31  C   UNL     1      -7.543  -1.071   1.162  0.00  0.00    -0.050 C 
ATOM     32  C   UNL     1      -7.901  -1.481  -0.268  0.00  0.00    +0.141 C 
ATOM     33  O   UNL     1      -7.943  -2.908  -0.353  0.00  0.00    -0.383 OA
ATOM     34  C   UNL     1      -6.717  -3.542   0.022  0.00  0.00    +0.141 C 
ATOM     35  C   UNL     1      -6.356  -3.136   1.453  0.00  0.00    -0.050 C 
ATOM     36  H   UNL     1      -5.537  -1.350   0.900  0.00  0.00    -0.081 HD
ENDBRANCH  29  30
ENDBRANCH  28  29
ENDBRANCH  27  28
ENDBRANCH   3  27
TORSDOF 7
