REMARK  Name = CHEMBL169725
REMARK  8 active torsions:
REMARK  status: ('A' for Active; 'I' for Inactive)
REMARK    1  A    between atoms: C_1  and  O_2
REMARK    2  A    between atoms: O_2  and  C_3
REMARK    3  A    between atoms: C_8  and  O_9
REMARK    4  A    between atoms: O_9  and  C_10
REMARK    5  A    between atoms: C_10  and  C_11
REMARK    6  A    between atoms: C_11  and  C_12
REMARK    7  A    between atoms: C_12  and  N_13
REMARK    8  A    between atoms: N_23  and  C_24
REMARK                            x       y       z     vdW  Elec       q    Type
REMARK                         _______ _______ _______ _____ _____    ______ ____
ROOT
ATOM      1  C   UNL     1       0.053  -0.612  -1.444  0.00  0.00    +0.162 A 
ATOM      2  C   UNL     1       0.784   0.154  -2.308  0.00  0.00    +0.062 A 
ATOM      3  C   UNL     1       1.603  -0.465  -3.260  0.00  0.00    +0.044 A 
ATOM      4  C   UNL     1       1.669  -1.879  -3.323  0.00  0.00    +0.080 A 
ATOM      5  C   UNL     1       0.912  -2.644  -2.428  0.00  0.00    +0.078 A 
ATOM      6  C   UNL     1       0.118  -2.011  -1.497  0.00  0.00    +0.164 A 
ATOM      7  N   UNL     1       2.462  -2.447  -4.245  0.00  0.00    -0.235 NA
ATOM      8  C   UNL     1       3.161  -1.703  -5.070  0.00  0.00    +0.223 A 
ATOM      9  N   UNL     1       3.131  -0.380  -5.048  0.00  0.00    -0.220 NA
ATOM     10  C   UNL     1       2.381   0.282  -4.177  0.00  0.00    +0.134 A 
ATOM     11  N   UNL     1       2.359   1.662  -4.166  0.00  0.00    -0.299 N 
ATOM     12  H   UNL     1       1.872   2.134  -3.472  0.00  0.00    +0.154 HD
ENDROOT
BRANCH  11  13
ATOM     13  C   UNL     1       3.039   2.381  -5.156  0.00  0.00    +0.036 A 
ATOM     14  C   UNL     1       3.659   3.582  -4.840  0.00  0.00    +0.027 A 
ATOM     15  C   UNL     1       4.330   4.293  -5.816  0.00  0.00    +0.051 A 
ATOM     16  C   UNL     1       4.388   3.809  -7.113  0.00  0.00    +0.166 A 
ATOM     17  C   UNL     1       3.768   2.603  -7.433  0.00  0.00    +0.168 A 
ATOM     18  C   UNL     1       3.099   1.889  -6.453  0.00  0.00    +0.072 A 
ATOM     19  O   UNL     1       3.967   2.349  -8.760  0.00  0.00    -0.453 OA
ATOM     20  C   UNL     1       4.364   3.607  -9.337  0.00  0.00    +0.466 C 
ATOM     21  O   UNL     1       4.976   4.309  -8.240  0.00  0.00    -0.453 OA
ENDBRANCH  11  13
BRANCH   1  23
ATOM     22  C   UNL     1      -0.764   1.419  -0.515  0.00  0.00    +0.277 C 
ATOM     23  O   UNL     1      -0.741  -0.010  -0.519  0.00  0.00    -0.491 OA
ENDBRANCH   1  23
BRANCH   6  24
ATOM     24  O   UNL     1      -0.615  -2.751  -0.625  0.00  0.00    -0.488 OA
BRANCH  24  25
ATOM     25  C   UNL     1      -0.506  -4.172  -0.729  0.00  0.00    +0.227 C 
BRANCH  25  26
ATOM     26  C   UNL     1      -1.396  -4.830   0.328  0.00  0.00    +0.022 C 
BRANCH  26  27
ATOM     27  C   UNL     1      -1.280  -6.352   0.216  0.00  0.00    -0.075 C 
BRANCH  27  28
ATOM     28  N   UNL     1      -2.135  -6.983   1.231  0.00  0.00    +0.383 N 
ATOM     29  C   UNL     1      -1.630  -6.653   2.571  0.00  0.00    -0.050 C 
ATOM     30  C   UNL     1      -2.522  -7.312   3.626  0.00  0.00    +0.141 C 
ATOM     31  O   UNL     1      -2.546  -8.726   3.407  0.00  0.00    -0.383 OA
ATOM     32  C   UNL     1      -3.008  -9.097   2.105  0.00  0.00    +0.141 C 
ATOM     33  C   UNL     1      -2.117  -8.441   1.047  0.00  0.00    -0.050 C 
ATOM     34  H   UNL     1      -3.080  -6.644   1.133  0.00  0.00    -0.082 HD
ENDBRANCH  27  28
ENDBRANCH  26  27
ENDBRANCH  25  26
ENDBRANCH  24  25
ENDBRANCH   6  24
TORSDOF 7
