REMARK  Name = CHEMBL591325
REMARK  10 active torsions:
REMARK  status: ('A' for Active; 'I' for Inactive)
REMARK    1  A    between atoms: C_1  and  N_2
REMARK    2  A    between atoms: N_2  and  C_3
REMARK    3  A    between atoms: N_2  and  C_4
REMARK    4  A    between atoms: C_4  and  C_5
REMARK    5  A    between atoms: C_5  and  O_6
REMARK    6  A    between atoms: O_6  and  C_7
REMARK    7  A    between atoms: C_17  and  C_33
REMARK    8  A    between atoms: C_18  and  C_20
REMARK    9  A    between atoms: C_23  and  O_26
REMARK   10  A    between atoms: O_26  and  C_27
REMARK                            x       y       z     vdW  Elec       q    Type
REMARK                         _______ _______ _______ _____ _____    ______ ____
ROOT
ATOM      1  C   UNL     1      -0.542  -3.694   2.017  0.00  0.00    +0.121 A 
ATOM      2  C   UNL     1      -1.106  -4.362   0.939  0.00  0.00    +0.047 A 
ATOM      3  C   UNL     1      -1.136  -5.738   0.953  0.00  0.00    +0.027 A 
ATOM      4  C   UNL     1      -0.609  -6.459   2.028  0.00  0.00    +0.036 A 
ATOM      5  C   UNL     1      -0.038  -5.811   3.098  0.00  0.00    -0.021 A 
ATOM      6  C   UNL     1      -0.016  -4.409   3.070  0.00  0.00    +0.051 A 
ATOM      7  C   UNL     1       0.613  -6.377   4.342  0.00  0.00    +0.060 C 
ATOM      8  C   UNL     1       0.919  -7.858   4.271  0.00  0.00    +0.150 C 
ATOM      9  N   UNL     1      -0.307  -8.645   4.106  0.00  0.00    -0.249 N 
ATOM     10  C   UNL     1      -1.063  -8.614   3.024  0.00  0.00    +0.134 A 
ATOM     11  C   UNL     1      -2.153  -9.449   3.209  0.00  0.00    +0.104 A 
ATOM     12  C   UNL     1      -1.976 -10.026   4.551  0.00  0.00    +0.107 A 
ATOM     13  N   UNL     1      -0.865  -9.523   5.045  0.00  0.00    -0.169 NA
ATOM     14  N   UNL     1      -0.716  -7.850   1.932  0.00  0.00    -0.299 N 
ATOM     15  H   UNL     1      -0.543  -8.284   1.082  0.00  0.00    +0.154 HD
ENDROOT
BRANCH  12  16
ATOM     16  C   UNL     1      -2.880 -10.992   5.221  0.00  0.00    +0.003 A 
ATOM     17  C   UNL     1      -4.257 -10.920   5.013  0.00  0.00    +0.014 A 
ATOM     18  C   UNL     1      -5.095 -11.821   5.637  0.00  0.00    +0.047 A 
ATOM     19  C   UNL     1      -4.568 -12.798   6.471  0.00  0.00    +0.128 A 
ATOM     20  C   UNL     1      -3.197 -12.872   6.680  0.00  0.00    +0.047 A 
ATOM     21  C   UNL     1      -2.354 -11.979   6.054  0.00  0.00    +0.014 A 
BRANCH  19  22
ATOM     22  O   UNL     1      -5.396 -13.683   7.085  0.00  0.00    -0.456 OA
BRANCH  22  23
ATOM     23  C   UNL     1      -5.904 -14.702   6.343  0.00  0.00    +0.128 A 
ATOM     24  C   UNL     1      -5.497 -14.873   5.027  0.00  0.00    +0.046 A 
ATOM     25  C   UNL     1      -6.015 -15.910   4.275  0.00  0.00    +0.004 A 
ATOM     26  C   UNL     1      -6.938 -16.776   4.832  0.00  0.00    +0.000 A 
ATOM     27  C   UNL     1      -7.345 -16.608   6.143  0.00  0.00    +0.004 A 
ATOM     28  C   UNL     1      -6.825 -15.576   6.901  0.00  0.00    +0.046 A 
ENDBRANCH  22  23
ENDBRANCH  19  22
ENDBRANCH  12  16
BRANCH  11  29
ATOM     29  C   UNL     1      -3.248  -9.703   2.268  0.00  0.00    +0.247 C 
ATOM     30  O   UNL     1      -3.159 -10.611   1.461  0.00  0.00    -0.270 OA
ATOM     31  N   UNL     1      -4.353  -8.933   2.296  0.00  0.00    -0.325 N 
ATOM     32  H   UNL     1      -4.424  -8.210   2.939  0.00  0.00    +0.145 HD
ATOM     33  H   UNL     1      -5.078  -9.101   1.674  0.00  0.00    +0.145 HD
ENDBRANCH  11  29
BRANCH   1  34
ATOM     34  O   UNL     1      -0.505  -2.334   2.031  0.00  0.00    -0.494 OA
BRANCH  34  35
ATOM     35  C   UNL     1      -1.070  -1.659   0.906  0.00  0.00    +0.210 C 
BRANCH  35  36
ATOM     36  C   UNL     1      -0.937  -0.147   1.099  0.00  0.00    -0.038 C 
BRANCH  36  38
ATOM     37  C   UNL     1       1.050  -0.030  -0.239  0.00  0.00    -0.096 C 
ATOM     38  N   UNL     1       0.484   0.225   1.092  0.00  0.00    +0.378 N 
ATOM     39  C   UNL     1       0.619   1.651   1.417  0.00  0.00    -0.096 C 
ATOM     40  H   UNL     1       0.979  -0.325   1.779  0.00  0.00    -0.082 HD
ENDBRANCH  36  38
ENDBRANCH  35  36
ENDBRANCH  34  35
ENDBRANCH   1  34
TORSDOF 8
