REMARK  Name = CHEMBL172518
REMARK  8 active torsions:
REMARK  status: ('A' for Active; 'I' for Inactive)
REMARK    1  A    between atoms: C_1  and  O_2
REMARK    2  A    between atoms: O_2  and  C_3
REMARK    3  A    between atoms: C_8  and  O_9
REMARK    4  A    between atoms: O_9  and  C_10
REMARK    5  A    between atoms: C_10  and  C_11
REMARK    6  A    between atoms: C_11  and  C_12
REMARK    7  A    between atoms: C_12  and  N_13
REMARK    8  A    between atoms: N_23  and  C_24
REMARK                            x       y       z     vdW  Elec       q    Type
REMARK                         _______ _______ _______ _____ _____    ______ ____
ROOT
ATOM      1  C   UNL     1      -0.033  -0.533  -1.454  0.00  0.00    +0.162 A 
ATOM      2  C   UNL     1       0.732   0.207  -2.310  0.00  0.00    +0.062 A 
ATOM      3  C   UNL     1       1.360  -0.417  -3.395  0.00  0.00    +0.044 A 
ATOM      4  C   UNL     1       1.198  -1.810  -3.599  0.00  0.00    +0.080 A 
ATOM      5  C   UNL     1       0.409  -2.549  -2.709  0.00  0.00    +0.078 A 
ATOM      6  C   UNL     1      -0.193  -1.912  -1.646  0.00  0.00    +0.164 A 
ATOM      7  N   UNL     1       1.811  -2.384  -4.646  0.00  0.00    -0.235 NA
ATOM      8  C   UNL     1       2.545  -1.665  -5.463  0.00  0.00    +0.223 A 
ATOM      9  N   UNL     1       2.724  -0.363  -5.312  0.00  0.00    -0.220 NA
ATOM     10  C   UNL     1       2.163   0.303  -4.311  0.00  0.00    +0.134 A 
ATOM     11  N   UNL     1       2.359   1.662  -4.166  0.00  0.00    -0.296 N 
ATOM     12  H   UNL     1       2.025   2.119  -3.378  0.00  0.00    +0.154 HD
ENDROOT
BRANCH  11  13
ATOM     13  C   UNL     1       3.039   2.380  -5.155  0.00  0.00    +0.076 A 
ATOM     14  C   UNL     1       3.099   1.892  -6.450  0.00  0.00    +0.027 A 
ATOM     15  C   UNL     1       3.769   2.595  -7.439  0.00  0.00    +0.003 A 
ATOM     16  C   UNL     1       4.386   3.791  -7.146  0.00  0.00    +0.013 A 
ATOM     17  C   UNL     1       4.335   4.296  -5.846  0.00  0.00    +0.040 A 
ATOM     18  C   UNL     1       3.653   3.593  -4.842  0.00  0.00    +0.157 A 
ATOM     19  O   UNL     1       3.761   4.310  -3.705  0.00  0.00    -0.460 OA
ATOM     20  C   UNL     1       4.466   5.437  -3.914  0.00  0.00    +0.216 A 
ATOM     21  C   UNL     1       4.861   5.502  -5.194  0.00  0.00    +0.086 A 
ATOM     22 CL   UNL     1       5.792   6.766  -5.934  0.00  0.00    -0.080 Cl
ENDBRANCH  11  13
BRANCH   1  24
ATOM     23  C   UNL     1      -0.442   1.482  -0.259  0.00  0.00    +0.277 C 
ATOM     24  O   UNL     1      -0.642   0.074  -0.401  0.00  0.00    -0.491 OA
ENDBRANCH   1  24
BRANCH   6  25
ATOM     25  O   UNL     1      -0.954  -2.628  -0.778  0.00  0.00    -0.488 OA
BRANCH  25  26
ATOM     26  C   UNL     1      -1.079  -4.029  -1.028  0.00  0.00    +0.230 C 
BRANCH  26  27
ATOM     27  C   UNL     1      -1.967  -4.661   0.046  0.00  0.00    +0.056 C 
BRANCH  27  28
ATOM     28  C   UNL     1      -2.100  -6.162  -0.221  0.00  0.00    +0.088 C 
BRANCH  28  29
ATOM     29  N   UNL     1      -2.953  -6.769   0.810  0.00  0.00    -0.298 NA
ATOM     30  C   UNL     1      -2.306  -6.711   2.130  0.00  0.00    +0.112 C 
ATOM     31  C   UNL     1      -3.252  -7.298   3.181  0.00  0.00    +0.175 C 
ATOM     32  O   UNL     1      -3.601  -8.634   2.808  0.00  0.00    -0.377 OA
ATOM     33  C   UNL     1      -4.233  -8.727   1.528  0.00  0.00    +0.175 C 
ATOM     34  C   UNL     1      -3.298  -8.154   0.460  0.00  0.00    +0.112 C 
ENDBRANCH  28  29
ENDBRANCH  27  28
ENDBRANCH  26  27
ENDBRANCH  25  26
ENDBRANCH   6  25
TORSDOF 7
