REMARK  Name = CHEMBL68114
REMARK  5 active torsions:
REMARK  status: ('A' for Active; 'I' for Inactive)
REMARK    1  A    between atoms: C_6  and  C_7
REMARK    2  A    between atoms: C_8  and  C_9
REMARK    3  A    between atoms: C_17  and  C_28
REMARK    4  A    between atoms: C_18  and  O_19
REMARK    5  A    between atoms: O_19  and  C_20
REMARK                            x       y       z     vdW  Elec       q    Type
REMARK                         _______ _______ _______ _____ _____    ______ ____
ROOT
ATOM      1  C   UNL     1      -0.017   1.402   0.010  0.00  0.00    +0.009 A 
ATOM      2  C   UNL     1       1.143   2.110   0.003  0.00  0.00    +0.014 A 
ATOM      3  C   UNL     1       2.376   1.439  -0.013  0.00  0.00    +0.044 A 
ATOM      4  C   UNL     1       2.413   0.022  -0.021  0.00  0.00    +0.075 A 
ATOM      5  C   UNL     1       1.207  -0.693  -0.014  0.00  0.00    +0.036 A 
ATOM      6  C   UNL     1       0.002  -0.004   0.002  0.00  0.00    -0.023 A 
ATOM      7  N   UNL     1       3.588  -0.623  -0.036  0.00  0.00    -0.253 NA
ATOM      8  C   UNL     1       4.729   0.017  -0.043  0.00  0.00    +0.134 A 
ATOM      9  C   UNL     1       4.785   1.421  -0.035  0.00  0.00    +0.113 A 
ATOM     10  C   UNL     1       3.593   2.155  -0.021  0.00  0.00    +0.156 A 
ENDROOT
BRANCH   6  11
ATOM     11  C   UNL     1      -1.267  -0.752   0.010  0.00  0.00    +0.008 C 
ATOM     12  C   UNL     1      -2.436  -0.091   0.025  0.00  0.00    +0.008 C 
BRANCH  12  13
ATOM     13  C   UNL     1      -3.705  -0.839   0.033  0.00  0.00    -0.022 A 
ATOM     14  C   UNL     1      -3.716  -2.241   0.032  0.00  0.00    +0.027 A 
ATOM     15  C   UNL     1      -4.927  -2.900   0.040  0.00  0.00    +0.111 A 
ATOM     16  N   UNL     1      -6.064  -2.230   0.049  0.00  0.00    -0.263 NA
ATOM     17  C   UNL     1      -6.100  -0.910   0.051  0.00  0.00    +0.111 A 
ATOM     18  C   UNL     1      -4.937  -0.170   0.048  0.00  0.00    +0.027 A 
ENDBRANCH  12  13
ENDBRANCH   6  11
BRANCH   9  19
ATOM     19  C   UNL     1       6.049   2.094  -0.043  0.00  0.00    +0.104 C 
ATOM     20  N   UNL     1       7.051   2.628  -0.049  0.00  0.00    -0.191 NA
ENDBRANCH   9  19
BRANCH  10  21
ATOM     21  O   UNL     1       3.607   3.508  -0.014  0.00  0.00    -0.453 OA
BRANCH  21  22
ATOM     22  C   UNL     1       3.624   4.140   1.189  0.00  0.00    +0.147 A 
ATOM     23  C   UNL     1       3.634   3.400   2.362  0.00  0.00    +0.049 A 
ATOM     24  C   UNL     1       3.651   4.044   3.584  0.00  0.00    +0.023 A 
ATOM     25  C   UNL     1       3.660   5.427   3.639  0.00  0.00    +0.043 A 
ATOM     26  C   UNL     1       3.650   6.168   2.471  0.00  0.00    +0.043 A 
ATOM     27  C   UNL     1       3.639   5.527   1.245  0.00  0.00    +0.085 A 
ATOM     28 CL   UNL     1       3.634   6.457  -0.221  0.00  0.00    -0.080 Cl
ATOM     29 CL   UNL     1       3.681   6.233   5.176  0.00  0.00    -0.083 Cl
ENDBRANCH  21  22
ENDBRANCH  10  21
TORSDOF 5
